data_mof_unit_pretest_1783.cif
_audit_creation_date              2012-12-10T19:42:48-0500
_audit_creation_method            fapswitch 2.2
_symmetry_space_group_name_H-M    P1
_symmetry_Int_Tables_number       1
_space_group_crystal_system       triclinic
_cell_length_a                    30.599779
_cell_length_b                    30.601834
_cell_length_c                    22.158729
_cell_angle_alpha                 89.999947
_cell_angle_beta                  46.36774
_cell_angle_gamma                 89.999759
_cell_volume                      15018.2471115

loop_
_atom_site_label
_atom_site_type_symbol
_atom_type_description
_atom_site_fract_x
_atom_site_fract_y
_atom_site_fract_z
_atom_type_partial_charge
C1    C     C_R   0.190274 0.189868 0.499523 0.893474
C2    C     C_R   0.846722 0.157410 0.493011 -0.094798
C3    C     C_R   0.939482 0.940056 0.500195 0.917403
C4    C     C_R   0.060378 0.059842 0.500028 0.997857
C5    C     C_R   0.938281 0.058505 0.500014 0.981504
C6    C     C_R   0.561718 0.558505 0.499986 0.981540
C7    C     C_R   0.439619 0.559840 0.499972 0.997875
C8    C     C_R   0.169437 0.249978 0.661116 0.901358
C9    C     C_R   0.830560 0.249980 0.338883 0.901422
C10   C     C_R   0.669439 0.749980 0.661117 0.901675
C11   C     C_R   0.330562 0.749978 0.338884 0.901102
C12   C     C_R   0.543984 0.217163 0.956574 -0.174446
C13   C     C_R   0.653278 0.657410 0.506990 -0.094807
C14   C     C_R   0.500544 0.217183 0.043476 -0.173150
C15   C     C_R   0.001143 0.716104 0.956524 -0.172960
C16   C     C_R   0.957703 0.716086 0.043426 -0.174401
C17   C     C_R   0.543465 0.250068 0.913243 0.165284
C18   C     C_R   0.456750 0.250110 0.086731 0.163400
C19   C     C_R   0.043248 0.750108 0.913269 0.163459
C20   C     C_R   0.956533 0.750067 0.086757 0.165178
C21   C     C_R   0.499683 0.283001 0.956494 -0.179314
C22   C     C_R   0.456248 0.283023 0.043396 -0.177619
C23   C     C_R   0.042061 0.784098 0.956603 -0.177803
C24   C     C_R   0.342687 0.656045 0.498529 -0.100532
C25   C     C_R   0.998627 0.784076 0.043505 -0.179259
C26   C     C_1   0.587887 0.250036 0.824331 -0.064645
C27   C     C_1   0.412264 0.250103 0.175649 -0.063611
C28   C     C_1   0.087735 0.750102 0.824351 -0.063571
C29   C     C_1   0.912113 0.750036 0.175668 -0.064631
C30   C     C_1   0.374899 0.250081 0.250319 -0.171102
C31   C     C_1   0.625191 0.250016 0.749666 -0.175163
C32   C     C_1   0.874810 0.750016 0.250333 -0.175148
C33   C     C_1   0.125100 0.750080 0.749681 -0.171066
C34   C     C_2   0.187303 0.040978 0.418872 0.909092
C35   C     C_R   0.185870 0.116098 0.462016 -0.239469
C36   C     C_2   0.903976 0.044183 0.403289 0.920916
C37   C     C_2   0.596039 0.544178 0.596693 0.920975
C38   C     C_2   0.312658 0.541004 0.581250 0.909157
C39   C     C_2   0.039034 0.164546 0.471789 0.940246
C40   C     C_2   0.814996 0.106518 0.689870 0.991958
C41   C     C_2   0.684982 0.606533 0.310136 0.992036
C42   C     C_2   0.461082 0.664563 0.528000 0.940261
C43   C     C_R   0.862750 0.119385 0.446449 -0.234790
C44   C     C_R   0.637258 0.619381 0.553541 -0.234543
C45   C     C_R   0.314107 0.616112 0.538052 -0.239498
C46   C     C_R   0.154913 0.082782 0.461461 -0.064062
C47   C     C_R   0.892045 0.085229 0.448613 -0.049087
C48   C     C_R   0.607963 0.585227 0.551378 -0.049098
C49   C     C_R   0.810652 0.189992 0.498847 0.889644
C50   C     C_R   0.345065 0.582795 0.538603 -0.064107
C51   C     C_R   0.094563 0.090986 0.500777 -0.176103
C52   C     C_R   0.904533 0.090284 0.499159 -0.144918
C53   C     C_R   0.595466 0.590284 0.500841 -0.144989
C54   C     C_R   0.405432 0.590983 0.499223 -0.176017
C55   C     C_R   0.065590 0.129197 0.546740 0.048158
C56   C     C_R   0.892821 0.130015 0.538730 0.092587
C57   C     C_R   0.607169 0.630018 0.461284 0.092643
C58   C     C_R   0.434417 0.629178 0.453204 0.048074
C59   C     C_3   0.027825 0.162388 0.549768 -0.238329
C60   C     C_R   0.689348 0.689992 0.501153 0.889747
C61   C     C_3   0.859683 0.140854 0.627540 -0.232295
C62   C     C_3   0.640294 0.640864 0.372481 -0.232295
C63   C     C_3   0.472238 0.662366 0.450065 -0.238262
C64   C     C_3   0.061246 0.197265 0.554281 -0.476877
C65   C     C_3   0.830715 0.178567 0.620949 -0.549759
C66   C     C_3   0.669263 0.678577 0.379072 -0.549550
C67   C     C_3   0.438814 0.697242 0.445552 -0.476711
C68   C     C_R   0.017897 0.251966 0.043487 -0.174013
C69   C     C_R   0.982109 0.247850 0.956507 -0.176611
C70   C     C_R   0.516933 0.741034 0.043492 -0.176842
C71   C     C_R   0.309725 0.689868 0.500477 0.893319
C72   C     C_R   0.483049 0.758788 0.956514 -0.174441
C73   C     C_R   0.956637 0.249908 0.086737 0.165145
C74   C     C_R   0.043369 0.249916 0.913258 0.166322
C75   C     C_R   0.456627 0.749919 0.086742 0.166662
C76   C     C_R   0.543357 0.749911 0.913264 0.164892
C77   C     C_R   0.330580 0.250036 0.338896 0.906173
C78   C     C_R   0.669453 0.250007 0.661099 0.900807
C79   C     C_R   0.830547 0.750007 0.338901 0.900815
C80   C     C_R   0.169420 0.750036 0.661104 0.906114
C81   C     C_R   0.938664 0.247848 0.043407 -0.176935
C82   C     C_R   0.096012 0.160753 0.549068 0.078825
C83   C     C_R   0.061343 0.251971 0.956588 -0.178334
C84   C     C_R   0.439604 0.758793 0.043414 -0.178209
C85   C     C_R   0.560379 0.741031 0.956592 -0.176224
C86   C     C_1   0.912184 0.249928 0.175647 -0.062962
C87   C     C_1   0.087820 0.249936 0.824349 -0.066408
C88   C     C_1   0.412178 0.749937 0.175651 -0.066308
C89   C     C_1   0.587813 0.749929 0.824353 -0.062980
C90   C     C_1   0.125152 0.249955 0.749685 -0.175309
C91   C     C_1   0.874850 0.249951 0.250313 -0.168941
C92   C     C_1   0.625149 0.749951 0.749688 -0.168952
C93   C     C_R   0.865844 0.163615 0.533763 0.135768
C94   C     C_1   0.374847 0.749956 0.250316 -0.175240
C95   C     C_R   0.383359 0.368555 0.431121 0.095483
C96   C     C_R   0.598012 0.335567 0.538328 0.149833
C97   C     C_R   0.902038 0.835604 0.461488 0.149709
C98   C     C_R   0.116610 0.868533 0.568901 0.095585
C99   C     C_R   0.343256 0.342018 0.500608 -0.067282
C100  C     C_R   0.658253 0.342459 0.496339 -0.093893
C101  C     C_R   0.841757 0.842456 0.503640 -0.093786
C102  C     C_R   0.156746 0.842018 0.499390 -0.067198
C103  C     C_R   0.342421 0.342449 0.564623 -0.210145
C104  C     C_R   0.634146 0.663618 0.466251 0.135714
C105  C     C_R   0.688604 0.379619 0.446285 -0.218536
C106  C     C_R   0.811377 0.879566 0.553844 -0.218295
C107  C     C_R   0.157614 0.842466 0.435344 -0.210301
C108  C     C_R   0.374983 0.374318 0.564397 -0.212555
C109  C     C_R   0.656430 0.411670 0.446140 -0.161910
C110  C     C_R   0.843549 0.911615 0.553997 -0.161831
C111  C     C_R   0.125050 0.874334 0.435571 -0.212600
C112  C     C_R   0.409439 0.404612 0.498796 -0.072248
C113  C     C_R   0.593934 0.406872 0.498047 -0.059575
C114  C     C_R   0.906068 0.906867 0.501951 -0.059697
C115  C     C_R   0.403995 0.660733 0.450876 0.078328
C116  C     C_R   0.090560 0.904609 0.501201 -0.072246
C117  C     C_R   0.416504 0.399406 0.429937 0.139870
C118  C     C_R   0.565928 0.367742 0.539943 0.075085
C119  C     C_R   0.934118 0.867779 0.459880 0.075259
C120  C     C_R   0.083465 0.899383 0.570083 0.139929
C121  C     C_3   0.409718 0.432092 0.386754 -0.455100
C122  C     C_3   0.510538 0.359613 0.629422 -0.468593
C123  C     C_3   0.989451 0.859742 0.370329 -0.468342
C124  C     C_3   0.090206 0.932058 0.613330 -0.454972
C125  C     C_R   0.309604 0.309924 0.500907 0.873407
C126  C     C_R   0.157308 0.156045 0.501477 -0.100680
C127  C     C_R   0.689767 0.310026 0.500198 0.872273
C128  C     C_R   0.810235 0.810025 0.499797 0.872365
C129  C     C_R   0.190396 0.809924 0.499093 0.873295
C130  C     C_3   0.372843 0.397964 0.388461 -0.488461
C131  C     C_3   0.545891 0.323933 0.627661 -0.486543
C132  C     C_3   0.954104 0.824062 0.372084 -0.486643
C133  C     C_3   0.127081 0.897930 0.611625 -0.488657
C134  C     C_R   0.560517 0.440056 0.499805 0.917375
C135  C     C_R   0.440049 0.439444 0.499917 0.928983
C136  C     C_R   0.059950 0.939442 0.500083 0.929091
H1    H     H_    0.501052 0.191642 0.076859 0.148291
H2    H     H_    0.736363 0.384217 0.409251 0.165844
H3    H     H_    0.763595 0.884128 0.590994 0.165758
H4    H     H_    0.185535 0.819723 0.383709 0.149696
H5    H     H_    0.371953 0.376057 0.616024 0.159273
H6    H     H_    0.679449 0.440959 0.409159 0.169198
H7    H     H_    0.820504 0.940868 0.591098 0.169197
H8    H     H_    0.128106 0.876087 0.383922 0.159227
H9    H     H_    0.382945 0.461183 0.425885 0.233455
H10   H     H_    0.498826 0.387563 0.670454 0.225014
H11   H     H_    0.001054 0.887733 0.329433 0.225018
H12   H     H_    0.577842 0.191611 0.923249 0.148171
H13   H     H_    0.116971 0.961160 0.574238 0.233457
H14   H     H_    0.395317 0.385766 0.325476 0.203519
H15   H     H_    0.528511 0.290556 0.634738 0.209686
H16   H     H_    0.971566 0.790692 0.364829 0.209761
H17   H     H_    0.104591 0.885713 0.674606 0.203472
H18   H     H_    0.499164 0.308534 0.923107 0.141706
H19   H     H_    0.422389 0.308573 0.076717 0.144282
H20   H     H_    0.074610 0.810482 0.923281 0.144108
H21   H     H_    0.997836 0.810444 0.076890 0.141825
H22   H     H_    0.979303 0.159811 0.608102 0.132573
H23   H     H_    0.925155 0.689700 0.076752 0.148262
H24   H     H_    0.890508 0.151996 0.634575 0.141325
H25   H     H_    0.609460 0.652009 0.365463 0.141330
H26   H     H_    0.520747 0.659758 0.391706 0.132544
H27   H     H_    0.090753 0.219723 0.500040 0.252982
H28   H     H_    0.781050 0.175870 0.661527 0.214858
H29   H     H_    0.718930 0.675882 0.338483 0.214898
H30   H     H_    0.409347 0.719723 0.499763 0.253002
H31   H     H_    0.031867 0.213895 0.615842 0.191761
H32   H     H_    0.846149 0.211116 0.622301 0.207379
H33   H     H_    0.653823 0.711126 0.377735 0.207459
H34   H     H_    0.001945 0.689728 0.923141 0.148390
H35   H     H_    0.468180 0.713845 0.383968 0.191775
H36   H     H_    0.108758 0.253575 0.923265 0.142464
H37   H     H_    0.891248 0.246252 0.076730 0.144382
H38   H     H_    0.607056 0.734144 0.923269 0.144902
H39   H     H_    0.392928 0.765688 0.076738 0.142010
H40   H     H_    0.453520 0.439516 0.322778 0.204808
H41   H     H_    0.472705 0.346844 0.637621 0.197070
H42   H     H_    0.027364 0.846980 0.361955 0.197085
H43   H     H_    0.046387 0.939463 0.677302 0.204864
H44   H     H_    0.324560 0.407135 0.429004 0.224752
H45   H     H_    0.031962 0.253565 0.076872 0.145399
H46   H     H_    0.554625 0.331064 0.667784 0.199416
H47   H     H_    0.945264 0.831233 0.332093 0.199482
H48   H     H_    0.175356 0.907113 0.571121 0.224756
H49   H     H_    0.232744 0.111451 0.429912 0.204647
H50   H     H_    0.849772 0.115632 0.411919 0.196264
H51   H     H_    0.650243 0.615626 0.588063 0.196241
H52   H     H_    0.267221 0.611479 0.570202 0.204576
H53   H     H_    0.267346 0.009989 0.334187 0.348490
H54   H     H_    0.918345 0.015704 0.308699 0.346788
H55   H     H_    0.581688 0.515694 0.691265 0.346828
H56   H     H_    0.968045 0.246254 0.923122 0.143539
H57   H     H_    0.232601 0.510046 0.666036 0.348527
H58   H     H_    0.067232 0.199582 0.373084 0.346996
H59   H     H_    0.747250 0.065632 0.731681 0.339626
H60   H     H_    0.752738 0.565650 0.268294 0.339556
H61   H     H_    0.433051 0.699673 0.626542 0.347102
H62   H     H_    0.530259 0.734147 0.076877 0.143415
H63   H     H_    0.469723 0.765678 0.923131 0.145274
H64   H     H_    0.314526 0.319691 0.616236 0.149826
O1    O     O_R   0.178350 0.230070 0.500010 -0.621916
O2    O     O_R   0.919740 0.045800 0.568860 -0.622024
O3    O     O_R   0.580260 0.545800 0.431140 -0.622044
O4    O     O_R   0.419740 0.545800 0.568860 -0.581586
O5    O     O_R   0.011410 0.045760 0.568860 -0.627107
O6    O     O_R   0.988590 0.045760 0.431140 -0.586694
O7    O     O_R   0.511410 0.545760 0.568860 -0.586625
O8    O     O_R   0.488590 0.545760 0.431140 -0.627214
O9    O     O_R   0.230030 0.178320 0.500020 -0.624796
O10   O     O_R   0.769970 0.178320 0.499980 -0.617456
O11   O     O_R   0.730030 0.678320 0.500020 -0.617530
O12   O     O_R   0.821650 0.230070 0.499990 -0.617898
O13   O     O_R   0.269970 0.678320 0.499980 -0.624843
O14   O     O_R   0.285150 0.275890 0.378020 -0.614968
O15   O     O_R   0.714850 0.275890 0.621980 -0.614567
O16   O     O_R   0.785150 0.775890 0.378020 -0.614568
O17   O     O_R   0.214850 0.775890 0.621980 -0.614935
O18   O     O_R   0.336840 0.224130 0.378040 -0.613257
O19   O     O_R   0.663160 0.224130 0.621960 -0.612305
O20   O     O_R   0.836840 0.724130 0.378040 -0.612325
O21   O     O_R   0.163160 0.724130 0.621960 -0.613251
O22   O     O_R   0.269970 0.321680 0.499990 -0.621314
O23   O     O_R   0.678350 0.730070 0.500010 -0.617833
O24   O     O_R   0.730030 0.321680 0.500010 -0.619387
O25   O     O_R   0.769970 0.821680 0.499990 -0.619422
O26   O     O_R   0.230030 0.821680 0.500010 -0.621354
O27   O     O_R   0.321650 0.269930 0.500010 -0.621642
O28   O     O_R   0.678350 0.269930 0.499990 -0.620890
O29   O     O_R   0.821650 0.769930 0.500010 -0.620824
O30   O     O_R   0.178350 0.769930 0.499990 -0.621546
O31   O     O_R   0.163160 0.275870 0.621980 -0.614647
O32   O     O_R   0.836840 0.275870 0.378020 -0.616026
O33   O     O_R   0.663160 0.775870 0.621980 -0.616172
O34   O     O_R   0.321650 0.730070 0.499990 -0.621858
O35   O     O_R   0.336840 0.775870 0.378020 -0.614471
O36   O     O_R   0.214850 0.224110 0.621990 -0.615787
O37   O     O_R   0.785150 0.224110 0.378010 -0.614222
O38   O     O_R   0.714850 0.724110 0.621990 -0.614409
O39   O     O_R   0.285150 0.724110 0.378010 -0.615603
O40   O     O_R   0.580260 0.454160 0.431100 -0.637934
O41   O     O_R   0.419740 0.454160 0.568900 -0.609367
O42   O     O_R   0.080260 0.954160 0.431100 -0.609464
O43   O     O_R   0.919740 0.954160 0.568900 -0.637849
O44   O     O_2   0.159378 0.007013 0.437866 -0.662851
O45   O     O_R   0.511410 0.454120 0.568820 -0.614129
O46   O     O_R   0.250459 0.040265 0.358081 -0.803818
O47   O     O_2   0.905930 0.009029 0.427542 -0.652769
O48   O     O_R   0.911088 0.045645 0.333822 -0.804186
O49   O     O_2   0.594078 0.509026 0.572442 -0.652824
O50   O     O_R   0.588940 0.545635 0.666147 -0.804035
O51   O     O_2   0.340567 0.507029 0.562249 -0.662791
O52   O     O_R   0.249502 0.540315 0.642105 -0.803855
O53   O     O_2   0.025575 0.133449 0.452873 -0.661546
O54   O     O_R   0.062698 0.202341 0.422776 -0.798962
O55   O     O_2   0.814472 0.094491 0.742963 -0.630758
O56   O     O_R   0.488590 0.454120 0.431180 -0.636477
O57   O     O_R   0.774563 0.088440 0.686804 -0.802240
O58   O     O_2   0.685497 0.594512 0.257050 -0.630856
O59   O     O_R   0.725426 0.588455 0.313180 -0.802319
O60   O     O_2   0.474465 0.633455 0.547000 -0.661492
O61   O     O_R   0.437560 0.702408 0.576868 -0.798882
O62   O     O_R   0.011410 0.954120 0.568820 -0.636394
O63   O     O_R   0.988590 0.954120 0.431180 -0.614198
O64   O     O_R   0.080260 0.045800 0.431140 -0.581662
Zn1   Zn    Zn3+2 0.215490 0.284560 0.500000 0.970923
Zn2   Zn    Zn3+2 0.954010 0.000000 0.591950 1.009871
Zn3   Zn    Zn3+2 0.545990 0.500000 0.408050 1.009551
Zn4   Zn    Zn3+2 0.454010 0.500000 0.591950 1.030505
Zn5   Zn    Zn3+2 0.784510 0.284560 0.500000 0.976221
Zn6   Zn    Zn3+2 0.715490 0.784560 0.500000 0.976154
Zn7   Zn    Zn3+2 0.284510 0.784560 0.500000 0.971150
Zn8   Zn    Zn3+2 0.284510 0.215440 0.500020 0.974980
Zn9   Zn    Zn3+2 0.715490 0.215440 0.499980 0.978962
Zn10  Zn    Zn3+2 0.784510 0.715440 0.500020 0.978831
Zn11  Zn    Zn3+2 0.215490 0.715440 0.499980 0.975192
Zn12  Zn    Zn3+2 0.045990 0.000000 0.408050 1.030185

loop_
_geom_bond_atom_site_label_1
_geom_bond_atom_site_label_2
_ccdc_geom_bond_type
C122  H41   S    
C99   C103  A    
C124  H13   S    
C97   C119  A    
C128  O29   A    
C55   C59   S    
C123  C132  S    
C63   H26   S    
C100  C127  S    
C14   C18   A    
C66   H33   S    
C131  H15   S    
C80   O17   A    
C102  C129  S    
O36   Zn8   S    
C74   C83   A    
C72   C76   A    
C1    O1    A    
C119  C123  S    
C9    C91   S    
C79   O20   A    
C57   C62   S    
C99   C125  S    
C13   C60   S    
C125  O22   A    
C95   C117  A    
C15   C19   A    
C98   C133  S    
C100  C105  A    
O64   Zn12  S    
C124  C133  S    
C46   C51   A    
C9    O32   A    
C133  H17   S    
C24   C45   A    
O12   Zn5   S    
C96   C118  A    
C116  C136  S    
C64   H31   S    
O39   Zn11  S    
C86   C91   T    
C123  H42   S    
C132  H47   S    
C106  C110  A    
C112  C117  A    
O30   Zn11  S    
C131  H46   S    
C95   C99   A    
C75   C84   A    
C71   O34   A    
C121  H40   S    
C20   C25   A    
O35   Zn7   S    
C37   O50   S    
O11   Zn10  S    
O19   Zn9   S    
H55   O50   S    
C49   O12   A    
C36   C47   S    
C118  C122  S    
H57   O52   S    
C73   C81   A    
C107  H4    S    
C41   O59   S    
C117  C121  S    
C82   C126  A    
C124  H43   S    
H61   O61   S    
C110  H7    S    
C105  H2    S    
C40   O55   D    
C120  C124  S    
O9    Zn8   S    
C38   O52   S    
O13   Zn11  S    
C128  O25   A    
C12   C17   A    
C34   O46   S    
C95   C130  S    
C42   O60   D    
C21   H18   S    
O43   Zn2   S    
C5    C52   S    
C111  C116  A    
C34   C46   S    
C27   C30   T    
C74   C87   S    
C17   C21   A    
C84   H39   S    
C43   C47   A    
C116  C120  A    
C121  C130  S    
C134  O45   A    
C114  C119  A    
O14   Zn1   S    
C16   C20   A    
C76   C89   S    
C20   C29   S    
C107  C111  A    
C65   C93   S    
O7    Zn4   S    
O24   Zn5   S    
C10   C92   S    
C26   C31   T    
C70   H62   S    
C21   C22   A    
C16   H23   S    
C55   C82   A    
C30   C77   S    
O40   Zn3   S    
H59   O57   S    
O1    Zn1   S    
C41   C62   S    
C42   O61   S    
O6    Zn12  S    
C69   H56   S    
O16   Zn6   S    
C108  H5    S    
C77   O14   A    
C88   C94   T    
C22   H19   S    
O4    Zn4   S    
C11   O35   A    
C48   C53   A    
C68   H45   S    
C63   C67   S    
O29   Zn10  S    
C2    C43   A    
C62   C66   S    
C4    C51   S    
C136  O62   A    
C57   C104  A    
C66   C104  S    
C4    O5    A    
C1    C126  S    
O23   Zn6   S    
C102  C107  A    
C61   H24   S    
C5    O2    A    
C39   O54   S    
O22   Zn1   S    
C53   C57   A    
C35   C126  A    
C43   H50   S    
C67   H35   S    
C68   C73   A    
O17   Zn7   S    
C1    O9    A    
C129  O30   A    
O18   Zn8   S    
C40   C61   S    
C108  C112  A    
C15   H34   S    
C89   C92   T    
O34   Zn7   S    
C81   H37   S    
C49   O10   A    
H60   O59   S    
C19   C23   A    
C59   H22   S    
C130  H14   S    
C7    O4    A    
C2    C49   S    
C98   C102  A    
O26   Zn7   S    
O27   Zn8   S    
C133  H48   S    
C38   O51   D    
C65   H32   S    
C14   H1    S    
O28   Zn9   S    
C35   H49   S    
C39   C59   S    
C83   H36   S    
C85   H38   S    
C59   C64   S    
O41   Zn4   S    
C69   C74   A    
C45   H52   S    
C34   O44   D    
C3    O43   A    
O15   Zn5   S    
C13   C104  A    
C19   C28   S    
O2    Zn2   S    
C64   C82   S    
C6    O7    A    
C72   C84   A    
C42   C63   S    
C130  H44   S    
C127  O24   A    
C96   C131  S    
C39   O53   D    
C111  H8    S    
C67   H30   S    
C56   C93   A    
O56   Zn3   S    
C12   C14   A    
C28   C33   T    
C10   O38   A    
C3    O63   A    
C113  C134  S    
O31   Zn1   S    
C9    O37   A    
C127  O28   A    
C5    O6    A    
C121  H9    S    
C4    O64   A    
O45   Zn4   S    
C8    C90   S    
C17   C26   S    
C6    C53   S    
C60   O23   A    
C8    O36   A    
C122  C131  S    
O33   Zn6   S    
H58   O54   S    
C11   C94   S    
C31   C78   S    
C54   C58   A    
C101  C106  A    
O20   Zn10  S    
C110  C114  A    
C79   O16   A    
C10   O33   A    
C37   C48   S    
C66   H29   S    
H53   O46   S    
C18   C22   A    
C68   C83   A    
C134  O40   A    
C2    C93   A    
O37   Zn9   S    
C18   C27   S    
C58   C63   S    
C97   C132  S    
C123  H11   S    
C7    O8    A    
C3    C114  S    
C78   O15   A    
O62   Zn2   S    
C135  O56   A    
C40   O57   S    
C33   C80   S    
C98   C120  A    
C47   C52   A    
C38   C50   S    
C129  O26   A    
C109  C113  A    
C29   C32   T    
O8    Zn3   S    
H54   O48   S    
C101  C128  S    
C136  O42   A    
O38   Zn10  S    
C135  O41   A    
C132  H16   S    
O32   Zn5   S    
O42   Zn12  S    
C6    O3    A    
C50   C54   A    
C44   C48   A    
C71   O13   A    
C32   C79   S    
C25   H21   S    
C35   C46   A    
C12   H12   S    
C106  H3    S    
C58   C115  A    
C105  C109  A    
C45   C50   A    
C37   O49   D    
C78   O19   A    
C36   O48   S    
C96   C100  A    
C65   H28   S    
C8    O31   A    
O21   Zn11  S    
C51   C55   A    
C103  H64   S    
C122  H10   S    
C61   C65   S    
C41   O58   D    
C77   O18   A    
C60   O11   A    
C67   C115  S    
C73   C86   S    
C69   C81   A    
C44   H51   S    
C113  C118  A    
C62   H25   S    
C52   C56   A    
C75   C88   S    
C23   C25   A    
C23   H20   S    
O5    Zn2   S    
C24   C71   S    
C24   C115  A    
O10   Zn9   S    
O63   Zn12  S    
C87   C90   T    
C70   C75   A    
C36   O47   D    
C56   C61   S    
C80   O21   A    
C103  C108  A    
O3    Zn3   S    
C112  C135  S    
C7    C54   S    
C125  O27   A    
C70   C85   A    
C11   O39   A    
C76   C85   A    
C13   C44   A    
C97   C101  A    
C15   C16   A    
C109  H6    S    
O25   Zn6   S    
C72   H63   S    
C64   H27   S    
