data_mof_unit_pretest_484.cif
_audit_creation_date              2012-12-10T18:11:36-0500
_audit_creation_method            fapswitch 2.2
_symmetry_space_group_name_H-M    P1
_symmetry_Int_Tables_number       1
_space_group_crystal_system       triclinic
_cell_length_a                    10.552086
_cell_length_b                    12.794947
_cell_length_c                    13.013811
_cell_angle_alpha                 81.294857
_cell_angle_beta                  94.363543
_cell_angle_gamma                 102.916357
_cell_volume                      1691.22386531

loop_
_atom_site_label
_atom_site_type_symbol
_atom_type_description
_atom_site_fract_x
_atom_site_fract_y
_atom_site_fract_z
_atom_type_partial_charge
C1    C     C_R   0.486803 0.438923 0.691776 0.964210
C2    C     C_R   0.519912 0.441964 0.979879 0.001597
C3    C     C_R   0.559138 0.459761 0.876435 -0.083761
C4    C     C_R   0.741613 0.501478 0.499978 1.067467
C5    C     C_R   0.566732 0.524892 0.042507 0.085668
C6    C     C_R   0.675616 0.608730 0.013363 -0.077129
C7    C     C_R   0.732084 0.610423 0.919364 -0.163378
C8    C     C_R   0.675568 0.537235 0.851489 0.381573
C9    C     C_R   0.502483 0.529424 0.130430 -0.188256
C10   C     C_R   0.672895 0.677773 0.177533 0.337404
C11   C     C_R   0.480622 0.398935 0.803337 -0.170890
C12   C     C_3   0.050293 0.561486 0.412000 0.263408
C13   C     C_R   0.279944 0.082293 0.375868 -0.140136
C14   C     C_R   0.662496 0.799595 0.628598 -0.068742
C15   C     C_R   0.699229 0.903302 0.658038 0.428296
C16   C     C_R   0.519942 0.560978 0.309029 0.921821
C17   C     C_R   0.635900 0.983625 0.609942 -0.082624
C18   C     C_R   0.535961 0.961641 0.532749 -0.130026
C19   C     C_R   0.501683 0.854868 0.505708 0.108949
C20   C     C_R   0.468187 0.041392 0.482122 -0.020987
C21   C     C_R   0.357723 0.009749 0.415677 -0.113111
C22   C     C_R   0.327207 0.906681 0.387261 0.305632
C23   C     C_3   0.989829 0.600640 0.498947 0.340254
C24   C     C_R   0.403194 0.832866 0.426456 0.439380
C25   C     C_R   0.504351 0.151985 0.494117 0.007175
C26   C     C_R   0.320332 0.188915 0.388398 0.664016
C27   C     C_R   0.258108 0.498620 0.498184 1.043973
C28   C     C_3   0.949099 0.436803 0.582499 0.302084
C29   C     C_3   0.062295 0.535819 0.583781 0.246428
C30   C     C_3   0.122347 0.495451 0.496668 -0.461531
C31   C     C_3   0.009296 0.395444 0.497185 0.283674
C32   C     C_3   0.937086 0.462256 0.414585 0.255917
C33   C     C_3   0.876419 0.502692 0.499891 -0.241553
C34   C     C_R   0.727560 0.686430 0.080595 0.378641
C35   C     C_R   0.560310 0.596925 0.202459 -0.217343
C36   C     C_R   0.384153 0.307088 0.839024 0.329687
C37   C     C_R   0.370271 0.275467 0.945129 -0.165837
C38   C     C_R   0.437846 0.340964 0.016105 0.344669
Cl1   Cl    Cl    0.144757 0.583396 0.698058 -0.481209
Cl2   Cl    Cl    0.276337 0.229019 0.755113 -0.491679
Cl3   Cl    Cl    0.437328 0.281336 0.147507 -0.595938
Cl4   Cl    Cl    0.771477 0.532087 0.748946 -0.550957
Cl5   Cl    Cl    0.017215 0.257763 0.497291 -0.420610
Cl6   Cl    Cl    0.108108 0.636448 0.292043 -0.445914
Cl7   Cl    Cl    0.752008 0.763607 0.268332 -0.415860
Cl8   Cl    Cl    0.864879 0.791254 0.047386 -0.434641
H1    H     H_    0.409211 0.476022 0.147155 0.212035
H2    H     H_    0.965113 0.342055 0.709490 0.396354
H3    H     H_    0.829914 0.862790 0.760236 0.356274
H4    H     H_    0.365045 0.757874 0.306121 0.379665
H5    H     H_    0.931103 0.402442 0.287402 0.390020
H6    H     H_    0.066440 0.751280 0.498453 0.384990
H7    H     H_    0.304738 0.200000 0.972728 0.223680
H8    H     H_    0.189332 0.058382 0.331988 0.215320
H9    H     H_    0.588094 0.184432 0.541292 0.161789
H10   H     H_    0.710619 0.736282 0.664501 0.177148
H11   H     H_    0.665183 0.061921 0.636050 0.186179
H12   H     H_    0.820975 0.667989 0.897638 0.224800
H13   H     H_    0.297463 0.331078 0.330838 0.379935
H14   H     H_    0.234942 0.931903 0.255195 0.364004
N1    N     N_R   0.432930 0.222190 0.444670 -0.167436
N2    N     N_R   0.566370 0.776980 0.554790 -0.107946
O1    O     O_R   0.467970 0.366730 0.627150 -0.574296
O2    O     O_3   0.225360 0.875884 0.317341 -0.672719
O3    O     O_3   0.893048 0.370603 0.670120 -0.639550
O4    O     O_3   0.795731 0.928432 0.733557 -0.675375
O5    O     O_3   0.383016 0.740917 0.382105 -0.674293
O6    O     O_3   0.867220 0.424707 0.326873 -0.658372
O7    O     O_3   0.976552 0.706767 0.499978 -0.620284
O8    O     O_R   0.510820 0.544830 0.662520 -0.608950
O9    O     O_R   0.664630 0.410960 0.482340 -0.595158
O10   O     O_R   0.707470 0.589060 0.517710 -0.554184
O11   O     O_R   0.489180 0.455170 0.337480 -0.627987
O12   O     O_R   0.532030 0.633270 0.372850 -0.532884
O13   O     O_R   0.292530 0.410940 0.482290 -0.593511
O14   O     O_R   0.335370 0.589040 0.517660 -0.540096
O15   O     O_3   0.242970 0.257959 0.343047 -0.694281
Zn1   Zn    Zn3+2 0.471390 0.381080 0.476380 1.062857
Zn2   Zn    Zn3+2 0.528610 0.618920 0.523620 1.082462

loop_
_geom_bond_atom_site_label_1
_geom_bond_atom_site_label_2
_ccdc_geom_bond_type
C14   H10   S    
C23   O7    S    
C1    C11   S    
O14   Zn2   S    
H13   O15   S    
C7    C8    A    
C12   C23   S    
C29   C30   S    
C31   Cl5   S    
C16   O12   A    
C23   C29   S    
C28   C29   S    
C26   N1    A    
C8    Cl4   S    
O10   Zn2   S    
C16   C35   S    
C5    C6    A    
C20   C25   A    
C19   N2    A    
C14   N2    A    
C18   C19   A    
H6    O7    S    
C24   O5    S    
C23   C33   S    
O11   Zn1   S    
C10   C35   A    
C34   Cl8   S    
H2    O3    S    
H4    O5    S    
C7    H12   S    
C32   O6    S    
C37   H7    S    
C21   C22   A    
C12   C32   S    
C27   C30   S    
C27   O13   A    
C1    O1    A    
C26   O15   S    
H3    O4    S    
C16   O11   A    
N2    Zn2   S    
C36   Cl2   S    
C38   Cl3   S    
C3    C8    A    
C15   O4    S    
C6    C34   A    
C11   C36   A    
C5    C9    A    
C37   C38   A    
C2    C38   A    
C31   C32   S    
N1    Zn1   S    
C29   Cl1   S    
C10   Cl7   S    
C17   C18   A    
C13   C21   A    
C10   C34   A    
C25   N1    A    
C28   C33   S    
C9    H1    S    
O12   Zn2   S    
C22   C24   A    
C13   C26   A    
C2    C5    A    
C27   O14   A    
C4    O10   A    
C13   H8    S    
C15   C17   A    
C4    C33   S    
C36   C37   A    
C12   C30   S    
O8    Zn2   S    
C19   C24   A    
C28   C31   S    
C25   H9    S    
C6    C7    A    
C1    O8    A    
H14   O2    S    
C32   C33   S    
C28   O3    S    
C12   Cl6   S    
C30   C31   S    
C2    C3    A    
C18   C20   A    
H5    O6    S    
O9    Zn1   S    
O13   Zn1   S    
C3    C11   A    
C22   O2    S    
C20   C21   A    
C9    C35   A    
C14   C15   A    
C4    O9    A    
C17   H11   S    
O1    Zn1   S    
