data_mof_unit_pretest_470.cif
_audit_creation_date              2012-12-10T20:25:47-0500
_audit_creation_method            fapswitch 2.2
_symmetry_space_group_name_H-M    P1
_symmetry_Int_Tables_number       1
_space_group_crystal_system       triclinic
_cell_length_a                    8.578759
_cell_length_b                    10.698554
_cell_length_c                    9.885443
_cell_angle_alpha                 89.065529
_cell_angle_beta                  98.502834
_cell_angle_gamma                 90.739997
_cell_volume                      897.14670983

loop_
_atom_site_label
_atom_site_type_symbol
_atom_type_description
_atom_site_fract_x
_atom_site_fract_y
_atom_site_fract_z
_atom_type_partial_charge
C1    C     C_R   0.506276 0.259730 0.501360 0.894453
C2    C     C_R   0.544313 0.937408 0.378960 -0.185649
C3    C     C_R   0.537370 0.870963 0.501257 -0.178106
C4    C     C_R   0.564205 0.933212 0.625089 0.102664
C5    C     C_3   0.482568 0.920985 0.747814 0.490822
C6    C     C_3   0.481522 0.062236 0.749597 -0.563963
C7    C     C_R   0.372881 0.454432 0.056406 0.158482
C8    C     C_R   0.618668 0.555414 0.086043 -0.094292
C9    C     C_R   0.618677 0.555420 0.942310 -0.033413
C10   C     C_R   0.372881 0.453702 0.913322 0.150671
C11   C     C_3   0.315886 0.320947 0.907340 -0.307507
C12   C     C_R   0.201306 0.501644 0.464165 0.970315
C13   C     C_3   0.310015 0.324608 0.060854 -0.291471
C14   C     C_R   0.506933 0.739931 0.499805 0.868851
C15   C     C_R   0.798675 0.503530 0.535587 0.974809
C16   C     C_2   0.036107 0.503369 0.444677 -0.373931
C17   C     C_2   0.963709 0.512337 0.553969 -0.357566
C18   C     C_R   0.563237 0.061077 0.626460 0.058061
C19   C     C_R   0.535553 0.128336 0.503559 -0.095296
C20   C     C_R   0.543884 0.066688 0.380209 -0.201575
H1    H     H_    0.974420 0.493863 0.340975 0.188200
H2    H     H_    0.715951 0.598412 0.899997 0.167495
H3    H     H_    0.408458 0.258825 0.882593 0.162720
H4    H     H_    0.393497 0.259366 0.121470 0.163227
H5    H     H_    0.025418 0.524435 0.657279 0.183806
H6    H     H_    0.537521 0.116712 0.283566 0.170455
H7    H     H_    0.536988 0.890770 0.281716 0.192658
H8    H     H_    0.363594 0.876646 0.727571 0.076952
H9    H     H_    0.360571 0.100654 0.726657 0.166852
H10   H     H_    0.559030 0.101071 0.839522 0.235241
H11   H     H_    0.716040 0.598350 0.151727 0.151002
N1    N     N_R   0.498950 0.499140 0.142680 -0.121033
N2    N     N_R   0.498950 0.499180 0.857030 -0.122339
O1    O     O_R   0.500020 0.316790 0.614690 -0.613912
O2    O     O_R   0.500000 0.316760 0.385350 -0.633741
O3    O     O_R   0.271760 0.500010 0.587850 -0.615297
O4    O     O_R   0.271740 0.499970 0.358500 -0.618616
O5    O     O_R   0.500000 0.683240 0.614650 -0.605690
O6    O     O_R   0.499980 0.683210 0.385310 -0.618684
O7    O     O_R   0.728260 0.500030 0.641500 -0.623217
O8    O     O_R   0.728240 0.499990 0.412150 -0.622673
Zn1   Zn    Zn3+2 0.500010 0.500020 0.653130 0.973174
Zn2   Zn    Zn3+2 0.499990 0.499980 0.346870 0.956464
C21   C     C_1   0.163904 0.302111 0.818604 0.242002
N3    N     N_1   0.044514 0.284998 0.749796 -0.208433
C22   C     C_1   0.152056 0.321980 0.102962 0.260255
N4    N     N_1   0.028038 0.319672 0.135819 -0.220254
F1    F     F_    0.580195 0.870101 0.858515 -0.652972

loop_
_geom_bond_atom_site_label_1
_geom_bond_atom_site_label_2
_ccdc_geom_bond_type
O4    Zn2   S    
C7    C10   A    
C16   H1    S    
C14   O5    A    
C5    H8    S    
C11   C13   S    
O3    Zn1   S    
C19   C20   A    
O1    Zn1   S    
C4    C18   A    
O7    Zn1   S    
C2    C3    A    
C8    C9    A    
C17   H5    S    
C11   C21   S    
C9    N2    A    
O8    Zn2   S    
C15   O8    A    
C2    H7    S    
C3    C14   S    
C20   H6    S    
C5    C6    S    
N2    Zn1   S    
C11   H3    S    
C6    H10   S    
N1    Zn2   S    
C1    O1    A    
O5    Zn1   S    
C10   N2    A    
C13   C22   S    
C6    C18   S    
C5    F1    S    
C15   O7    A    
C1    C19   S    
C12   O3    A    
C10   C11   S    
C2    C20   A    
C3    C4    A    
C8    N1    A    
C16   C17   D    
C7    C13   S    
C6    H9    S    
O2    Zn2   S    
C21   N3    T    
C1    O2    A    
C9    H2    S    
C12   O4    A    
C15   C17   S    
C22   N4    T    
C18   C19   A    
O6    Zn2   S    
C7    N1    A    
C14   O6    A    
C8    H11   S    
C12   C16   S    
C13   H4    S    
C4    C5    S    
