data_mof_unit_pretest_1322.cif
_audit_creation_date              2012-12-10T20:44:48-0500
_audit_creation_method            fapswitch 2.2
_symmetry_space_group_name_H-M    P1
_symmetry_Int_Tables_number       1
_space_group_crystal_system       triclinic
_cell_length_a                    9.888366
_cell_length_b                    10.691443
_cell_length_c                    16.890183
_cell_angle_alpha                 89.052351
_cell_angle_beta                  94.656507
_cell_angle_gamma                 89.363687
_cell_volume                      1779.36923154

loop_
_atom_site_label
_atom_site_type_symbol
_atom_type_description
_atom_site_fract_x
_atom_site_fract_y
_atom_site_fract_z
_atom_type_partial_charge
C1    C     C_R   0.500086 0.259987 0.497315 0.866500
C2    C     C_R   0.498258 0.128864 0.483944 -0.078794
C3    C     C_R   0.373882 0.066739 0.472163 -0.197312
C4    C     C_R   0.517483 0.500864 0.652651 0.934411
C5    C     C_R   0.373049 0.937291 0.472261 -0.206993
C6    C     C_R   0.496560 0.871466 0.484203 -0.097458
C7    C     C_R   0.618253 0.934640 0.480684 0.019411
C8    C     C_3   0.748899 0.924975 0.532364 0.300484
C9    C     C_3   0.749732 0.067070 0.531329 -0.544484
C10   C     C_R   0.081118 0.467330 0.566968 0.092993
C11   C     C_R   0.061170 0.549913 0.437548 0.451820
C12   C     C_R   0.601160 0.409293 0.780011 -0.387882
C13   C     C_R   0.917808 0.545626 0.436845 -0.118520
C14   C     C_R   0.938884 0.469496 0.567543 0.129939
C15   C     C_3   0.943117 0.348372 0.613412 0.241160
C16   C     C_R   0.498946 0.739934 0.497246 0.885108
C17   C     C_3   0.097050 0.346845 0.612178 -0.510889
C18   C     C_R   0.482401 0.498681 0.347299 0.881212
C19   C     C_R   0.525015 0.502849 0.738081 -0.231056
C20   C     C_R   0.438058 0.583300 0.776599 0.311709
C21   C     C_R   0.421875 0.562347 0.857379 0.354593
C22   C     C_R   0.501633 0.468692 0.899450 0.177631
C23   C     C_R   0.577296 0.442192 0.141378 0.439646
C24   C     C_R   0.590287 0.391922 0.861163 0.409658
C25   C     C_R   0.565864 0.421265 0.222718 0.299367
C26   C     C_R   0.489069 0.529812 0.099829 0.201866
C27   C     C_R   0.473895 0.496128 0.261789 -0.179709
C28   C     C_R   0.387619 0.582420 0.219616 -0.247270
C29   C     C_R   0.395663 0.599272 0.138838 -0.230648
C30   C     C_R   0.619276 0.062396 0.480109 0.060440
H1    H     H_    0.602261 0.300714 0.309920 0.341312
H2    H     H_    0.892322 0.271962 0.579993 0.141532
H3    H     H_    0.152992 0.358208 0.671376 0.230069
H4    H     H_    0.730687 0.325211 0.137489 0.392130
H5    H     H_    0.135626 0.270112 0.576137 0.184129
H6    H     H_    0.722168 0.254898 0.869034 0.353731
H7    H     H_    0.663775 0.346106 0.748825 0.227170
H8    H     H_    0.318314 0.640598 0.249824 0.207256
H9    H     H_    0.276784 0.688636 0.859869 0.395344
H10   H     H_    0.329534 0.667131 0.106321 0.207466
H11   H     H_    0.412028 0.704742 0.688972 0.342429
H12   H     H_    0.276559 0.889849 0.468782 0.173333
H13   H     H_    0.277677 0.116816 0.468664 0.171029
H14   H     H_    0.655415 0.911402 0.630688 0.343192
H15   H     H_    0.832836 0.881467 0.502045 0.140807
H16   H     H_    0.737211 0.109431 0.590045 0.222192
H17   H     H_    0.832943 0.105680 0.498213 0.177730
H18   H     H_    0.198454 0.649639 0.395999 0.361748
H19   H     H_    0.855577 0.581956 0.385809 0.187677
H20   H     H_    0.940860 0.435815 0.714822 0.360955
N1    N     N_2   0.495217 0.449798 0.981490 -0.032733
N2    N     N_2   0.492483 0.549826 0.017853 -0.079002
N3    N     N_R   0.142860 0.499130 0.500540 -0.156622
N4    N     N_R   0.857210 0.499170 0.500530 -0.160903
O1    O     O_R   0.614690 0.316790 0.499990 -0.618338
O2    O     O_3   0.735148 0.872140 0.608280 -0.716346
O3    O     O_3   0.114790 0.608448 0.374574 -0.760251
O4    O     O_3   0.899336 0.360113 0.690189 -0.739178
O5    O     O_3   0.673331 0.380400 0.100700 -0.695372
O6    O     O_3   0.664147 0.300138 0.904624 -0.679813
O7    O     O_3   0.328719 0.629862 0.896984 -0.728512
O8    O     O_3   0.366539 0.680671 0.736980 -0.752283
O9    O     O_R   0.385350 0.316760 0.500000 -0.625143
O10   O     O_R   0.627460 0.498860 0.616130 -0.571985
O11   O     O_R   0.398120 0.498820 0.616130 -0.601089
O12   O     O_R   0.614650 0.683240 0.500000 -0.590845
O13   O     O_R   0.385310 0.683210 0.500010 -0.656519
O14   O     O_R   0.601880 0.501180 0.383870 -0.612802
O15   O     O_R   0.372540 0.501140 0.383870 -0.602831
O16   O     O_3   0.645828 0.329107 0.262112 -0.761247
Zn1   Zn    Zn3+2 0.653130 0.500020 0.499990 0.988869
Zn2   Zn    Zn3+2 0.346870 0.499980 0.500010 0.964783

loop_
_geom_bond_atom_site_label_1
_geom_bond_atom_site_label_2
_ccdc_geom_bond_type
C8    C9    S    
O15   Zn2   S    
C5    H12   S    
O12   Zn1   S    
C6    C7    A    
C25   O16   S    
C26   N2    S    
C25   C27   A    
O11   Zn2   S    
H14   O2    S    
C21   O7    S    
C19   C20   A    
C11   N3    A    
C28   H8    S    
C2    C30   A    
C1    C2    S    
C8    O2    S    
C18   O15   A    
C14   C15   S    
C2    C3    A    
C1    O1    A    
C9    H16   S    
C16   O13   A    
C21   C22   A    
C20   C21   A    
C23   O5    S    
C11   C13   A    
C3    H13   S    
C5    C6    A    
C17   H3    S    
H11   O8    S    
O14   Zn1   S    
C13   H19   S    
C1    O9    A    
C12   C19   A    
C28   C29   A    
C14   N4    A    
C9    C30   S    
C9    H17   S    
C23   C25   A    
C20   O8    S    
H4    O5    S    
H9    O7    S    
C15   O4    S    
C22   C24   A    
C23   C26   A    
C16   O12   A    
C8    H15   S    
C18   C27   S    
C10   C17   S    
C6    C16   S    
N1    N2    D    
H20   O4    S    
C3    C5    A    
H18   O3    S    
O13   Zn2   S    
N3    Zn2   S    
O9    Zn2   S    
C29   H10   S    
C26   C29   A    
C7    C30   A    
C13   N4    A    
C10   C14   A    
O10   Zn1   S    
C12   H7    S    
C15   C17   S    
C7    C8    S    
C4    O10   A    
C4    O11   A    
C10   N3    A    
C24   O6    S    
C17   H5    S    
H6    O6    S    
C11   O3    S    
C4    C19   S    
C18   O14   A    
H1    O16   S    
O1    Zn1   S    
N4    Zn1   S    
C12   C24   A    
C22   N1    S    
C27   C28   A    
C15   H2    S    
