data_mof_unit_pretest_401.cif
_audit_creation_date              2012-12-10T20:27:13-0500
_audit_creation_method            fapswitch 2.2
_symmetry_space_group_name_H-M    P1
_symmetry_Int_Tables_number       1
_space_group_crystal_system       triclinic
_cell_length_a                    10.803918
_cell_length_b                    10.771708
_cell_length_c                    9.852277
_cell_angle_alpha                 89.989208
_cell_angle_beta                  104.072332
_cell_angle_gamma                 90.160073
_cell_volume                      1112.16126969

loop_
_atom_site_label
_atom_site_type_symbol
_atom_type_description
_atom_site_fract_x
_atom_site_fract_y
_atom_site_fract_z
_atom_type_partial_charge
C1    C     C_R   0.501176 0.260259 0.500047 0.951623
C2    C     C_R   0.606274 0.531990 0.100127 -0.105788
C3    C     C_R   0.606445 0.531595 0.956290 -0.144076
C4    C     C_R   0.258999 0.504259 0.441661 0.936456
C5    C     C_R   0.390149 0.477264 0.899558 0.166282
C6    C     C_3   0.310695 0.362705 0.872343 -0.443235
C7    C     C_3   0.311161 0.361991 0.026675 -0.468950
C8    C     C_R   0.496985 0.740204 0.498734 0.879318
C9    C     C_R   0.741205 0.504904 0.558620 0.911202
C10   C     C_2   0.122450 0.518287 0.408539 -0.361024
C11   C     C_2   0.068964 0.554189 0.510395 -0.125400
C12   C     C_R   0.492803 0.128919 0.495240 -0.153505
C13   C     C_2   0.877668 0.524546 0.593841 0.002182
C14   C     C_2   0.933059 0.546376 0.488606 -0.210555
C15   C     C_R   0.467630 0.063800 0.606535 0.039441
C16   C     C_3   0.658593 0.879402 0.267227 0.107096
C17   C     C_3   0.681410 0.873486 0.121161 -0.784443
C18   C     C_3   0.361841 0.789403 0.829736 0.148706
C19   C     C_3   0.261329 0.779563 0.913784 -0.756655
C20   C     C_R   0.498733 0.066184 0.373159 -0.297917
C21   C     C_R   0.501443 0.937812 0.372639 0.492587
C22   C     C_R   0.483295 0.872253 0.491545 -0.256126
C23   C     C_R   0.451127 0.937913 0.601148 -0.013617
C24   C     C_3   0.498540 0.927958 0.757965 0.261379
C25   C     C_3   0.531945 0.065014 0.758639 -0.074511
C26   C     C_R   0.390161 0.477153 0.042089 0.219173
H1    H     H_    0.877764 0.548132 0.380504 0.165506
H2    H     H_    0.512299 0.115298 0.281790 0.190173
H3    H     H_    0.582033 0.865922 0.796603 0.114745
H4    H     H_    0.482100 0.122780 0.821423 0.180372
H5    H     H_    0.702831 0.796758 0.327386 0.153086
H6    H     H_    0.708271 0.964250 0.318932 0.135413
H7    H     H_    0.641309 0.957529 0.061371 0.276706
H8    H     H_    0.785379 0.869220 0.127756 0.218380
H9    H     H_    0.634782 0.790034 0.065389 0.244452
H10   H     H_    0.445091 0.732837 0.882559 0.143605
H11   H     H_    0.319802 0.753623 0.722520 0.164776
H12   H     H_    0.692387 0.557127 0.176744 0.145776
H13   H     H_    0.177549 0.837798 0.865294 0.268127
H14   H     H_    0.229260 0.681943 0.915870 0.210901
H15   H     H_    0.301688 0.811260 0.022922 0.283893
H16   H     H_    0.692598 0.556173 0.925094 0.183568
H17   H     H_    0.215402 0.380243 0.802082 0.232781
H18   H     H_    0.362083 0.283619 0.840405 0.211512
H19   H     H_    0.215559 0.379225 0.046079 0.227851
H20   H     H_    0.363633 0.282013 0.084894 0.215022
H21   H     H_    0.126372 0.579306 0.613328 0.201159
H22   H     H_    0.065862 0.495185 0.304380 0.165464
I1    I     I_    0.734080 0.098047 0.800212 -0.390562
I2    I     I_    0.975665 0.521708 0.809716 -0.452382
N1    N     N_R   0.499160 0.499140 0.142600 -0.100968
N2    N     N_R   0.499160 0.499180 0.856960 -0.116094
O1    O     O_R   0.500020 0.316790 0.614700 -0.598617
O2    O     O_3   0.397278 0.914510 0.825038 -0.599198
O3    O     O_R   0.500000 0.316760 0.385350 -0.629495
O4    O     O_R   0.317820 0.500020 0.571850 -0.628330
O5    O     O_R   0.317800 0.499980 0.342510 -0.611251
O6    O     O_R   0.500000 0.683240 0.614650 -0.661920
O7    O     O_R   0.499980 0.683210 0.385300 -0.565704
O8    O     O_R   0.682200 0.500020 0.657490 -0.580282
O9    O     O_R   0.682180 0.499980 0.428150 -0.647783
O10   O     O_3   0.525486 0.878810 0.256909 -0.585978
Zn1   Zn    Zn3+2 0.500010 0.500020 0.653140 0.950596
Zn2   Zn    Zn3+2 0.499990 0.499980 0.346860 0.965058

loop_
_geom_bond_atom_site_label_1
_geom_bond_atom_site_label_2
_ccdc_geom_bond_type
C4    O5    A    
O9    Zn2   S    
C8    C22   S    
C3    N2    A    
C24   O2    S    
C5    N2    A    
C6    C7    S    
C14   H1    S    
C16   H6    S    
C20   H2    S    
C2    H12   S    
C11   H21   S    
C17   H8    S    
C12   C15   A    
C23   C24   S    
C9    O8    A    
O3    Zn2   S    
C12   C20   A    
C15   C23   A    
C2    C3    A    
C1    O3    A    
O4    Zn1   S    
C3    H16   S    
C6    H18   S    
C13   C14   D    
C4    O4    A    
C16   H5    S    
C17   H7    S    
O1    Zn1   S    
C21   O10   S    
C7    C26   S    
C19   H13   S    
O8    Zn1   S    
C9    O9    A    
C7    H19   S    
C21   C22   A    
C13   I2    S    
C18   H11   S    
C6    H17   S    
C22   C23   A    
C8    O7    A    
C10   H22   S    
C5    C6    S    
C11   C14   S    
C25   I1    S    
C15   C25   S    
C19   H14   S    
C18   O2    S    
C4    C10   S    
C5    C26   A    
C7    H20   S    
O7    Zn2   S    
C25   H4    S    
C24   C25   S    
O5    Zn2   S    
C18   C19   S    
C10   C11   D    
O6    Zn1   S    
C9    C13   S    
C24   H3    S    
C1    O1    A    
C17   H9    S    
C2    N1    A    
C8    O6    A    
C20   C21   A    
C26   N1    A    
C18   H10   S    
C16   O10   S    
C1    C12   S    
N1    Zn2   S    
C19   H15   S    
C16   C17   S    
N2    Zn1   S    
