data_mof_unit_pretest_1404.cif
_audit_creation_date              2012-10-26T20:40:19-0400
_audit_creation_method            fapswitch 2.2
_symmetry_space_group_name_H-M    P1
_symmetry_Int_Tables_number       1
_space_group_crystal_system       triclinic
_cell_length_a                    15.078596
_cell_length_b                    10.833525
_cell_length_c                    9.591253
_cell_angle_alpha                 90.420855
_cell_angle_beta                  90.025843
_cell_angle_gamma                 92.481912
_cell_volume                      1565.26045421

loop_
_atom_site_label
_atom_site_type_symbol
_atom_type_description
_atom_site_fract_x
_atom_site_fract_y
_atom_site_fract_z
_atom_type_partial_charge
C1    C     C_R   0.506359 0.262837 0.499953 0.556578
C2    C     C_R   0.182940 0.419031 0.396249 -0.018881
C3    C     C_R   0.231369 0.486912 0.499596 -0.014555
C4    C     C_R   0.328699 0.494840 0.499896 0.564384
C5    C     C_R   0.186574 0.548367 0.605225 -0.135978
C6    C     C_R   0.564839 0.120053 0.746561 -0.091339
C7    C     C_R   0.558244 0.063313 0.875997 -0.137322
C8    C     C_R   0.507738 0.953866 0.889610 -0.117861
C9    C     C_R   0.472393 0.893306 0.771321 0.021963
C10   C     C_R   0.492661 0.940194 0.635656 0.013249
C11   C     C_R   0.524145 0.064250 0.627542 0.019606
C12   C     C_R   0.908757 0.551360 0.608113 0.021732
C13   C     C_R   0.512120 0.128395 0.501229 -0.000645
C14   C     C_R   0.492391 0.062251 0.378464 -0.147240
C15   C     C_R   0.483402 0.934819 0.380804 -0.154812
C16   C     C_R   0.492736 0.737197 0.501750 0.535649
C17   C     C_R   0.484597 0.871705 0.507775 -0.008868
C18   C     C_R   0.617235 0.665414 0.145216 -0.087352
C19   C     C_R   0.674260 0.746389 0.073504 -0.171775
C20   C     C_R   0.674309 0.746142 0.929874 -0.172129
C21   C     C_R   0.617175 0.665135 0.857096 -0.089214
C22   C     C_R   0.557448 0.581469 0.925757 0.147889
C23   C     C_R   0.947178 0.372113 0.280409 -0.015533
C24   C     C_R   0.557355 0.581601 0.075383 0.153279
C25   C     C_R   0.446761 0.421192 0.073852 -0.009323
C26   C     C_R   0.445901 0.421468 0.926176 0.083158
C27   C     C_R   0.671047 0.500293 0.500001 0.526996
C28   C     C_R   0.816430 0.552918 0.608942 -0.130538
C29   C     C_R   0.767424 0.498050 0.499547 -0.012607
C30   C     C_R   0.810239 0.439879 0.389445 -0.131883
C31   C     C_R   0.902838 0.433941 0.388064 -0.001283
C32   C     C_R   0.952378 0.491112 0.497986 0.052315
C33   C     C_1   0.402535 0.800722 0.795890 0.237630
C34   C     C_R   0.039403 0.366479 0.283922 -0.127197
C35   C     C_1   0.385786 0.335389 0.855438 0.260238
C36   C     C_1   0.900001 0.313024 0.164898 0.184248
C37   C     C_1   0.227503 0.335299 0.303811 0.210239
C38   C     C_R   0.089653 0.424018 0.391948 -0.010766
C39   C     C_R   0.045534 0.488099 0.498426 0.047107
C40   C     C_R   0.094342 0.548148 0.606731 0.013399
C41   C     C_R   0.050327 0.608357 0.714542 -0.117149
C42   C     C_R   0.958051 0.609198 0.715757 -0.120411
Cu1   Cu    Cu3+1 0.499990 0.499990 0.640660 0.964092
Cu2   Cu    Cu3+1 0.500010 0.500010 0.359340 0.943816
H1    H     H_    0.782750 0.598528 0.693471 0.115334
H2    H     H_    0.622841 0.672530 0.747297 0.180409
H3    H     H_    0.770593 0.397068 0.306613 0.145842
H4    H     H_    0.071694 0.318241 0.199974 0.141839
H5    H     H_    0.223727 0.597427 0.686346 0.162147
H6    H     H_    0.087327 0.654488 0.798223 0.127960
H7    H     H_    0.925217 0.655721 0.800449 0.117096
H8    H     H_    0.484701 0.108775 0.279852 0.143293
H9    H     H_    0.602823 0.206832 0.740479 0.147682
H10   H     H_    0.587750 0.108093 0.967133 0.123707
H11   H     H_    0.494831 0.917400 0.992955 0.116641
H12   H     H_    0.474788 0.885730 0.282564 0.141920
H13   H     H_    0.404427 0.355976 0.129715 0.153401
H14   H     H_    0.623669 0.672383 0.255107 0.186179
H15   H     H_    0.719050 0.809506 0.130130 0.129963
H16   H     H_    0.718954 0.809254 0.874067 0.127009
N1    N     N_R   0.500860 0.501210 0.147910 -0.256419
N2    N     N_R   0.500890 0.501290 0.852040 -0.256712
N3    N     N_1   0.346544 0.727044 0.817554 -0.306703
N4    N     N_1   0.337227 0.265807 0.799320 -0.276714
N5    N     N_1   0.862278 0.265804 0.072427 -0.303479
N6    N     N_1   0.261749 0.266596 0.230722 -0.316724
O1    O     O_R   0.499990 0.319640 0.618810 -0.501219
O2    O     O_R   0.500000 0.319660 0.381240 -0.504724
O3    O     O_R   0.370250 0.499960 0.618800 -0.477265
O4    O     O_R   0.370260 0.499980 0.381230 -0.488473
O5    O     O_R   0.500000 0.680340 0.618760 -0.521919
O6    O     O_R   0.500010 0.680360 0.381190 -0.526655
O7    O     O_R   0.629740 0.500020 0.618770 -0.530024
O8    O     O_R   0.629750 0.500040 0.381200 -0.526300

loop_
_geom_bond_atom_site_label_1
_geom_bond_atom_site_label_2
_ccdc_geom_bond_type
Cu1   O7    S    
C24   N1    A    
C27   C29   S    
C41   C42   A    
C19   C20   A    
C16   O6    A    
C4    O4    A    
C7    C8    A    
C12   C28   A    
C18   C24   A    
C28   C29   A    
C38   C39   A    
C10   C17   A    
C1    O2    A    
C18   C19   A    
C32   C39   A    
C12   C42   A    
C18   H14   S    
C14   H8    S    
C8    C9    A    
Cu2   O4    S    
C35   N4    T    
C20   H16   S    
C27   O8    A    
C9    C10   A    
C42   H7    S    
Cu1   O3    S    
C21   C22   A    
C12   C32   A    
C9    C33   S    
C5    H5    S    
C16   O5    A    
C25   H13   S    
C8    H11   S    
C4    O3    A    
C28   H1    S    
C30   H3    S    
C6    C11   A    
C36   N5    T    
C16   C17   S    
C19   H15   S    
C25   C26   A    
C23   C31   A    
Cu1   Cu2   S    
C29   C30   A    
C22   N2    A    
C2    C38   A    
C31   C32   A    
C33   N3    T    
C23   C34   A    
C37   N6    T    
C25   N1    A    
Cu2   O8    S    
C40   C41   A    
C22   C24   A    
Cu2   O2    S    
C1    C13   S    
C6    H9    S    
C3    C4    S    
C41   H6    S    
C39   C40   A    
C21   H2    S    
C15   C17   A    
Cu1   O5    S    
C34   C38   A    
C3    C5    A    
C6    C7    A    
Cu2   N1    S    
C15   H12   S    
C2    C3    A    
C26   N2    A    
C27   O7    A    
C11   C13   A    
C2    C37   S    
C30   C31   A    
C1    O1    A    
Cu2   O6    S    
C10   C11   A    
C26   C35   S    
C34   H4    S    
C20   C21   A    
Cu1   O1    S    
C23   C36   S    
C5    C40   A    
C14   C15   A    
C7    H10   S    
C13   C14   A    
Cu1   N2    S    
