data_mof_unit_pretest_1139.cif
_audit_creation_date              2012-12-11T17:14:10-0500
_audit_creation_method            fapswitch 2.2
_symmetry_space_group_name_H-M    P1
_symmetry_Int_Tables_number       1
_space_group_crystal_system       triclinic
_cell_length_a                    18.24575
_cell_length_b                    7.109317
_cell_length_c                    13.094218
_cell_angle_alpha                 90.000207
_cell_angle_beta                  71.410235
_cell_angle_gamma                 90.000065
_cell_volume                      1609.89479608

loop_
_atom_site_label
_atom_site_type_symbol
_atom_type_description
_atom_site_fract_x
_atom_site_fract_y
_atom_site_fract_z
_atom_type_partial_charge
O1    O     O_R   0.453880 0.506200 0.150010 -0.553370
O2    O     O_R   0.546120 0.006200 0.849990 -0.553375
O3    O     O_R   0.604080 0.177770 0.007280 -0.539660
O4    O     O_R   0.395920 0.677770 0.992720 -0.539656
C1    C     C_R   0.635942 0.344536 0.001810 0.760003
C2    C     C_R   0.364058 0.844536 0.998190 0.759994
O5    O     O_R   0.458010 0.176640 0.159130 -0.521377
O6    O     O_R   0.541990 0.676640 0.840870 -0.521366
O7    O     O_R   0.399010 0.004010 0.002930 -0.531140
O8    O     O_R   0.600990 0.504010 0.997070 -0.531137
C3    C     C_R   0.442003 0.345523 0.201689 0.791373
C4    C     C_R   0.557998 0.845522 0.798311 0.791365
O9    O     O_3   0.480810 0.338440 0.948570 -0.368697
O10   O     O_3   0.519190 0.838440 0.051430 -0.368699
V1    V     V_3+5 0.503560 0.064490 0.009540 1.575383
V2    V     V_3+5 0.496440 0.564490 0.990460 1.575407
C5    C     C_R   0.576933 0.775206 0.505392 0.295607
C6    C     C_R   0.423067 0.275221 0.494609 0.295579
C7    C     C_R   0.590201 0.853388 0.680233 -0.199215
C8    C     C_R   0.409800 0.353395 0.319768 -0.199215
C9    C     C_R   0.947918 0.812466 0.381844 0.085126
C10   C     C_R   0.052083 0.312464 0.618156 0.085125
C11   C     C_R   0.913973 0.787470 0.492998 0.209009
C12   C     C_R   0.086028 0.287469 0.507001 0.209011
C13   C     C_R   0.832955 0.783250 0.538307 0.223120
C14   C     C_R   0.167046 0.283250 0.461693 0.223119
C15   C     C_R   0.785224 0.835909 0.475180 -0.004623
C16   C     C_R   0.214777 0.335917 0.524820 -0.004621
C17   C     C_R   0.819460 0.859277 0.362312 -0.067490
C18   C     C_R   0.180540 0.359288 0.637687 -0.067493
C19   C     C_R   0.703467 0.852009 0.520285 -0.016302
C20   C     C_R   0.296534 0.352023 0.479715 -0.016305
C21   C     C_R   0.656186 0.820419 0.454541 -0.104133
C22   C     C_R   0.343816 0.320444 0.545460 -0.104151
C23   C     C_R   0.690436 0.837581 0.341160 0.162660
C24   C     C_R   0.309565 0.337622 0.658840 0.162674
C25   C     C_R   0.770314 0.877841 0.297442 0.260979
C26   C     C_R   0.229686 0.377868 0.702557 0.260971
C27   C     C_R   0.668006 0.903864 0.628614 0.290553
C28   C     C_R   0.331995 0.403869 0.371386 0.290537
C29   C     C_R   0.544406 0.791118 0.619090 0.258416
C30   C     C_R   0.455596 0.291133 0.380911 0.258476
C31   C     C_R   0.901632 0.854018 0.317275 -0.150086
C32   C     C_R   0.098368 0.354019 0.682725 -0.150086
C33   C     C_1   0.216365 0.858751 0.000100 -0.105518
C34   C     C_1   0.783635 0.358751 0.999900 -0.105510
C35   C     C_1   0.283633 0.852617 0.998990 -0.104730
C36   C     C_1   0.716367 0.352618 0.001010 -0.104724
O11   O     O_R   0.899030 0.205490 0.002790 -0.531283
O12   O     O_R   0.100970 0.705490 0.997210 -0.531281
O13   O     O_R   0.042000 0.536370 0.840840 -0.529290
O14   O     O_R   0.958000 0.036370 0.159160 -0.529292
C37   C     C_R   0.059628 0.367769 0.798965 0.860050
C38   C     C_R   0.940372 0.867769 0.201034 0.860053
O15   O     O_R   0.895930 0.535070 0.992690 -0.529284
O16   O     O_R   0.104070 0.035070 0.007310 -0.529286
O17   O     O_R   0.953870 0.707520 0.150040 -0.540074
O18   O     O_R   0.046130 0.207520 0.849960 -0.540077
C39   C     C_R   0.864096 0.366751 0.998952 0.738747
C40   C     C_R   0.135904 0.866751 0.001048 0.738742
O19   O     O_3   0.019200 0.374340 0.051340 -0.371051
O20   O     O_3   0.980800 0.874340 0.948660 -0.371052
V3    V     V_3+5 0.996440 0.648350 0.990470 1.598601
V4    V     V_3+5 0.003560 0.148350 0.009530 1.598597
O21   O     O_3   0.467004 0.757043 0.672270 -0.626058
H1    H     H_    0.436776 0.793487 0.624566 0.313899
O22   O     O_3   0.533001 0.257069 0.327727 -0.626052
H2    H     H_    0.563228 0.293335 0.375463 0.313933
I1    I     I_    0.627215 0.812446 0.228094 -0.276835
I2    I     I_    0.372789 0.312544 0.771903 -0.276820
O23   O     O_3   0.533704 0.704758 0.444912 -0.620346
H3    H     H_    0.493293 0.620163 0.490062 0.308304
O24   O     O_3   0.466293 0.204754 0.555089 -0.620357
H4    H     H_    0.506669 0.120063 0.509951 0.308246
O25   O     O_3   0.711125 0.006636 0.679108 -0.607667
H5    H     H_    0.678630 0.048148 0.751163 0.307029
O26   O     O_3   0.288875 0.506634 0.320889 -0.607664
H6    H     H_    0.321368 0.548138 0.248833 0.307029
I3    I     I_    0.069310 0.760666 0.306458 -0.252419
I4    I     I_    0.930691 0.260664 0.693540 -0.252423
I5    I     I_    0.786852 0.631369 0.687782 -0.293013
I6    I     I_    0.213150 0.131361 0.312221 -0.293019
I7    I     I_    0.986290 0.764607 0.592729 -0.256124
I8    I     I_    0.013713 0.264607 0.407268 -0.256121
O27   O     O_3   0.801389 0.924334 0.189981 -0.642611
H7    H     H_    0.764983 0.009828 0.170802 0.303538
O28   O     O_3   0.198610 0.424366 0.810017 -0.642609
H8    H     H_    0.235011 0.509885 0.829191 0.303535

loop_
_geom_bond_atom_site_label_1
_geom_bond_atom_site_label_2
_ccdc_geom_bond_type
O28   H8    S    
C33   C40   S    
O15   C39   A    
C34   C39   S    
C15   C17   A    
O24   H4    S    
O1    C3    A    
O2    C4    A    
C2    O7    A    
O26   H6    S    
O5    C3    A    
C11   I7    S    
C25   O27   S    
C23   C25   A    
C12   C14   A    
C6    C30   A    
C8    C28   A    
C18   C26   A    
O19   V3    S    
O20   V4    S    
C9    C31   A    
C32   C37   S    
C10   C32   A    
O14   C38   A    
O15   V3    S    
O16   V4    S    
C27   O25   S    
O5    V1    S    
C14   I6    S    
O11   V4    S    
C17   C31   A    
C13   I5    S    
O12   V3    S    
C18   C32   A    
C5    C21   A    
C24   I2    S    
O17   V3    S    
C33   C35   T    
O18   V4    S    
C1    C36   S    
C34   C36   T    
C3    C8    S    
C2    C35   S    
C15   C19   A    
O22   H2    S    
C16   C20   A    
O13   V3    S    
O4    C2    A    
O14   V4    S    
C29   O21   S    
O27   H7    S    
O16   C40   A    
O13   C37   A    
C20   C22   A    
O4    V2    S    
O19   V4    S    
O25   H5    S    
O20   V3    S    
C31   C38   S    
O6    C4    A    
C9    I3    S    
C19   C21   A    
O1    V2    S    
O2    V1    S    
C6    C22   A    
C7    C27   A    
C5    O23   S    
C6    O24   S    
C9    C11   A    
C30   O22   S    
C10   C12   A    
C20   C28   A    
O3    V1    S    
O10   V1    S    
O3    C1    A    
C8    C30   A    
C37   O18   A    
C13   C15   A    
C14   C16   A    
O11   C39   A    
C26   O28   S    
O12   C40   A    
C16   C18   A    
C12   I8    S    
C10   I4    S    
O23   H3    S    
O8    V2    S    
C4    C7    S    
C24   C26   A    
C21   C23   A    
C19   C27   A    
C22   C24   A    
C11   C13   A    
O7    V1    S    
C5    C29   A    
C1    O8    A    
C23   I1    S    
O6    V2    S    
O21   H1    S    
O9    V2    S    
C17   C25   A    
C28   O26   S    
C7    C29   A    
C38   O17   A    
