data_mof_unit_pretest_1727.cif
_audit_creation_date              2012-12-10T19:51:54-0500
_audit_creation_method            fapswitch 2.2
_symmetry_space_group_name_H-M    P1
_symmetry_Int_Tables_number       1
_space_group_crystal_system       triclinic
_cell_length_a                    26.004664
_cell_length_b                    25.962689
_cell_length_c                    22.232843
_cell_angle_alpha                 90.013684
_cell_angle_beta                  125.858034
_cell_angle_gamma                 90.030274
_cell_volume                      12165.5903835

loop_
_atom_site_label
_atom_site_type_symbol
_atom_type_description
_atom_site_fract_x
_atom_site_fract_y
_atom_site_fract_z
_atom_type_partial_charge
C1    C     C_R   0.650318 0.749946 0.300666 0.817835
C2    C     C_R   0.650339 0.250039 0.300676 0.817519
C3    C     C_R   0.150316 0.249947 0.300666 0.816644
C4    C     C_R   0.150338 0.750039 0.300677 0.814540
C5    C     C_3   0.670437 0.470311 0.365747 0.721332
C6    C     C_3   0.670394 0.529554 0.365743 0.721350
C7    C     C_3   0.159498 0.971131 0.367251 0.716767
C8    C     C_3   0.158976 0.030360 0.368152 0.725549
C9    C     C_3   0.495183 0.205611 0.024875 0.393591
C10   C     C_3   0.495237 0.794350 0.024978 0.393729
C11   C     C_3   0.999520 0.704118 0.024870 0.393917
C12   C     C_3   0.998078 0.295395 0.024987 0.393795
C13   C     C_3   0.939617 0.737685 0.975411 -0.309754
C14   C     C_3   0.939249 0.260673 0.975416 -0.309079
C15   C     C_3   0.438678 0.242408 0.975422 -0.308868
C16   C     C_3   0.438690 0.757533 0.975406 -0.307354
C17   C     C_1   0.889145 0.749869 0.778572 -0.089552
C18   C     C_1   0.889196 0.250169 0.778580 -0.089745
C19   C     C_1   0.389152 0.249885 0.778572 -0.090854
C20   C     C_1   0.389209 0.750147 0.778581 -0.089624
C21   C     C_1   0.610807 0.250201 0.221447 -0.074336
C22   C     C_1   0.610763 0.749752 0.221440 -0.074529
C23   C     C_1   0.110788 0.750189 0.221447 -0.074435
C24   C     C_1   0.110747 0.249763 0.221439 -0.075551
C25   C     C_3   0.021402 0.715997 0.975729 0.306934
C26   C     C_3   0.020341 0.285121 0.975843 0.306543
C27   C     C_3   0.517983 0.212944 0.975724 0.305888
C28   C     C_3   0.518065 0.787082 0.975845 0.306563
C29   C     C_3   0.962443 0.749781 0.926181 -0.010834
C30   C     C_3   0.962465 0.250222 0.926187 -0.010902
C31   C     C_3   0.462437 0.249858 0.926186 -0.010890
C32   C     C_3   0.462478 0.750151 0.926189 -0.011101
C33   C     C_3   0.560404 0.258157 0.024459 0.251291
C34   C     C_3   0.560415 0.741871 0.024475 0.250993
C35   C     C_3   0.059389 0.762746 0.024465 0.251295
C36   C     C_3   0.059781 0.238844 0.024462 0.251178
C37   C     C_3   0.537133 0.250744 0.073841 -0.071685
C38   C     C_3   0.537115 0.749217 0.073839 -0.071806
C39   C     C_3   0.037048 0.750727 0.073840 -0.071788
C40   C     C_3   0.037052 0.249233 0.073837 -0.071743
C41   C     C_3   0.999950 0.796326 0.975267 0.410283
C42   C     C_3   0.001415 0.204120 0.975153 0.409903
C43   C     C_3   0.504359 0.294937 0.975268 0.409826
C44   C     C_3   0.504328 0.705073 0.975165 0.408940
C45   C     C_R   0.849636 0.749969 0.699331 0.829140
C46   C     C_R   0.849658 0.250044 0.699343 0.829554
C47   C     C_R   0.349637 0.249971 0.699332 0.829367
C48   C     C_R   0.349662 0.750039 0.699344 0.840244
C49   C     C_3   0.481246 0.288588 0.025028 -0.292255
C50   C     C_3   0.481185 0.711355 0.024904 -0.292704
C51   C     C_3   0.977660 0.785367 0.025017 -0.293278
C52   C     C_3   0.978773 0.213449 0.024903 -0.293247
C53   C     C_1   0.922281 0.749810 0.845233 0.136136
C54   C     C_1   0.922333 0.250221 0.845238 0.136209
C55   C     C_1   0.422287 0.249851 0.845232 0.135726
C56   C     C_1   0.422347 0.750178 0.845239 0.137433
C57   C     C_1   0.577537 0.250420 0.154793 0.135348
C58   C     C_1   0.577495 0.749527 0.154788 0.135416
C59   C     C_1   0.077493 0.750405 0.154790 0.134408
C60   C     C_1   0.077459 0.249542 0.154786 0.134429
C61   C     C_R   0.499774 0.721992 0.446298 -0.018492
C62   C     C_R   0.499846 0.278008 0.446374 -0.017924
C63   C     C_R   0.999899 0.221787 0.446536 -0.018192
C64   C     C_R   0.999972 0.778213 0.446615 -0.018636
C65   C     C_R   0.551436 0.753834 0.494580 -0.059157
C66   C     C_R   0.551454 0.246175 0.494620 -0.059554
C67   C     C_R   0.051440 0.253803 0.494587 -0.060174
C68   C     C_R   0.051456 0.746202 0.494623 -0.060837
C69   C     C_R   0.545283 0.790513 0.536636 -0.176809
C70   C     C_R   0.545228 0.209515 0.536620 -0.177331
C71   C     C_R   0.045168 0.290612 0.536403 -0.176492
C72   C     C_R   0.045105 0.709407 0.536373 -0.176208
C73   C     C_R   0.491757 0.790237 0.537121 -0.171881
C74   C     C_R   0.491689 0.209795 0.537080 -0.167408
C75   C     C_R   0.991641 0.290337 0.536887 -0.165739
C76   C     C_R   0.991564 0.709684 0.536831 -0.165090
C77   C     C_R   0.443907 0.753113 0.495879 -0.038054
C78   C     C_R   0.443892 0.246903 0.495865 -0.040500
C79   C     C_R   0.943911 0.253087 0.495880 -0.041091
C80   C     C_R   0.943893 0.746923 0.495863 -0.040940
C81   C     C_R   0.447345 0.721243 0.447674 -0.105774
C82   C     C_R   0.447400 0.278755 0.447715 -0.105655
C83   C     C_R   0.947464 0.221048 0.447904 -0.104954
C84   C     C_R   0.947520 0.778951 0.447951 -0.105055
C85   C     C_3   0.440155 0.663892 0.435787 0.687552
C86   C     C_3   0.440288 0.336099 0.435879 0.687350
C87   C     C_3   0.940517 0.163649 0.436498 0.686335
C88   C     C_3   0.940659 0.836345 0.436611 0.686441
C89   C     C_R   0.890094 0.749867 0.499877 0.867858
C90   C     C_R   0.890112 0.250138 0.499894 0.868325
C91   C     C_R   0.390094 0.249865 0.499877 0.867032
C92   C     C_R   0.390111 0.750142 0.499893 0.864909
C93   C     C_3   0.497436 0.665352 0.432779 0.149618
C94   C     C_3   0.497599 0.334646 0.432927 0.149542
C95   C     C_3   0.997809 0.165090 0.433512 0.148655
C96   C     C_3   0.997977 0.834910 0.433675 0.148658
C97   C     C_R   0.778663 0.973415 0.474275 -0.059427
C98   C     C_R   0.778667 0.026600 0.474278 -0.059456
C99   C     C_R   0.278560 0.473415 0.474145 -0.059320
C100  C     C_R   0.278564 0.526599 0.474148 -0.059182
C101  C     C_R   0.746571 0.945887 0.496804 0.010822
C102  C     C_R   0.746572 0.054107 0.496798 0.010787
C103  C     C_R   0.246564 0.445887 0.496800 0.010429
C104  C     C_R   0.246564 0.554107 0.496795 0.010723
C105  C     C_R   0.710051 0.973012 0.514179 -0.175696
C106  C     C_R   0.710050 0.026952 0.514175 -0.175574
C107  C     C_R   0.210123 0.473013 0.514291 -0.175510
C108  C     C_R   0.210122 0.526952 0.514287 -0.175642
C109  C     C_3   0.846728 0.029498 0.501877 0.221148
C110  C     C_3   0.846720 0.970590 0.501858 0.221026
C111  C     C_3   0.346577 0.529498 0.501563 0.221343
C112  C     C_3   0.346569 0.470590 0.501544 0.221215
C113  C     C_R   0.609575 0.750334 0.499476 0.801998
C114  C     C_R   0.609592 0.249662 0.499494 0.801882
C115  C     C_R   0.109578 0.250329 0.499480 0.802090
C116  C     C_R   0.109594 0.749666 0.499497 0.805075
C117  C     C_R   0.749617 0.890069 0.499713 0.853202
C118  C     C_R   0.749621 0.109930 0.499712 0.853212
C119  C     C_R   0.249618 0.390069 0.499713 0.853363
C120  C     C_R   0.249622 0.609930 0.499712 0.852617
C121  C     C_R   0.749685 0.609871 0.501379 0.879596
C122  C     C_R   0.749726 0.390131 0.501395 0.879405
C123  C     C_R   0.249589 0.109917 0.501714 0.879196
C124  C     C_R   0.250077 0.890200 0.500739 0.907249
C125  C     C_R   0.698929 0.526462 0.447218 -0.146978
C126  C     C_R   0.698971 0.473453 0.447224 -0.146782
C127  C     C_R   0.196026 0.026519 0.451194 -0.148469
C128  C     C_R   0.196587 0.973480 0.450463 -0.157788
C129  C     C_R   0.747507 0.554259 0.507931 -0.220098
C130  C     C_R   0.747591 0.445750 0.507939 -0.219954
C131  C     C_R   0.247416 0.054407 0.508844 -0.218707
C132  C     C_R   0.249387 0.946008 0.506423 -0.193868
C133  C     C_R   0.790861 0.527172 0.575137 0.421268
C134  C     C_R   0.790906 0.472920 0.575141 0.421069
C135  C     C_R   0.295419 0.027138 0.573295 0.399194
C136  C     C_R   0.297887 0.973222 0.570656 0.395916
H1    H     H_    0.582863 0.817854 0.571668 0.179284
H2    H     H_    0.582759 0.182185 0.571622 0.179929
H3    H     H_    0.082654 0.318068 0.571245 0.180210
H4    H     H_    0.082538 0.681956 0.571177 0.180072
H5    H     H_    0.489308 0.817553 0.572188 0.179534
H6    H     H_    0.489190 0.182490 0.572108 0.184167
H7    H     H_    0.989096 0.317766 0.571766 0.184787
H8    H     H_    0.988964 0.682260 0.571662 0.184813
H9    H     H_    0.540116 0.644876 0.479114 0.130634
H10   H     H_    0.540297 0.355141 0.479308 0.130570
H11   H     H_    0.040569 0.144809 0.480040 0.129899
H12   H     H_    0.040758 0.855206 0.480250 0.131949
H13   H     H_    0.682803 0.952644 0.529287 0.163374
H14   H     H_    0.682802 0.047299 0.529281 0.163522
H15   H     H_    0.182942 0.452646 0.529493 0.164059
H16   H     H_    0.182940 0.547298 0.529487 0.163978
H17   H     H_    0.851892 0.046257 0.459686 0.159562
H18   H     H_    0.851870 0.953834 0.459649 0.159371
H19   H     H_    0.351624 0.546255 0.459280 0.159560
H20   H     H_    0.351602 0.453836 0.459242 0.159384
H21   H     H_    0.890675 0.726657 0.955154 0.203329
H22   H     H_    0.889990 0.270406 0.955182 0.203494
H23   H     H_    0.388881 0.235159 0.955193 0.203803
H24   H     H_    0.388893 0.764748 0.955164 0.204319
H25   H     H_    0.466993 0.320469 0.045654 0.212067
H26   H     H_    0.466873 0.679441 0.045429 0.212080
H27   H     H_    0.960445 0.814732 0.045629 0.212001
H28   H     H_    0.962481 0.183162 0.045426 0.211838
O1    O     O_3   0.749980 0.749980 0.500000 -0.521702
O2    O     O_3   0.749980 0.250020 0.500000 -0.521710
O3    O     O_3   0.249980 0.249980 0.500000 -0.521813
O4    O     O_3   0.249980 0.750020 0.500000 -0.521253
O5    O     O_R   0.887330 0.719620 0.543100 -0.643925
O6    O     O_R   0.887330 0.280380 0.543100 -0.644089
O7    O     O_R   0.387330 0.219620 0.543100 -0.644582
O8    O     O_R   0.387330 0.780380 0.543100 -0.653381
O9    O     O_R   0.612630 0.719620 0.456900 -0.610014
O10   O     O_R   0.612630 0.280380 0.456900 -0.609882
O11   O     O_R   0.112630 0.219620 0.456900 -0.609298
O12   O     O_R   0.112630 0.780380 0.456900 -0.608004
O13   O     O_R   0.698160 0.780350 0.335610 -0.628851
O14   O     O_R   0.698160 0.219650 0.335610 -0.628959
O15   O     O_R   0.198160 0.280350 0.335610 -0.628653
O16   O     O_R   0.198160 0.719650 0.335610 -0.629029
O17   O     O_R   0.801810 0.780340 0.664390 -0.624703
O18   O     O_R   0.801810 0.219660 0.664390 -0.624766
O19   O     O_R   0.301810 0.280340 0.664390 -0.624995
O20   O     O_R   0.301810 0.719660 0.664390 -0.626260
O21   O     O_R   0.637440 0.719620 0.335610 -0.599006
O22   O     O_R   0.637440 0.280380 0.335610 -0.598742
O23   O     O_R   0.137440 0.219620 0.335610 -0.598998
O24   O     O_R   0.137440 0.780380 0.335610 -0.600697
O25   O     O_R   0.862520 0.719620 0.664390 -0.621750
O26   O     O_R   0.862520 0.280380 0.664390 -0.621836
O27   O     O_R   0.362520 0.219620 0.664390 -0.622060
O28   O     O_R   0.362520 0.780380 0.664390 -0.613822
O29   O     O_R   0.844240 0.780350 0.456900 -0.598963
O30   O     O_R   0.844240 0.219650 0.456900 -0.598910
O31   O     O_R   0.344240 0.280350 0.456900 -0.598640
O32   O     O_R   0.344240 0.719650 0.456900 -0.598145
O33   O     O_R   0.655730 0.780340 0.543100 -0.656181
O34   O     O_R   0.655730 0.219660 0.543100 -0.656092
O35   O     O_R   0.155730 0.280340 0.543100 -0.656008
O36   O     O_R   0.155730 0.719660 0.543100 -0.655559
O37   O     O_R   0.758800 0.865790 0.456890 -0.618651
O38   O     O_R   0.758800 0.134210 0.456890 -0.618648
O39   O     O_R   0.258800 0.365790 0.456890 -0.618425
O40   O     O_R   0.258800 0.634210 0.456890 -0.618393
O41   O     O_R   0.698070 0.634180 0.456910 -0.600835
O42   O     O_R   0.698070 0.365820 0.456910 -0.600634
O43   O     O_R   0.198070 0.134180 0.456910 -0.594505
O44   O     O_R   0.198070 0.865820 0.456910 -0.598892
O45   O     O_R   0.741170 0.865780 0.543090 -0.637879
O46   O     O_R   0.741170 0.134220 0.543090 -0.637839
O47   O     O_R   0.241170 0.365780 0.543090 -0.638020
O48   O     O_R   0.241170 0.634220 0.543090 -0.638848
O49   O     O_R   0.801880 0.634180 0.543110 -0.638506
O50   O     O_R   0.801880 0.365820 0.543110 -0.638780
O51   O     O_R   0.301880 0.134180 0.543110 -0.641272
O52   O     O_R   0.301880 0.865820 0.543110 -0.650352
Zn1   Zn    Zn3+2 0.824140 0.706600 0.561580 1.028209
Zn2   Zn    Zn3+2 0.824140 0.293400 0.561580 1.028212
Zn3   Zn    Zn3+2 0.324140 0.206600 0.561580 1.024927
Zn4   Zn    Zn3+2 0.324140 0.793400 0.561580 1.024331
Zn5   Zn    Zn3+2 0.762580 0.793360 0.438420 1.058033
Zn6   Zn    Zn3+2 0.762580 0.206640 0.438420 1.057980
Zn7   Zn    Zn3+2 0.262580 0.293360 0.438420 1.057631
Zn8   Zn    Zn3+2 0.262580 0.706640 0.438420 1.055228
Zn9   Zn    Zn3+2 0.737390 0.793360 0.561570 1.004218
Zn10  Zn    Zn3+2 0.737390 0.206640 0.561570 1.004269
Zn11  Zn    Zn3+2 0.237390 0.293360 0.561570 1.004294
Zn12  Zn    Zn3+2 0.237390 0.706640 0.561570 1.009070
Zn13  Zn    Zn3+2 0.675820 0.706600 0.438430 1.051977
Zn14  Zn    Zn3+2 0.675820 0.293400 0.438430 1.051980
Zn15  Zn    Zn3+2 0.175820 0.206600 0.438430 1.054744
Zn16  Zn    Zn3+2 0.175820 0.793400 0.438430 1.058449
O53   O     O_3   0.833265 0.551825 0.641766 -0.666214
H29   H     H_    0.814417 0.584920 0.641821 0.327317
O54   O     O_3   0.833350 0.448355 0.641769 -0.666119
H30   H     H_    0.814557 0.415210 0.641830 0.327483
O55   O     O_3   0.341745 0.051420 0.638493 -0.671290
H31   H     H_    0.322894 0.082646 0.643873 0.335102
O56   O     O_3   0.347464 0.948145 0.632043 -0.673567
H32   H     H_    0.374367 0.934722 0.617428 0.355028
Cl1   Cl    Cl    0.455783 0.628864 0.513922 -0.523479
Cl2   Cl    Cl    0.455902 0.371168 0.514014 -0.523247
Cl3   Cl    Cl    0.956258 0.128938 0.514910 -0.523329
Cl4   Cl    Cl    0.956395 0.871086 0.515036 -0.521773
O57   O     O_3   0.382772 0.648518 0.369308 -0.661689
H33   H     H_    0.368602 0.676013 0.331611 0.358541
O58   O     O_3   0.382944 0.351431 0.369386 -0.661480
H34   H     H_    0.368765 0.323918 0.331669 0.358796
O59   O     O_3   0.883209 0.148009 0.370134 -0.661531
H35   H     H_    0.868951 0.175343 0.332203 0.359088
O60   O     O_3   0.883391 0.851952 0.370240 -0.661552
H36   H     H_    0.869116 0.824604 0.332282 0.359085
Cl5   Cl    Cl    0.480616 0.652212 0.343880 -0.479083
Cl6   Cl    Cl    0.480853 0.347764 0.344071 -0.478839
Cl7   Cl    Cl    0.981093 0.151554 0.344756 -0.471894
Cl8   Cl    Cl    0.981329 0.848433 0.344962 -0.473748
Cl9   Cl    Cl    0.896447 0.059712 0.591330 -0.407071
Cl10  Cl    Cl    0.896448 0.940434 0.591284 -0.406771
Cl11  Cl    Cl    0.396435 0.559714 0.590997 -0.408751
Cl12  Cl    Cl    0.396436 0.440431 0.590950 -0.408281
O61   O     O_3   0.712303 0.448302 0.352627 -0.728906
H37   H     H_    0.691092 0.450830 0.298365 0.355876
O62   O     O_3   0.712230 0.551666 0.352623 -0.728949
H38   H     H_    0.691023 0.549101 0.298361 0.355875
O63   O     O_3   0.195164 0.950028 0.344428 -0.732594
H39   H     H_    0.168425 0.952927 0.289531 0.357944
O64   O     O_3   0.194357 0.053336 0.346126 -0.728248
H40   H     H_    0.167677 0.051314 0.291146 0.356443
O65   O     O_3   0.609814 0.447242 0.322379 -0.705163
H41   H     H_    0.587766 0.454011 0.345943 0.343859
O66   O     O_3   0.609738 0.552485 0.322372 -0.705196
H42   H     H_    0.587692 0.545642 0.345922 0.343765
O67   O     O_3   0.099329 0.947680 0.331449 -0.694751
H43   H     H_    0.082871 0.953800 0.361408 0.344154
O68   O     O_3   0.098410 0.052870 0.333011 -0.694455
H44   H     H_    0.082117 0.045427 0.362846 0.343014
O69   O     O_3   0.491712 0.158310 0.052325 -0.708634
H45   H     H_    0.460757 0.137544 0.007886 0.358056
O70   O     O_3   0.491812 0.841624 0.052540 -0.708512
H46   H     H_    0.460899 0.862398 0.008151 0.358855
O71   O     O_3   0.000692 0.655373 0.052323 -0.708760
H47   H     H_    0.971792 0.633837 0.007894 0.358254
O72   O     O_3   0.997697 0.343675 0.052561 -0.708768
H48   H     H_    0.968129 0.364970 0.008176 0.358150
O73   O     O_3   0.999291 0.844815 0.947513 -0.678512
H49   H     H_    0.026531 0.866914 0.991802 0.363589
O74   O     O_3   0.002309 0.156123 0.947273 -0.678353
H50   H     H_    0.030242 0.134212 0.991517 0.363490
O75   O     O_3   0.508324 0.341913 0.947511 -0.678765
H51   H     H_    0.537687 0.363393 0.991812 0.363556
O76   O     O_3   0.508248 0.658124 0.947297 -0.679144
H52   H     H_    0.537566 0.636634 0.991546 0.363703
Cl13  Cl    Cl    0.640203 0.268947 0.055991 -0.499094
Cl14  Cl    Cl    0.640215 0.731138 0.056031 -0.499614
Cl15  Cl    Cl    0.137880 0.779640 0.056046 -0.498527
Cl16  Cl    Cl    0.138770 0.224048 0.056002 -0.498520
O77   O     O_3   0.042970 0.679407 0.949174 -0.687064
H53   H     H_    0.081052 0.663786 0.993999 0.376122
O78   O     O_3   0.040764 0.322888 0.949405 -0.687012
H54   H     H_    0.078329 0.339000 0.994294 0.376156
O79   O     O_3   0.535863 0.173157 0.949160 -0.687804
H55   H     H_    0.572353 0.156113 0.993994 0.376191
O80   O     O_3   0.536020 0.826912 0.949409 -0.687229
H56   H     H_    0.572523 0.843956 0.994298 0.376006

loop_
_geom_bond_atom_site_label_1
_geom_bond_atom_site_label_2
_ccdc_geom_bond_type
C35   Cl15  S    
C122  O42   A    
C36   C42   S    
O76   H52   S    
O1    Zn5   S    
O79   H55   S    
C14   H22   S    
C14   C30   S    
C94   Cl6   S    
C5    C6    S    
C10   C28   S    
O66   H42   S    
O12   Zn16  S    
C100  C104  A    
C13   H21   S    
C64   C84   A    
C79   C90   S    
C13   C51   S    
C14   C52   S    
O56   H32   S    
C5    C126  S    
C70   C74   A    
C7    C128  S    
O30   Zn6   S    
O23   Zn15  S    
C98   C109  S    
O57   H33   S    
C124  O44   A    
C5    O61   S    
C130  C134  A    
C41   O73   S    
O25   Zn1   S    
C25   C29   S    
C27   C31   S    
C135  C136  A    
C47   O19   A    
O19   Zn11  S    
C48   O20   A    
C4    C23   S    
O17   Zn9   S    
C98   C102  A    
C135  O55   S    
C121  O49   A    
C12   C40   S    
O4    Zn16  S    
C91   O31   A    
C78   C82   A    
O80   H56   S    
C68   C72   A    
C89   O29   A    
O4    Zn4   S    
C96   Cl8   S    
O32   Zn8   S    
C75   H7    S    
O44   Zn16  S    
C129  C133  A    
C76   H8    S    
C70   H2    S    
O20   Zn12  S    
C18   C46   S    
C44   C50   S    
C52   H28   S    
C65   C113  S    
C84   C88   S    
C6    C125  S    
C92   O32   A    
C3    O23   A    
C22   C58   T    
O22   Zn14  S    
C1    O21   A    
C91   O7    A    
C10   C38   S    
C4    O24   A    
C9    C15   S    
C89   O5    A    
C10   C16   S    
C11   C13   S    
C66   C70   A    
C92   O8    A    
C26   O78   S    
O16   Zn8   S    
C93   Cl5   S    
C15   C49   S    
C127  C131  A    
C61   C65   A    
C114  O10   A    
C100  C111  S    
C73   C77   A    
C103  C107  A    
C111  H19   S    
C41   C51   S    
C37   C57   S    
O34   Zn10  S    
C42   C52   S    
C120  O48   A    
C39   C51   S    
C86   O58   S    
C40   C60   S    
C16   H24   S    
O41   Zn13  S    
C111  C112  S    
O37   Zn5   S    
C20   C56   T    
C97   C98   A    
C7    C8    S    
C27   C33   S    
C23   C59   T    
C30   C54   S    
O59   H35   S    
C31   C43   S    
C64   C68   A    
C17   C45   S    
C110  Cl10  S    
O61   H37   S    
C19   C47   S    
C11   C25   S    
C124  C132  S    
C115  O11   A    
C34   Cl14  S    
C85   C93   S    
C33   Cl13  S    
C87   C95   S    
C107  C108  A    
C10   O70   S    
O53   H29   S    
C49   H25   S    
O8    Zn4   S    
O1    Zn1   S    
C107  H15   S    
C1    C22   S    
C38   C58   S    
O55   H31   S    
C85   O57   S    
O46   Zn10  S    
C3    C24   S    
C118  O38   A    
C8    O64   S    
O3    Zn3   S    
C101  C105  A    
C62   C66   A    
C95   H11   S    
C64   C96   S    
C99   C103  A    
O50   Zn2   S    
C115  O35   A    
C12   C26   S    
C28   O80   S    
C125  C129  A    
C36   Cl16  S    
C132  C136  A    
O1    Zn9   S    
O75   H51   S    
C51   H27   S    
O10   Zn14  S    
C26   C30   S    
C120  O40   A    
C87   O59   S    
C29   C41   S    
C6    O66   S    
C76   C80   A    
C12   C14   S    
C83   C87   S    
O4    Zn12  S    
O64   H40   S    
C15   C31   S    
C16   C32   S    
O4    Zn8   S    
C119  O47   A    
C46   O18   A    
C117  O45   A    
C61   C81   A    
C112  Cl12  S    
C75   C79   A    
C43   O75   S    
C35   C41   S    
C72   H4    S    
C114  O34   A    
C25   O77   S    
O72   H48   S    
C24   C60   T    
C2    O14   A    
O13   Zn5   S    
C81   C85   S    
C94   H10   S    
O5    Zn1   S    
C88   C96   S    
C44   O76   S    
C123  O51   A    
O68   H44   S    
C121  O41   A    
C80   C84   A    
O2    Zn6   S    
C45   O17   A    
O60   H36   S    
C73   H5    S    
C106  H14   S    
C13   C29   S    
C16   C50   S    
C61   C93   S    
C50   H26   S    
C126  C130  A    
O1    Zn13  S    
C63   C95   S    
O36   Zn12  S    
C80   C89   S    
C7    O63   S    
C108  H16   S    
O54   H30   S    
C69   C73   A    
C109  H17   S    
C42   O74   S    
O29   Zn5   S    
C62   C82   A    
C28   C34   S    
O2    Zn14  S    
O65   H41   S    
C9    O69   S    
O45   Zn9   S    
C4    O16   A    
O26   Zn2   S    
C111  Cl11  S    
C96   H12   S    
O52   Zn4   S    
C119  O39   A    
O18   Zn10  S    
C82   C86   S    
C33   C37   S    
C122  O50   A    
C63   C83   A    
C35   C39   S    
O78   H54   S    
C15   H23   S    
O73   H49   S    
O51   Zn3   S    
C37   C49   S    
O3    Zn11  S    
O74   H50   S    
C90   O30   A    
C28   C32   S    
C39   C59   S    
C2    C21   S    
C85   Cl1   S    
O39   Zn7   S    
C133  O53   S    
O3    Zn7   S    
C20   C48   S    
C25   C35   S    
C88   O60   S    
C26   C36   S    
C62   C94   S    
C133  C134  A    
C11   O71   S    
C127  C128  A    
C17   C53   T    
C104  C108  A    
C9    C27   S    
C19   C55   T    
C66   C114  S    
C123  C131  S    
C121  C129  S    
C88   Cl4   S    
O21   Zn13  S    
C105  C106  A    
C5    O65   S    
C101  C117  S    
O70   H46   S    
C109  C110  S    
C79   C83   A    
C65   C69   A    
C67   C71   A    
C47   O27   A    
C48   O28   A    
C8    O68   S    
C12   O72   S    
O48   Zn12  S    
C74   C78   A    
C136  O56   S    
C30   C42   S    
C31   C55   S    
O24   Zn16  S    
O35   Zn11  S    
C32   C56   S    
C104  C120  S    
O33   Zn9   S    
O31   Zn7   S    
C77   C92   S    
O42   Zn14  S    
O77   H53   S    
O38   Zn6   S    
C72   C76   A    
C131  C135  A    
C116  O36   A    
C3    O15   A    
C67   C115  S    
C86   C94   S    
C1    O13   A    
C134  O54   S    
C93   H9    S    
C6    O62   S    
C77   C81   A    
O63   H39   S    
O2    Zn2   S    
C102  C118  S    
C86   Cl2   S    
C74   H6    S    
O47   Zn11  S    
O40   Zn8   S    
C46   O26   A    
C117  O37   A    
C128  C132  A    
C69   H1    S    
C63   C67   A    
O11   Zn15  S    
C116  O12   A    
C33   C43   S    
C36   C40   S    
C34   C44   S    
O27   Zn3   S    
O49   Zn1   S    
C43   C49   S    
C71   H3    S    
O71   H47   S    
C40   C52   S    
O15   Zn7   S    
C2    O22   A    
C21   C57   T    
C110  H18   S    
C8    C127  S    
C87   Cl3   S    
C99   C100  A    
O2    Zn10  S    
C90   O6    A    
C9    C37   S    
O67   H43   S    
C32   C44   S    
C123  O43   A    
C11   C39   S    
O9    Zn13  S    
C45   O25   A    
C68   C116  S    
C112  H20   S    
O28   Zn4   S    
C95   Cl7   S    
C113  O9    A    
C124  O52   A    
C34   C38   S    
C103  C119  S    
C7    O67   S    
O58   H34   S    
O3    Zn15  S    
C38   C50   S    
C78   C91   S    
C105  H13   S    
C118  O46   A    
C27   O79   S    
O62   H38   S    
C71   C75   A    
C97   C110  S    
O43   Zn15  S    
C125  C126  A    
C29   C53   S    
C99   C112  S    
C102  C106  A    
C109  Cl9   S    
O7    Zn3   S    
C18   C54   T    
C113  O33   A    
O14   Zn6   S    
O69   H45   S    
C122  C130  S    
C97   C101  A    
O6    Zn2   S    
