data_mof_unit_pretest_873.cif
_audit_creation_date              2012-12-11T16:23:21-0500
_audit_creation_method            fapswitch 2.2
_symmetry_space_group_name_H-M    P1
_symmetry_Int_Tables_number       1
_space_group_crystal_system       triclinic
_cell_length_a                    19.933723
_cell_length_b                    7.208974
_cell_length_c                    19.923611
_cell_angle_alpha                 89.999547
_cell_angle_beta                  98.835624
_cell_angle_gamma                 89.999476
_cell_volume                      2829.08089739

loop_
_atom_site_label
_atom_site_type_symbol
_atom_type_description
_atom_site_fract_x
_atom_site_fract_y
_atom_site_fract_z
_atom_type_partial_charge
O1    O     O_R   0.188410 0.619490 0.310050 -0.553620
O2    O     O_R   0.811590 0.380510 0.689950 -0.518496
O3    O     O_R   0.311590 0.119490 0.189950 -0.553605
O4    O     O_R   0.688410 0.880510 0.810050 -0.518488
O5    O     O_R   0.327280 0.288800 0.321740 -0.523752
O6    O     O_R   0.672720 0.711200 0.678260 -0.538314
O7    O     O_R   0.172720 0.788800 0.178260 -0.523754
O8    O     O_R   0.827280 0.211200 0.821740 -0.538321
C1    C     C_R   0.350987 0.458433 0.339026 0.770330
C2    C     C_R   0.648766 0.541517 0.661326 0.674595
C3    C     C_R   0.149013 0.958436 0.160975 0.770321
C4    C     C_R   0.851235 0.041514 0.838673 0.674581
O9    O     O_R   0.189900 0.289710 0.318190 -0.511247
O10   O     O_R   0.810100 0.710290 0.681810 -0.539299
O11   O     O_R   0.310100 0.789710 0.181810 -0.511242
O12   O     O_R   0.689900 0.210290 0.818190 -0.539298
O13   O     O_R   0.173230 0.120350 0.186370 -0.549272
O14   O     O_R   0.826770 0.879650 0.813630 -0.531508
O15   O     O_R   0.326770 0.620350 0.313630 -0.549274
O16   O     O_R   0.673230 0.379650 0.686370 -0.531510
C5    C     C_R   0.171260 0.459466 0.335263 0.700576
C6    C     C_R   0.829729 0.539715 0.664795 0.671494
C7    C     C_R   0.328739 0.959465 0.164737 0.700590
C8    C     C_R   0.670271 0.039715 0.835204 0.671504
O17   O     O_3   0.244690 0.453290 0.206760 -0.369720
O18   O     O_3   0.755310 0.546710 0.793240 -0.350183
O19   O     O_3   0.255310 0.953290 0.293240 -0.369736
O20   O     O_3   0.744690 0.046710 0.706760 -0.350189
V1    V     V_3+5 0.250980 0.178070 0.258020 1.512763
V2    V     V_3+5 0.749020 0.821930 0.741980 1.520983
V3    V     V_3+5 0.249020 0.678070 0.241980 1.512761
V4    V     V_3+5 0.750980 0.321930 0.758020 1.520976
C9    C     C_R   0.408748 0.121755 0.010582 -0.012787
C10   C     C_R   0.531267 0.849214 0.932533 -0.051724
C11   C     C_R   0.091254 0.621722 0.489424 -0.012761
C12   C     C_R   0.968725 0.349193 0.567458 -0.051714
C13   C     C_R   0.364101 0.113010 0.060174 -0.076738
C14   C     C_R   0.587447 0.850941 0.896478 -0.075407
C15   C     C_R   0.135901 0.612993 0.439830 -0.076740
C16   C     C_R   0.912547 0.350931 0.603517 -0.075419
C17   C     C_R   0.373872 0.974570 0.111880 -0.062681
C18   C     C_R   0.620847 0.021801 0.885419 -0.061732
C19   C     C_R   0.126126 0.474572 0.388118 -0.062679
C20   C     C_R   0.879152 0.521798 0.614579 -0.061729
C21   C     C_R   0.429710 0.855597 0.115694 -0.119199
C22   C     C_R   0.604632 0.178104 0.921640 -0.182473
C23   C     C_R   0.070282 0.355621 0.384295 -0.119208
C24   C     C_R   0.895368 0.678101 0.578359 -0.182452
H1    H     H_    0.438630 0.751466 0.155215 0.118300
H2    H     H_    0.631561 0.306156 0.918220 0.174391
H3    H     H_    0.061358 0.251511 0.344768 0.118288
H4    H     H_    0.868442 0.806158 0.581782 0.174381
C25   C     C_R   0.476336 0.873796 0.070765 -0.127958
C26   C     C_R   0.555746 0.169753 0.964973 -0.129909
C27   C     C_R   0.023654 0.373821 0.429222 -0.127911
C28   C     C_R   0.944252 0.669745 0.535025 -0.129902
H5    H     H_    0.520075 0.782654 0.076629 0.107260
H6    H     H_    0.547082 0.290864 0.994622 0.103982
H7    H     H_    0.979909 0.282700 0.423349 0.107270
H8    H     H_    0.952918 0.790858 0.505377 0.103996
C29   C     C_R   0.466614 0.003841 0.017692 0.096457
C30   C     C_R   0.517438 0.008414 0.969697 0.138456
C31   C     C_R   0.033381 0.503833 0.482303 0.096454
C32   C     C_R   0.982557 0.508399 0.530297 0.138449
C33   C     C_R   0.086854 0.969469 0.108766 -0.114587
C34   C     C_R   0.913526 0.029918 0.890729 -0.149976
C35   C     C_R   0.413146 0.469454 0.391235 -0.114569
C36   C     C_R   0.586476 0.529929 0.609268 -0.149984
C37   C     C_R   0.036909 0.002168 0.918776 0.140927
C38   C     C_R   0.963382 0.998912 0.081282 0.202562
C39   C     C_R   0.463090 0.502277 0.581220 0.140944
C40   C     C_R   0.536622 0.498803 0.418717 0.202553
C41   C     C_R   0.977215 0.000860 0.869885 0.152720
C42   C     C_R   0.023446 0.003222 0.129746 0.107384
C43   C     C_R   0.522781 0.500963 0.630114 0.152718
C44   C     C_R   0.476558 0.503133 0.370252 0.107373
C45   C     C_R   0.910036 0.056432 0.960442 -0.101845
C46   C     C_R   0.089474 0.938588 0.038902 -0.113746
C47   C     C_R   0.589972 0.556370 0.539553 -0.101835
C48   C     C_R   0.410524 0.438622 0.461102 -0.113738
C49   C     C_R   0.967765 0.014565 0.010594 0.058904
C50   C     C_R   0.031984 0.984667 0.989281 -0.028527
C51   C     C_R   0.532239 0.514520 0.489403 0.058891
C52   C     C_R   0.468017 0.484702 0.510718 -0.028539
C53   C     C_2   0.391362 0.241640 0.949092 0.402526
H9    H     H_    0.358218 0.360192 0.949305 0.145217
O21   O     O_2   0.411637 0.205257 0.895822 -0.513771
C54   C     C_2   0.487090 0.681294 0.930440 0.364600
H10   H     H_    0.506797 0.544921 0.921987 0.042828
O22   O     O_2   0.426969 0.694464 0.935336 -0.495972
C55   C     C_2   0.108648 0.741553 0.550927 0.402599
H11   H     H_    0.141813 0.860065 0.550735 0.145202
O23   O     O_2   0.088356 0.705166 0.604189 -0.513801
C56   C     C_2   0.012894 0.181254 0.569543 0.364598
H12   H     H_    0.993188 0.044896 0.578017 0.042833
O24   O     O_2   0.073009 0.194389 0.564619 -0.495979
C57   C     C_2   0.305298 0.241365 0.056798 0.364556
H13   H     H_    0.255530 0.188003 0.062100 0.093617
O25   O     O_2   0.312842 0.408769 0.052453 -0.517037
C58   C     C_2   0.613689 0.670588 0.876530 0.358584
H14   H     H_    0.581033 0.574790 0.844877 0.018793
O26   O     O_2   0.671798 0.624433 0.898779 -0.512932
C59   C     C_2   0.194703 0.741347 0.443207 0.364549
H15   H     H_    0.244465 0.687997 0.437875 0.093638
O27   O     O_2   0.187165 0.908745 0.447584 -0.517031
C60   C     C_2   0.886300 0.170583 0.623463 0.358607
H16   H     H_    0.918951 0.074783 0.655121 0.018771
O28   O     O_2   0.828191 0.124441 0.601210 -0.512933
C61   C     C_2   0.147569 0.834404 0.018003 0.364497
H17   H     H_    0.138578 0.742392 0.974467 0.087361
O29   O     O_2   0.205437 0.850649 0.047842 -0.538191
C62   C     C_2   0.848096 0.146906 0.978325 0.417774
H18   H     H_    0.798206 0.109068 0.952025 0.028584
O30   O     O_2   0.852709 0.271524 0.020275 -0.518714
C63   C     C_2   0.352426 0.334473 0.482011 0.364456
H19   H     H_    0.361412 0.242511 0.525562 0.087382
O31   O     O_2   0.294561 0.350682 0.452161 -0.538201
C64   C     C_2   0.651926 0.646756 0.521663 0.417765
H20   H     H_    0.701810 0.608885 0.547968 0.028579
O32   O     O_2   0.647331 0.771342 0.479699 -0.518715
C65   C     C_3   0.020238 0.030749 0.204718 -0.783402
H21   H     H_    0.968922 0.067995 0.215153 0.217665
H22   H     H_    0.036967 0.902352 0.233276 0.198404
H23   H     H_    0.053949 0.147099 0.224620 0.201170
C66   C     C_3   0.981186 0.984266 0.794719 -0.754316
H24   H     H_    0.031956 0.941327 0.784317 0.231876
H25   H     H_    0.945293 0.876689 0.771072 0.203645
H26   H     H_    0.968133 0.119963 0.769809 0.189344
C67   C     C_3   0.479770 0.530598 0.295277 -0.783400
H27   H     H_    0.531088 0.567811 0.284840 0.217671
H28   H     H_    0.463037 0.402185 0.266733 0.198415
H29   H     H_    0.446064 0.646947 0.275361 0.201156
C68   C     C_3   0.518807 0.484450 0.705282 -0.754314
H30   H     H_    0.468029 0.441599 0.715689 0.231877
H31   H     H_    0.554681 0.376840 0.728940 0.203627
H32   H     H_    0.531882 0.620152 0.730178 0.189349
C69   C     C_3   0.103640 0.053453 0.895637 -0.747486
H33   H     H_    0.095341 0.163273 0.856122 0.226640
H34   H     H_    0.140180 0.115137 0.937274 0.212868
H35   H     H_    0.126505 0.930372 0.874475 0.213449
C70   C     C_3   0.897459 0.944747 0.105368 -0.699435
H36   H     H_    0.907155 0.836594 0.145407 0.203788
H37   H     H_    0.873900 0.066736 0.126450 0.234083
H38   H     H_    0.861099 0.879714 0.064395 0.201969
C71   C     C_3   0.396361 0.553641 0.604350 -0.747500
H39   H     H_    0.404666 0.663511 0.643846 0.226637
H40   H     H_    0.359824 0.615294 0.562703 0.212860
H41   H     H_    0.373487 0.430605 0.625533 0.213449
C72   C     C_3   0.602539 0.444550 0.394636 -0.699416
H42   H     H_    0.592831 0.336382 0.354604 0.203788
H43   H     H_    0.626115 0.566499 0.373546 0.234086
H44   H     H_    0.638889 0.379503 0.435613 0.201980

loop_
_geom_bond_atom_site_label_1
_geom_bond_atom_site_label_2
_ccdc_geom_bond_type
O17   V3    S    
C39   C43   A    
O1    C5    A    
C27   H7    S    
O19   V1    S    
O13   V1    S    
O3    C7    A    
C10   C30   A    
C40   C44   A    
O15   V3    S    
C13   C57   S    
C49   C50   A    
C53   H9    S    
C36   C43   A    
O7    C3    A    
C69   H34   S    
O9    V1    S    
C14   C18   A    
C24   H4    S    
C72   H43   S    
O16   V4    S    
O4    C8    A    
C60   H16   S    
C63   H19   S    
C47   C64   S    
C57   H13   S    
O1    V3    S    
C8    C18   S    
O2    V4    S    
C18   C22   A    
O3    V1    S    
C38   C49   A    
C9    C53   S    
C64   H20   S    
C65   H23   S    
C37   C50   A    
C61   O29   D    
C71   H40   S    
C5    C19   S    
C25   C29   A    
C1    O15   A    
C6    C20   S    
C2    O16   A    
C63   O31   D    
C27   C31   A    
C38   C42   A    
C66   H26   S    
C28   C32   A    
C37   C41   A    
O14   V2    S    
C21   H1    S    
C48   C52   A    
C67   H29   S    
C36   C47   A    
O11   C7    A    
C21   C25   A    
O12   C8    A    
C29   C30   S    
O10   V2    S    
C62   O30   D    
C62   H18   S    
C57   O25   D    
C71   H39   S    
C16   C60   S    
O5    V1    S    
C53   O21   D    
C37   C69   S    
C69   H35   S    
O7    V3    S    
O8    V4    S    
C12   C16   A    
C14   C58   S    
C61   H17   S    
C72   H44   S    
C55   H11   S    
C25   H5    S    
O18   V4    S    
C23   H3    S    
C26   C30   A    
C34   C41   A    
C4    C34   S    
O11   V3    S    
C9    C13   A    
C33   C42   A    
C28   H8    S    
C45   C62   S    
C11   C15   A    
C1    C35   S    
O5    C1    A    
C66   H25   S    
C55   O23   D    
C44   C67   S    
C46   C50   A    
C51   C52   A    
C48   C63   S    
C45   C49   A    
O8    C4    A    
C22   C26   A    
C58   O26   D    
O9    C5    A    
C59   O27   D    
C10   C54   S    
C56   O24   D    
C65   H21   S    
C68   H32   S    
O6    V2    S    
C54   O22   D    
C68   H30   S    
C70   H38   S    
C71   H41   S    
C23   C27   A    
C39   C52   A    
C26   H6    S    
C24   C28   A    
C34   C45   A    
C3    O13   A    
C38   C70   S    
C33   C46   A    
C39   C71   S    
C10   C14   A    
C35   C48   A    
O6    C2    A    
C15   C19   A    
C43   C68   S    
C15   C59   S    
C2    C36   S    
O12   V4    S    
C69   H33   S    
C22   H2    S    
C7    C17   S    
O2    C6    A    
O10   C6    A    
C70   H37   S    
C67   H27   S    
C20   C24   A    
C12   C32   A    
C70   H36   S    
C47   C51   A    
C66   H24   S    
C60   O28   D    
C41   C66   S    
O20   V2    S    
C58   H14   S    
C46   C61   S    
C13   C17   A    
C56   H12   S    
C64   O32   D    
C65   H22   S    
C40   C51   A    
C31   C32   S    
C12   C56   S    
C16   C20   A    
C42   C65   S    
C54   H10   S    
C9    C29   A    
C40   C72   S    
C4    O14   A    
C59   H15   S    
C68   H31   S    
C17   C21   A    
C11   C31   A    
C35   C44   A    
C72   H42   S    
C19   C23   A    
O4    V2    S    
C3    C33   S    
C67   H28   S    
C11   C55   S    
