data_mof_unit_pretest_1613.cif
_audit_creation_date              2012-12-10T18:44:30-0500
_audit_creation_method            fapswitch 2.2
_symmetry_space_group_name_H-M    P1
_symmetry_Int_Tables_number       1
_space_group_crystal_system       triclinic
_cell_length_a                    13.09979
_cell_length_b                    19.551217
_cell_length_c                    18.170301
_cell_angle_alpha                 90.063512
_cell_angle_beta                  95.972561
_cell_angle_gamma                 92.580162
_cell_volume                      4623.68804299

loop_
_atom_site_label
_atom_site_type_symbol
_atom_type_description
_atom_site_fract_x
_atom_site_fract_y
_atom_site_fract_z
_atom_type_partial_charge
C1    C     C_R   0.504732 0.367416 0.500322 0.842992
C2    C     C_R   0.495267 0.632584 0.499678 0.842993
C3    C     C_R   0.493152 0.853236 0.499234 -0.183922
C4    C     C_R   0.506848 0.146764 0.500766 -0.183922
C5    C     C_R   0.491517 0.817923 0.565765 0.543721
C6    C     C_R   0.508482 0.182077 0.434236 0.543722
C7    C     C_R   0.486986 0.746405 0.566425 -0.169786
C8    C     C_R   0.513013 0.253595 0.433575 -0.169786
C9    C     C_R   0.487598 0.708734 0.499207 -0.288426
C10   C     C_R   0.512402 0.291266 0.500793 -0.288427
C11   C     C_R   0.586601 0.965902 0.530589 -0.007009
C12   C     C_R   0.413399 0.034098 0.469412 -0.007007
C13   C     C_R   0.587762 0.037262 0.530889 -0.117359
C14   C     C_R   0.412238 0.962738 0.469112 -0.117359
C15   C     C_R   0.501852 0.071610 0.500445 0.161043
C16   C     C_R   0.498148 0.928390 0.499555 0.161044
C17   C     C_R   0.433296 0.456810 0.716884 -0.003655
C18   C     C_R   0.566703 0.543190 0.283116 -0.003656
C19   C     C_R   0.432115 0.456580 0.794290 0.453925
C20   C     C_R   0.567885 0.543420 0.205710 0.453925
C21   C     C_R   0.500151 0.500356 0.839102 -0.149768
C22   C     C_R   0.499849 0.499644 0.160898 -0.149768
C23   C     C_R   0.300457 0.501885 0.486232 0.850758
C24   C     C_R   0.699543 0.498115 0.513768 0.850758
C25   C     C_R   0.568812 0.543508 0.804359 0.463003
C26   C     C_R   0.431187 0.456492 0.195641 0.463003
C27   C     C_R   0.567959 0.542562 0.726766 0.002199
C28   C     C_R   0.432040 0.457438 0.273234 0.002199
C29   C     C_R   0.592183 0.495293 0.968297 -0.087097
C30   C     C_R   0.407816 0.504707 0.031703 -0.087097
C31   C     C_R   0.592041 0.494949 0.045577 -0.086031
C32   C     C_R   0.407959 0.505050 0.954423 -0.086031
C33   C     C_R   0.499857 0.499641 0.078370 0.190883
C34   C     C_R   0.500142 0.500359 0.921630 0.190883
C35   C     C_R   0.812253 0.494710 0.521989 -0.216217
C36   C     C_R   0.187747 0.505290 0.478011 -0.216217
C37   C     C_R   0.025094 0.519971 0.403620 -0.145722
C38   C     C_R   0.974906 0.480029 0.596380 -0.145722
C39   C     C_R   0.131845 0.520178 0.409212 -0.136096
C40   C     C_R   0.868155 0.479822 0.590788 -0.136096
C41   C     C_R   0.134297 0.493863 0.540632 0.586055
C42   C     C_R   0.865703 0.506136 0.459367 0.586055
C43   C     C_R   0.027476 0.493650 0.534465 -0.039582
C44   C     C_R   0.972524 0.506350 0.465535 -0.039581
C45   C     C_R   0.480377 0.745844 0.431455 -0.167654
C46   C     C_R   0.519624 0.254156 0.568545 -0.167653
C47   C     C_R   0.484991 0.817409 0.432300 0.546067
C48   C     C_R   0.515010 0.182591 0.567700 0.546066
Cu1   Cu    Cu3+1 0.499970 0.500000 0.573360 0.991554
Cu2   Cu    Cu3+1 0.500030 0.500000 0.426640 0.991554
H1    H     H_    0.664296 0.490626 0.944908 0.188014
H2    H     H_    0.335703 0.509374 0.055092 0.188014
H3    H     H_    0.664074 0.490138 0.079835 0.187529
H4    H     H_    0.335926 0.509862 0.920165 0.187529
H5    H     H_    0.983181 0.531219 0.350655 0.220763
H6    H     H_    0.016819 0.468781 0.649345 0.220763
H7    H     H_    0.655998 0.066358 0.554205 0.164314
H8    H     H_    0.344002 0.933642 0.445795 0.164314
N1    N     N_R   0.499990 0.500020 0.683620 -0.285176
N2    N     N_R   0.500010 0.499980 0.316380 -0.285176
O1    O     O_R   0.499960 0.400180 0.561970 -0.601441
O2    O     O_R   0.500040 0.599820 0.438030 -0.601442
O3    O     O_R   0.500010 0.400190 0.438070 -0.591761
O4    O     O_R   0.499990 0.599810 0.561930 -0.591762
O5    O     O_R   0.348980 0.499990 0.551890 -0.529305
O6    O     O_R   0.651020 0.500010 0.448110 -0.529305
O7    O     O_R   0.349030 0.499990 0.427990 -0.602053
O8    O     O_R   0.650970 0.500010 0.572010 -0.602053
F1    F     F_    0.814551 0.516700 0.391706 -0.665331
F2    F     F_    0.185449 0.483300 0.608294 -0.665330
C49   C     C_1   0.365468 0.408456 0.673879 0.554071
N3    N     N_1   0.311116 0.368976 0.639971 -0.225060
C50   C     C_1   0.634532 0.591544 0.326121 0.554071
N4    N     N_1   0.688884 0.631024 0.360029 -0.225061
F3    F     F_    0.367052 0.412017 0.825795 -0.626812
F4    F     F_    0.632948 0.587983 0.174205 -0.626812
F5    F     F_    0.635010 0.587541 0.845507 -0.625907
F6    F     F_    0.364990 0.412459 0.154493 -0.625907
C51   C     C_1   0.640565 0.587337 0.693844 0.467405
N5    N     N_1   0.699228 0.623551 0.667946 -0.260381
C52   C     C_1   0.359435 0.412663 0.306156 0.467406
N6    N     N_1   0.300772 0.376449 0.332053 -0.260381
C53   C     C_1   0.819450 0.461233 0.656219 0.338050
N7    N     N_1   0.780872 0.446088 0.708701 -0.247805
C54   C     C_1   0.180550 0.538767 0.343781 0.338050
N8    N     N_1   0.219128 0.553912 0.291299 -0.247805
C55   C     C_1   0.461272 0.713023 0.359683 0.432171
N9    N     N_1   0.444964 0.687393 0.301951 -0.237956
C56   C     C_1   0.538729 0.286977 0.640317 0.432171
N10   N     N_1   0.555037 0.312607 0.698049 -0.237956
F7    F     F_    0.481386 0.852537 0.367534 -0.617465
F8    F     F_    0.518615 0.147463 0.632466 -0.617465
F9    F     F_    0.491884 0.853583 0.630176 -0.617727
F10   F     F_    0.508114 0.146417 0.369824 -0.617726
C57   C     C_1   0.474604 0.714386 0.636806 0.448295
N11   N     N_1   0.463540 0.689596 0.693405 -0.229922
C58   C     C_1   0.525395 0.285614 0.363193 0.448295
N12   N     N_1   0.536458 0.310404 0.306595 -0.229922
C59   C     C_1   0.677408 0.932258 0.560911 0.334871
N13   N     N_1   0.750121 0.905249 0.585198 -0.205255
C60   C     C_1   0.322591 0.067742 0.439092 0.334870
N14   N     N_1   0.249877 0.094751 0.414806 -0.205257

loop_
_geom_bond_atom_site_label_1
_geom_bond_atom_site_label_2
_ccdc_geom_bond_type
C38   C40   A    
C55   N9    T    
C9    C45   A    
C60   N14   T    
Cu1   O8    S    
C50   N4    T    
C57   N11   T    
C43   C44   A    
C52   N6    T    
C46   C56   S    
C54   N8    T    
C26   F6    S    
Cu1   O5    S    
C25   F5    S    
C19   C21   A    
C27   C51   S    
C29   H1    S    
C8    C10   A    
C13   H7    S    
C20   F4    S    
C11   C59   S    
C23   O7    A    
Cu1   Cu2   S    
C35   C42   A    
C30   H2    S    
C53   N7    T    
C6    F10   S    
C10   C46   A    
C31   C33   A    
Cu2   O7    S    
C24   O6    A    
C45   C47   A    
Cu1   O4    S    
Cu2   O3    S    
C41   C43   A    
C40   C53   S    
C36   C41   A    
C42   C44   A    
C1    O3    A    
C32   H4    S    
C2    O4    A    
C58   N12   T    
C28   N2    A    
C14   H8    S    
C46   C48   A    
C24   C35   S    
Cu1   O1    S    
C4    C6    A    
C5    C7    A    
C6    C8    A    
C21   C34   S    
C29   C34   A    
C42   F1    S    
C32   C34   A    
C8    C58   S    
C11   C16   A    
C59   N13   T    
C12   C15   A    
C38   H6    S    
C31   H3    S    
Cu2   O6    S    
C17   N1    A    
C18   N2    A    
C12   C14   A    
C17   C49   S    
C18   C50   S    
C13   C15   A    
C48   F8    S    
Cu2   O2    S    
C14   C16   A    
C39   C54   S    
C4    C48   A    
C7    C9    A    
C22   C33   S    
C21   C25   A    
C30   C33   A    
C45   C55   S    
C28   C52   S    
C47   F7    S    
C36   C39   A    
C1    C10   S    
C20   C22   A    
C3    C5    A    
C1    O1    A    
C5    F9    S    
C25   C27   A    
C7    C57   S    
C26   C28   A    
Cu1   N1    S    
Cu2   N2    S    
C23   O5    A    
C37   C44   A    
C19   F3    S    
C35   C40   A    
C38   C43   A    
C37   C39   A    
C27   N1    A    
C30   C32   A    
C11   C13   A    
C4    C15   S    
C3    C47   A    
C17   C19   A    
C18   C20   A    
C24   O8    A    
C51   N5    T    
C37   H5    S    
C12   C60   S    
C49   N3    T    
C29   C31   A    
C23   C36   S    
C22   C26   A    
C56   N10   T    
C2    C9    S    
C3    C16   S    
C2    O2    A    
C41   F2    S    
