data_mof_unit_pretest_1151.cif
_audit_creation_date              2012-12-11T15:21:33-0500
_audit_creation_method            fapswitch 2.2
_symmetry_space_group_name_H-M    P1
_symmetry_Int_Tables_number       1
_space_group_crystal_system       triclinic
_cell_length_a                    19.024353
_cell_length_b                    7.295325
_cell_length_c                    17.993299
_cell_angle_alpha                 90.027413
_cell_angle_beta                  108.442939
_cell_angle_gamma                 89.977349
_cell_volume                      2369.00694793

loop_
_atom_site_label
_atom_site_type_symbol
_atom_type_description
_atom_site_fract_x
_atom_site_fract_y
_atom_site_fract_z
_atom_type_partial_charge
O1    O     O_R   0.562310 0.505770 0.439670 -0.529077
O2    O     O_R   0.437690 0.005770 0.560330 -0.537559
O3    O     O_R   0.411650 0.169150 0.405330 -0.515683
O4    O     O_R   0.588350 0.669150 0.594670 -0.506910
C1    C     C_R   0.387483 0.347021 0.380732 0.694579
C2    C     C_R   0.612146 0.846899 0.619607 0.748766
O5    O     O_R   0.560140 0.175610 0.430010 -0.521641
O6    O     O_R   0.439860 0.675610 0.569990 -0.523196
O7    O     O_R   0.587240 0.012100 0.585200 -0.552261
O8    O     O_R   0.412760 0.512100 0.414800 -0.554050
C3    C     C_R   0.579491 0.345132 0.413683 0.715588
C4    C     C_R   0.420456 0.845052 0.586286 0.699792
O9    O     O_3   0.508720 0.341420 0.550890 -0.385371
O10   O     O_3   0.491280 0.841420 0.449110 -0.384218
V1    V     V_3+5 0.498380 0.063930 0.490560 1.435005
V2    V     V_3+5 0.501620 0.563930 0.509440 1.446230
C5    C     C_R   0.180425 0.059229 0.867943 -0.176947
C6    C     C_R   0.819357 0.559131 0.131915 -0.177286
C7    C     C_R   0.130200 0.917324 0.866212 -0.079028
C8    C     C_R   0.869866 0.417616 0.133911 -0.078888
C9    C     C_R   0.127750 0.764908 0.817854 -0.218447
C10   C     C_R   0.872755 0.265937 0.182740 -0.218586
C11   C     C_R   0.173285 0.754975 0.769420 0.010208
C12   C     C_R   0.827380 0.256416 0.231373 0.010782
C13   C     C_R   0.226511 0.895166 0.774743 0.041488
C14   C     C_R   0.773812 0.396021 0.225696 0.041296
C15   C     C_R   0.229376 0.047212 0.823838 0.095739
C16   C     C_R   0.770533 0.547374 0.176180 0.095197
C17   C     C_R   0.168068 0.607712 0.716495 0.308733
C18   C     C_R   0.833128 0.110253 0.284907 0.309742
C19   C     C_R   0.216122 0.600895 0.671996 -0.113468
C20   C     C_R   0.785299 0.104023 0.329697 -0.116038
C21   C     C_R   0.269610 0.737513 0.677764 -0.014460
C22   C     C_R   0.731429 0.239954 0.323502 -0.012724
C23   C     C_R   0.276450 0.884028 0.730655 -0.089290
C24   C     C_R   0.723986 0.385108 0.269919 -0.090859
C25   C     C_R   0.331997 0.020212 0.738374 0.080812
C26   C     C_R   0.668083 0.520549 0.261832 0.080395
C27   C     C_R   0.330117 0.179622 0.784277 0.161631
C28   C     C_R   0.669745 0.679707 0.215795 0.161999
C29   C     C_R   0.279813 0.188203 0.826981 -0.170042
C30   C     C_R   0.719907 0.688129 0.172914 -0.171453
C31   C     C_R   0.312881 0.734771 0.627543 0.276284
C32   C     C_R   0.688381 0.238190 0.373968 0.275994
C33   C     C_R   0.372732 0.857177 0.638665 -0.154752
C34   C     C_R   0.627516 0.357877 0.361670 -0.157710
C35   C     C_R   0.385940 0.990794 0.699058 0.096601
C36   C     C_R   0.614024 0.490652 0.300943 0.097400
H1    H     H_    0.182774 0.177238 0.905334 0.121127
H2    H     H_    0.816712 0.676626 0.094218 0.120994
H3    H     H_    0.089658 0.655472 0.818480 0.134234
H4    H     H_    0.911101 0.156845 0.182357 0.133686
H5    H     H_    0.210692 0.487095 0.631818 0.198628
H6    H     H_    0.791165 0.991229 0.370403 0.194567
H7    H     H_    0.279102 0.308302 0.862329 0.122514
H8    H     H_    0.720396 0.807976 0.137398 0.122576
C37   C     C_3   0.758622 0.763553 0.829566 0.085432
C38   C     C_3   0.241150 0.263292 0.171084 0.085987
H9    H     H_    0.734060 0.829323 0.871785 0.066668
H10   H     H_    0.266197 0.328432 0.129157 0.066785
C39   C     C_3   0.694095 0.712017 0.752015 0.037324
C40   C     C_3   0.305142 0.212097 0.249079 0.056073
H11   H     H_    0.709181 0.590045 0.724580 0.178055
H12   H     H_    0.289799 0.091151 0.276887 0.170457
C41   C     C_3   0.830702 0.861256 0.732180 0.253636
C42   C     C_3   0.168369 0.362367 0.267473 0.274020
C43   C     C_3   0.764444 0.090178 0.798151 -0.084320
C44   C     C_3   0.235420 0.590289 0.201864 -0.086380
C45   C     C_3   0.812983 0.912009 0.811432 -0.036948
C46   C     C_3   0.186735 0.412272 0.188597 -0.055006
H13   H     H_    0.759696 0.129766 0.856405 0.118842
H14   H     H_    0.240521 0.628998 0.143680 0.120093
C47   C     C_3   0.683422 0.870555 0.691321 -0.064035
C48   C     C_3   0.315827 0.371538 0.309468 -0.118076
C49   C     C_3   0.753734 0.864878 0.661106 0.540973
C50   C     C_3   0.244667 0.368756 0.339291 0.573372
C51   C     C_3   0.683717 0.051661 0.742162 -0.076822
C52   C     C_3   0.315993 0.551695 0.258279 -0.064467
H15   H     H_    0.651251 0.018390 0.781961 0.113191
H16   H     H_    0.348689 0.517376 0.218811 0.115845
O11   O     O_R   0.087220 0.271820 0.085230 -0.501384
O12   O     O_R   0.912780 0.771820 0.914770 -0.501134
O13   O     O_R   0.939860 0.595540 0.069990 -0.536122
O14   O     O_R   0.060140 0.095540 0.930010 -0.536394
C53   C     C_R   0.919148 0.426879 0.084500 0.691213
C54   C     C_R   0.080846 0.926802 0.915513 0.691500
O15   O     O_R   0.088340 0.601930 0.094680 -0.546893
O16   O     O_R   0.911660 0.101930 0.905320 -0.547069
O17   O     O_R   0.062310 0.765410 0.939660 -0.543387
O18   O     O_R   0.937690 0.265410 0.060340 -0.543198
C55   C     C_R   0.115809 0.431902 0.116970 0.714787
C56   C     C_R   0.884211 0.931851 0.882903 0.712358
O19   O     O_3   0.991270 0.429630 0.949130 -0.376511
O20   O     O_3   0.008730 0.929630 0.050870 -0.376663
V3    V     V_3+5 0.001620 0.707150 0.009440 1.438586
V4    V     V_3+5 0.998380 0.207150 0.990560 1.438326
O21   O     O_3   0.627196 0.667269 0.766123 -0.659926
H17   H     H_    0.620574 0.745724 0.808294 0.278769
O22   O     O_3   0.372128 0.165745 0.235435 -0.656397
H18   H     H_    0.379418 0.244192 0.193627 0.278260
C57   C     C_3   0.868121 0.670238 0.740004 -0.719160
H19   H     H_    0.829947 0.566916 0.745197 0.229590
H20   H     H_    0.883622 0.632456 0.687400 0.196010
H21   H     H_    0.919617 0.661520 0.790564 0.219594
C58   C     C_3   0.131644 0.170626 0.260374 -0.683648
H22   H     H_    0.170101 0.067360 0.255683 0.221396
H23   H     H_    0.116528 0.134428 0.313411 0.220239
H24   H     H_    0.080225 0.160010 0.209770 0.206774
O23   O     O_3   0.748029 0.707008 0.613643 -0.680107
H25   H     H_    0.781869 0.723866 0.581964 0.307780
O24   O     O_3   0.248211 0.213027 0.387454 -0.663823
H26   H     H_    0.283863 0.236156 0.440284 0.291663
C59   C     C_3   0.798025 0.255210 0.770954 -0.698145
H27   H     H_    0.771505 0.369327 0.788627 0.228202
H28   H     H_    0.858235 0.273735 0.797587 0.235656
H29   H     H_    0.782977 0.267109 0.706762 0.243950
C60   C     C_3   0.201828 0.756409 0.228420 -0.701990
H30   H     H_    0.229313 0.869717 0.211640 0.228965
H31   H     H_    0.141893 0.777089 0.200715 0.236818
H32   H     H_    0.215835 0.768675 0.292462 0.242989
C61   C     C_3   0.641614 0.226991 0.704624 -0.614098
H33   H     H_    0.659453 0.279794 0.655611 0.239657
H34   H     H_    0.581138 0.204969 0.684723 0.214201
H35   H     H_    0.649243 0.333212 0.750272 0.214579
C62   C     C_3   0.358108 0.727186 0.295633 -0.618427
H36   H     H_    0.340094 0.780743 0.344433 0.231285
H37   H     H_    0.418593 0.705072 0.315619 0.217801
H38   H     H_    0.350699 0.832899 0.249864 0.215824
C63   C     C_3   0.891274 0.985827 0.715150 -0.662299
H39   H     H_    0.940645 0.000728 0.767954 0.170040
H40   H     H_    0.910805 0.924877 0.668509 0.205005
H41   H     H_    0.873636 0.123197 0.691852 0.227496
C64   C     C_3   0.106594 0.486090 0.282803 -0.634923
H42   H     H_    0.056703 0.493879 0.230170 0.158405
H43   H     H_    0.088400 0.428427 0.330940 0.216055
H44   H     H_    0.122447 0.626499 0.303018 0.223075
O25   O     O_3   0.751089 0.020592 0.614509 -0.660808
H45   H     H_    0.710192 0.999356 0.565458 0.312827
O26   O     O_3   0.244354 0.526881 0.383823 -0.651015
H46   H     H_    0.292427 0.532996 0.425416 0.288671
O27   O     O_3   0.116522 0.468861 0.705211 -0.637864
H47   H     H_    0.069756 0.521132 0.708860 0.286925
O28   O     O_3   0.885035 0.972075 0.296583 -0.638123
H48   H     H_    0.931565 0.024562 0.292434 0.287527
O29   O     O_3   0.292724 0.619186 0.564271 -0.641733
H49   H     H_    0.291222 0.698430 0.519233 0.288981
O30   O     O_3   0.709741 0.126461 0.438451 -0.646524
H50   H     H_    0.707878 0.205015 0.482693 0.289599
C65   C     C_3   0.462399 0.074219 0.729637 -0.744810
H51   H     H_    0.504383 0.985286 0.716658 0.185229
H52   H     H_    0.463499 0.210623 0.702950 0.224280
H53   H     H_    0.480684 0.082327 0.794484 0.199121
C66   C     C_3   0.537447 0.573462 0.270138 -0.746152
H54   H     H_    0.495516 0.484292 0.283031 0.186437
H55   H     H_    0.536099 0.709892 0.296764 0.224660
H56   H     H_    0.519343 0.581561 0.205293 0.199007
C67   C     C_3   0.373194 0.352640 0.782214 -0.759921
H57   H     H_    0.370002 0.385555 0.721045 0.233202
H58   H     H_    0.349759 0.472831 0.804170 0.199891
H59   H     H_    0.431434 0.340232 0.820343 0.206636
C68   C     C_3   0.626783 0.852840 0.218156 -0.759639
H60   H     H_    0.629993 0.885359 0.279387 0.232313
H61   H     H_    0.650349 0.973100 0.196453 0.200145
H62   H     H_    0.568523 0.840789 0.180029 0.206555
O31   O     O_3   0.795013 0.607363 0.868177 -0.638036
H63   H     H_    0.761091 0.546462 0.892659 0.286601
O32   O     O_3   0.204793 0.107224 0.132323 -0.638572
H64   H     H_    0.238674 0.046539 0.107688 0.286092

loop_
_geom_bond_atom_site_label_1
_geom_bond_atom_site_label_2
_ccdc_geom_bond_type
C38   C40   S    
C18   C20   A    
C36   C66   S    
O16   V4    S    
O4    V2    S    
C57   H19   S    
C64   H42   S    
O15   C55   A    
O30   H50   S    
O1    C3    A    
C41   C57   S    
C7    C54   S    
O2    C4    A    
C2    O7    A    
C68   H60   S    
C65   H51   S    
C27   C29   A    
O5    C3    A    
C58   H23   S    
O31   H63   S    
C48   C50   S    
C11   C17   A    
C23   C25   A    
O14   C54   A    
C63   H39   S    
C65   H52   S    
O29   H49   S    
C52   H16   S    
C37   H9    S    
C37   O31   S    
C38   H10   S    
O28   H48   S    
C32   O30   S    
O12   C56   A    
C6    C8    A    
C63   H40   S    
O14   V4    S    
C16   C30   A    
C1    C48   S    
C39   H11   S    
C29   H7    S    
C61   H35   S    
C40   H12   S    
C30   H8    S    
C67   H57   S    
O16   C56   A    
C43   C51   S    
C64   H44   S    
C19   C21   A    
O2    V1    S    
C25   C35   A    
C45   C56   S    
C26   C36   A    
C44   H14   S    
C59   H29   S    
C51   H15   S    
C42   C50   S    
C57   H20   S    
C27   C67   S    
C17   C19   A    
C47   C49   S    
C20   H6    S    
C68   H61   S    
C32   C34   A    
O21   H17   S    
C33   C35   A    
C44   C52   S    
C17   O27   S    
C58   H24   S    
C34   C36   A    
C49   O23   S    
C5    C15   A    
C35   C65   S    
C6    C16   A    
O4    C2    A    
C49   O25   S    
C65   H53   S    
C5    H1    S    
O32   H64   S    
O11   V4    S    
C38   C46   S    
C39   C47   S    
C21   C31   A    
C18   O28   S    
O15   V3    S    
C43   C45   S    
C20   C22   A    
O17   V3    S    
C31   O29   S    
C44   C60   S    
C62   H38   S    
C42   C64   S    
C15   C29   A    
O22   H18   S    
O6    C4    A    
O13   V3    S    
C8    C53   S    
C22   C32   A    
O1    V2    S    
C19   H5    S    
C66   H56   S    
C37   C39   S    
C38   O32   S    
C31   C33   A    
C46   C55   S    
C61   H33   S    
C13   C23   A    
C44   C46   S    
O13   C53   A    
C8    C10   A    
O19   V4    S    
C9    C11   A    
C62   H36   S    
C10   C12   A    
C60   H32   S    
C67   H58   S    
C66   H55   S    
C42   C58   S    
C5    C7    A    
C24   C26   A    
C9    H3    S    
C68   H62   S    
O3    V1    S    
C6    H2    S    
C2    C47   S    
C10   H4    S    
C59   H27   S    
C58   H22   S    
C50   O26   S    
C14   C24   A    
O12   V3    S    
O24   H26   S    
C7    C9    A    
C39   O21   S    
C12   C14   A    
C28   C30   A    
O3    C1    A    
C54   O17   A    
C41   C63   S    
O26   H46   S    
O18   V4    S    
C4    C33   S    
C67   H59   S    
O25   H45   S    
C14   C16   A    
C41   C49   S    
C53   O18   A    
C63   H41   S    
C60   H31   S    
C43   C59   S    
C28   C68   S    
C25   C27   A    
O8    V2    S    
O27   H47   S    
C26   C28   A    
C42   C46   S    
C50   O24   S    
C41   C45   S    
O5    V1    S    
C21   C23   A    
C22   C24   A    
C43   H13   S    
C11   C13   A    
O7    V1    S    
O20   V3    S    
C12   C18   A    
C61   H34   S    
C51   C61   S    
C40   O22   S    
O11   C55   A    
C1    O8    A    
O6    V2    S    
C48   C52   S    
O9    V2    S    
O23   H25   S    
C62   H37   S    
C64   H43   S    
C47   C51   S    
O10   V1    S    
C40   C48   S    
C3    C34   S    
C57   H21   S    
C37   C45   S    
C66   H54   S    
C60   H30   S    
C52   C62   S    
C59   H28   S    
C13   C15   A    
