data_mof_unit_pretest_1303.cif
_audit_creation_date              2012-12-11T15:39:00-0500
_audit_creation_method            fapswitch 2.2
_symmetry_space_group_name_H-M    P1
_symmetry_Int_Tables_number       1
_space_group_crystal_system       triclinic
_cell_length_a                    14.340128
_cell_length_b                    14.788349
_cell_length_c                    33.218449
_cell_angle_alpha                 97.630541
_cell_angle_beta                  90.367983
_cell_angle_gamma                 118.916516
_cell_volume                      6091.36634552

loop_
_atom_site_label
_atom_site_type_symbol
_atom_type_description
_atom_site_fract_x
_atom_site_fract_y
_atom_site_fract_z
_atom_type_partial_charge
C1    C     C_R   0.616892 0.910296 0.436996 0.543461
C2    C     C_R   0.741898 0.420980 0.187240 0.039276
C3    C     C_R   0.715310 0.887632 0.653468 -0.114775
C4    C     C_R   0.645788 0.782564 0.656975 0.063182
C5    C     C_R   0.634910 0.860423 0.585417 0.019181
C6    C     C_R   0.052177 0.781358 0.063773 0.545899
C7    C     C_R   0.743980 0.486680 0.066194 0.580119
C8    C     C_R   0.743016 0.789233 0.066435 0.548593
C9    C     C_R   0.021133 0.731813 0.947255 0.538111
C10   C     C_R   0.712294 0.437919 0.949175 0.535254
C11   C     C_R   0.740363 0.717971 0.945192 0.578266
C12   C     C_R   0.835211 0.453182 0.166748 0.429503
C13   C     C_R   0.833439 0.467167 0.126166 -0.150551
C14   C     C_R   0.772216 0.345899 0.245425 0.397786
C15   C     C_R   0.764910 0.333801 0.286336 -0.093092
C16   C     C_R   0.729523 0.390468 0.313198 -0.089225
C17   C     C_R   0.706167 0.463002 0.298964 -0.092184
C18   C     C_R   0.713356 0.475284 0.258051 0.333238
C19   C     C_R   0.744183 0.415042 0.230915 0.071896
C20   C     C_R   0.606484 0.346010 0.368702 -0.108766
C21   C     C_R   0.594088 0.205666 0.456674 0.537288
C22   C     C_R   0.572874 0.300317 0.403672 -0.108605
C23   C     C_R   0.739534 0.297684 0.412298 -0.120860
C24   C     C_R   0.773113 0.343455 0.377361 -0.104104
C25   C     C_R   0.705068 0.364091 0.354428 0.037449
C26   C     C_R   0.637318 0.271840 0.424786 0.019004
C27   C     C_R   0.243947 0.877646 0.393196 0.028570
C28   C     C_R   0.228417 0.957657 0.380790 0.322616
C29   C     C_R   0.204745 0.955472 0.339692 -0.100068
C30   C     C_R   0.195068 0.873534 0.310573 -0.083929
C31   C     C_R   0.202087 0.790044 0.322771 -0.074630
C32   C     C_R   0.295439 0.892722 0.434317 0.578927
C33   C     C_R   0.225894 0.791404 0.363743 0.320024
C34   C     C_R   0.195900 0.808051 0.163136 0.415355
C35   C     C_R   0.167874 0.786584 0.121288 -0.076133
C36   C     C_R   0.090246 0.901015 0.129531 -0.138964
C37   C     C_R   0.117788 0.921998 0.171481 -0.170889
C38   C     C_R   0.167069 0.872528 0.188476 0.046728
C39   C     C_1   0.177569 0.878208 0.231880 0.065779
C40   C     C_1   0.184694 0.877587 0.267941 0.025675
C41   C     C_R   0.110539 0.829131 0.104349 -0.037675
C42   C     C_R   0.637396 0.878688 0.395468 0.012014
C43   C     C_R   0.614030 0.904706 0.551440 0.545779
C44   C     C_R   0.552552 0.800139 0.368398 -0.118279
C45   C     C_R   0.564821 0.787894 0.326716 -0.092597
C46   C     C_R   0.662015 0.853310 0.311823 0.041217
C47   C     C_R   0.749063 0.926394 0.338786 -0.105344
C48   C     C_R   0.737008 0.938956 0.380441 -0.116018
C49   C     C_R   0.779002 0.919809 0.174809 -0.094296
C50   C     C_R   0.794056 0.906855 0.133389 -0.114184
C51   C     C_R   0.618756 0.752377 0.121602 -0.102124
C52   C     C_R   0.603816 0.765699 0.162936 -0.072901
C53   C     C_R   0.685407 0.847151 0.189734 0.043755
C54   C     C_R   0.589865 0.199666 0.570867 0.565787
C55   C     C_1   0.676852 0.850232 0.232752 0.017455
C56   C     C_1   0.670182 0.851034 0.268809 0.014486
C57   C     C_R   0.715838 0.820319 0.106729 0.016471
C58   C     C_R   0.624137 0.251036 0.613709 0.023106
C59   C     C_R   0.566182 0.292629 0.635833 0.440335
C60   C     C_R   0.583573 0.317852 0.678243 -0.022195
C61   C     C_R   0.658695 0.302282 0.698858 -0.021765
C62   C     C_R   0.721943 0.268537 0.676992 -0.132214
C63   C     C_R   0.705283 0.243597 0.634657 -0.186087
C64   C     C_R   0.763067 0.347457 0.844783 -0.109539
C65   C     C_R   0.289229 0.886888 0.548627 0.564849
C66   C     C_R   0.772462 0.372565 0.887150 -0.120655
C67   C     C_R   0.593463 0.350611 0.884876 -0.123686
C68   C     C_R   0.584353 0.325582 0.842514 -0.109110
C69   C     C_R   0.670578 0.327768 0.822402 0.038283
C70   C     C_1   0.667432 0.318518 0.778880 -0.013549
C71   C     C_1   0.664557 0.312301 0.742412 -0.011471
C72   C     C_R   0.689591 0.379193 0.907474 0.022160
C73   C     C_R   0.064478 0.751516 0.907569 0.018064
C74   C     C_R   0.088921 0.845593 0.893784 -0.069537
C75   C     C_R   0.104149 0.854665 0.852891 -0.068713
C76   C     C_R   0.738727 0.449888 0.105627 -0.041524
C77   C     C_R   0.096158 0.770134 0.825411 0.027253
C78   C     C_R   0.079986 0.679055 0.839771 -0.120987
C79   C     C_R   0.064422 0.669825 0.880629 -0.126676
C80   C     C_R   0.161481 0.740773 0.758490 -0.070864
C81   C     C_R   0.167950 0.748489 0.717242 0.390664
C82   C     C_R   0.112337 0.790369 0.698559 0.063148
C83   C     C_R   0.048366 0.821897 0.721341 -0.095602
C84   C     C_R   0.042337 0.814392 0.762669 -0.121072
C85   C     C_R   0.100152 0.775239 0.781596 -0.041307
C86   C     C_R   0.177753 0.914835 0.648802 0.417141
C87   C     C_R   0.643862 0.411471 0.125692 0.370414
C88   C     C_R   0.222180 0.939283 0.611930 0.414214
C89   C     C_R   0.164948 0.755777 0.589265 -0.187520
C90   C     C_R   0.120254 0.731538 0.625978 -0.129103
C91   C     C_R   0.131427 0.811506 0.656672 0.000049
C92   C     C_R   0.221140 0.860343 0.582784 -0.034734
C93   C     C_R   0.714510 0.706629 0.900952 -0.037420
C94   C     C_R   0.619378 0.622713 0.880663 -0.206558
C95   C     C_R   0.596042 0.616090 0.838952 -0.200275
C96   C     C_R   0.668028 0.692744 0.817245 -0.027345
C97   C     C_R   0.764905 0.773233 0.836884 0.416375
C98   C     C_R   0.645912 0.397458 0.166250 -0.086684
C99   C     C_R   0.788484 0.779918 0.878119 0.404488
C100  C     C_R   0.618518 0.777963 0.769070 -0.074466
C101  C     C_R   0.617703 0.802780 0.730209 -0.147642
C102  C     C_R   0.638224 0.747797 0.696955 0.033990
C103  C     C_R   0.653775 0.663289 0.702738 0.395368
C104  C     C_R   0.655622 0.639076 0.742029 -0.059541
C105  C     C_R   0.640330 0.698072 0.775377 0.005692
C106  C     C_R   0.575717 0.714954 0.623585 -0.046708
C107  C     C_R   0.569915 0.753727 0.588095 -0.115328
C108  C     C_R   0.710487 0.926198 0.617840 -0.116571
Cr1   Cr    Cr6+3 0.424820 0.846020 0.489780 1.063676
Cr2   Cr    Cr6+3 0.657880 0.078580 0.505700 1.027612
Cr3   Cr    Cr6+3 0.417280 0.075360 0.504550 1.174945
Cr4   Cr    Cr6+3 0.903360 0.812540 0.006510 1.072689
Cr5   Cr    Cr6+3 0.914630 0.587050 0.006280 1.026129
Cr6   Cr    Cr6+3 0.673560 0.582680 0.008540 1.064918
H1    H     H_    0.791553 0.277890 0.428324 0.137048
H2    H     H_    0.184577 0.731083 0.102590 0.160194
H3    H     H_    0.193406 0.725640 0.300309 0.189166
H4    H     H_    0.095154 0.971963 0.190863 0.129687
H5    H     H_    0.907799 0.497205 0.111622 0.175047
H6    H     H_    0.869855 0.960052 0.122891 0.136790
H7    H     H_    0.842493 0.983243 0.195448 0.132422
H8    H     H_    0.824766 0.976938 0.327448 0.124967
H9    H     H_    0.803852 0.999935 0.400519 0.144912
H10   H     H_    0.474752 0.752842 0.378976 0.179535
H11   H     H_    0.530942 0.709382 0.174281 0.155489
H12   H     H_    0.557021 0.685159 0.101774 0.152512
H13   H     H_    0.847624 0.394359 0.903571 0.133986
H14   H     H_    0.850185 0.358305 0.367203 0.131882
H15   H     H_    0.512266 0.310008 0.825342 0.124832
H16   H     H_    0.528296 0.355220 0.899506 0.135953
H17   H     H_    0.090667 0.910096 0.914140 0.174485
H18   H     H_    0.083435 0.651317 0.631542 0.176082
H19   H     H_    0.781400 0.275946 0.296495 0.148581
H20   H     H_    0.119082 0.926530 0.842483 0.147652
H21   H     H_    0.005072 0.854224 0.707308 0.174452
H22   H     H_    0.993094 0.839679 0.779915 0.203614
H23   H     H_    0.073530 0.612914 0.819013 0.114328
H24   H     H_    0.161150 0.693336 0.566969 0.165648
H25   H     H_    0.770233 0.940782 0.679014 0.129782
H26   H     H_    0.603981 0.867060 0.726204 0.136292
H27   H     H_    0.607946 0.824889 0.794669 0.144263
H28   H     H_    0.520845 0.553470 0.823980 0.145634
H29   H     H_    0.674507 0.578424 0.746736 0.129912
H30   H     H_    0.521234 0.633838 0.625848 0.172897
H31   H     H_    0.511258 0.701186 0.563419 0.137251
H32   H     H_    0.572987 0.370664 0.181701 0.173258
H33   H     H_    0.761212 0.008680 0.616678 0.136549
H34   H     H_    0.679749 0.508113 0.319311 0.154392
H35   H     H_    0.552178 0.360489 0.351348 0.122973
O1    O     O_R   0.318160 0.824460 0.443680 -0.453417
O2    O     O_R   0.645130 0.163230 0.552140 -0.525580
O3    O     O_R   0.498360 0.178430 0.555780 -0.400279
O4    O     O_R   0.328690 0.978040 0.538950 -0.429914
O5    O     O_3   0.499990 0.999990 0.500010 -0.280260
O6    O     O_R   0.828710 0.851830 0.052170 -0.511989
O7    O     O_R   0.005980 0.823990 0.047210 -0.497956
O8    O     O_R   0.031900 0.688850 0.050170 -0.510794
O9    O     O_R   0.830940 0.518420 0.048680 -0.514180
O10   O     O_R   0.668160 0.499860 0.053480 -0.424303
O11   O     O_R   0.689170 0.693840 0.050110 -0.493033
O12   O     O_R   0.525040 0.857250 0.449830 -0.496897
O13   O     O_R   0.803860 0.812940 0.962540 -0.427485
O14   O     O_R   0.982950 0.787950 0.964120 -0.488031
O15   O     O_R   0.007050 0.649970 0.960540 -0.519764
O16   O     O_R   0.807910 0.482370 0.965590 -0.503646
O17   O     O_R   0.643310 0.460980 0.963840 -0.520687
O18   O     O_R   0.666140 0.657800 0.967020 -0.509987
O19   O     O_3   0.830520 0.660760 0.007110 -0.284399
O20   O     O_R   0.684760 0.998800 0.456360 -0.511682
O21   O     O_R   0.647540 0.166310 0.470260 -0.509328
O22   O     O_R   0.500960 0.181750 0.467450 -0.484879
O23   O     O_R   0.331100 0.981120 0.457080 -0.445414
O24   O     O_R   0.315560 0.821140 0.532010 -0.524608
O25   O     O_R   0.522630 0.854180 0.531710 -0.499187
O26   O     O_R   0.682160 0.995480 0.544690 -0.510486
F1    F     F_    0.550063 0.391215 0.106783 -0.593769
H36   H     H_    0.493919 0.281747 0.412709 0.168229
F2    F     F_    0.929140 0.476965 0.186642 -0.559454
F3    F     F_    0.244405 0.760125 0.179219 -0.605028
F4    F     F_    0.237403 0.711179 0.373879 -0.612819
F5    F     F_    0.241578 0.041029 0.407869 -0.611176
H37   H     H_    0.045337 0.934269 0.117452 0.147739
H38   H     H_    0.198016 0.019787 0.330441 0.154830
H39   H     H_    0.497144 0.730818 0.305962 0.148528
H40   H     H_    0.830049 0.348878 0.829387 0.118171
H41   H     H_    0.780659 0.256762 0.692771 0.137514
H42   H     H_    0.751362 0.212018 0.618694 0.148123
F6    F     F_    0.489092 0.303896 0.616894 -0.554252
H43   H     H_    0.535171 0.345165 0.695105 0.156431
H44   H     H_    0.045207 0.596159 0.890417 0.133458
F7    F     F_    0.233242 0.720542 0.696145 -0.634782
H45   H     H_    0.207188 0.711094 0.772677 0.137279
F8    F     F_    0.189652 0.993526 0.678266 -0.586832
F9    F     F_    0.274383 0.041149 0.606549 -0.540766
H46   H     H_    0.562262 0.563693 0.897113 0.157349
F10   F     F_    0.800679 0.285872 0.219593 -0.584598
F11   F     F_    0.883385 0.859920 0.895705 -0.599525
F12   F     F_    0.673640 0.608864 0.670979 -0.626060
F13   F     F_    0.835474 0.847875 0.816198 -0.621717
F14   F     F_    0.688394 0.544502 0.244736 -0.628230

loop_
_geom_bond_atom_site_label_1
_geom_bond_atom_site_label_2
_ccdc_geom_bond_type
C65   C92   S    
C12   F2    S    
C21   C26   S    
C101  C102  A    
C73   C74   A    
C97   F13   S    
C95   C96   A    
C55   C56   T    
C2    C12   A    
Cr3   O3    S    
C48   H9    S    
C81   C82   A    
C34   F3    S    
C75   H20   S    
Cr6   O18   S    
C7    O9    A    
C77   C78   A    
C27   C33   A    
C87   F1    S    
C100  C105  A    
C80   C85   A    
C9    C73   S    
C83   C84   A    
C50   H6    S    
C28   C29   A    
C37   C38   A    
C18   C19   A    
C86   C91   A    
C22   H36   S    
C86   F8    S    
Cr5   O16   S    
C30   C31   A    
C107  H31   S    
C43   O25   A    
Cr1   O24   S    
C7    O10   A    
C20   C25   A    
C15   C16   A    
Cr4   O19   S    
C16   C25   S    
C66   H13   S    
Cr3   O23   S    
C23   C26   A    
C9    O14   A    
C8    O6    A    
C81   F7    S    
C65   O4    A    
C97   C99   A    
C43   O26   A    
C68   H15   S    
C66   C72   A    
C37   H4    S    
C88   C92   A    
C16   C17   A    
Cr4   O6    S    
C4    C102  S    
C23   C24   A    
C31   C33   A    
C70   C71   T    
C51   C57   A    
Cr5   O9    S    
C67   C72   A    
C93   C99   A    
C83   H21   S    
C64   H40   S    
C62   H41   S    
C108  H33   S    
C90   H18   S    
C11   C93   S    
C32   O23   A    
C77   C85   S    
C59   C60   A    
C34   C38   A    
C74   H17   S    
C33   F4    S    
C11   O18   A    
C80   H45   S    
C36   C41   A    
C102  C103  A    
C42   C44   A    
Cr5   O19   S    
C34   C35   A    
C104  C105  A    
C13   H5    S    
C101  H26   S    
Cr6   O17   S    
C53   C55   S    
C74   C75   A    
C86   C88   A    
C67   C68   A    
C88   F9    S    
C59   F6    S    
C17   H34   S    
C84   C85   A    
Cr2   O2    S    
C39   C40   T    
Cr1   O25   S    
C68   C69   A    
C47   H8    S    
C54   O3    A    
C98   H32   S    
C58   C59   A    
Cr2   O26   S    
C4    C106  A    
C6    C41   S    
C11   O13   A    
C82   C91   S    
C94   H46   S    
C60   C61   A    
C103  F12   S    
C64   C66   A    
C9    O15   A    
C28   F5    S    
C31   H3    S    
C29   C30   A    
Cr2   O5    S    
C8    C57   S    
Cr3   O4    S    
C47   C48   A    
C13   C76   A    
C10   O17   A    
C49   H7    S    
C96   C97   A    
C99   F11   S    
C62   C63   A    
C17   C18   A    
C73   C79   A    
C104  H29   S    
C30   C40   S    
C35   H2    S    
C93   C94   A    
C42   C48   A    
C64   C69   A    
C24   C25   A    
C89   C92   A    
C106  H30   S    
Cr1   O5    S    
C75   C77   A    
C76   C87   A    
Cr6   O11   S    
C54   O2    A    
C22   C26   A    
Cr2   O21   S    
C20   C22   A    
C82   C83   A    
C94   C95   A    
C63   H42   S    
Cr4   O7    S    
C49   C50   A    
C67   H16   S    
C3    H25   S    
C20   H35   S    
C3    C4    A    
C8    O11   A    
C78   H23   S    
C103  C104  A    
C6    O8    A    
C52   C53   A    
C96   C105  S    
C54   C58   S    
C58   C63   A    
Cr4   O14   S    
C14   F10   S    
C46   C47   A    
C84   H22   S    
C29   H38   S    
C65   O24   A    
C2    C19   S    
C78   C79   A    
C51   H12   S    
C14   C19   A    
C44   C45   A    
C80   C81   A    
C32   O1    A    
C52   H11   S    
C60   H43   S    
Cr6   O19   S    
C7    C76   S    
C15   H19   S    
C3    C108  A    
Cr4   O13   S    
C100  H27   S    
C87   C98   A    
C61   C62   A    
Cr1   O1    S    
C51   C52   A    
C21   O22   A    
Cr5   O15   S    
C18   F14   S    
C50   C57   A    
C61   C71   S    
C90   C91   A    
C38   C39   S    
C10   O16   A    
C49   C53   A    
C1    O20   A    
C100  C101  A    
C23   H1    S    
C44   H10   S    
Cr3   O22   S    
C5    C43   S    
C69   C70   S    
C35   C41   A    
Cr3   O5    S    
Cr6   O10   S    
C27   C32   S    
C1    O12   A    
C5    C107  A    
Cr2   O20   S    
C45   C46   A    
C1    C42   S    
C36   H37   S    
C12   C13   A    
C2    C98   A    
C95   H28   S    
C36   C37   A    
C89   H24   S    
C106  C107  A    
C46   C56   S    
C27   C28   A    
C24   H14   S    
C14   C15   A    
Cr1   O12   S    
Cr5   O8    S    
C89   C90   A    
C6    O7    A    
C21   O21   A    
C45   H39   S    
C79   H44   S    
C5    C108  A    
C10   C72   S    
