data_mof_unit_pretest_289.cif
_audit_creation_date              2012-12-11T14:38:24-0500
_audit_creation_method            fapswitch 2.2
_symmetry_space_group_name_H-M    P1
_symmetry_Int_Tables_number       1
_space_group_crystal_system       triclinic
_cell_length_a                    19.658856
_cell_length_b                    11.08564
_cell_length_c                    19.626853
_cell_angle_alpha                 90.159341
_cell_angle_beta                  96.35659
_cell_angle_gamma                 89.902026
_cell_volume                      4250.98257867

loop_
_atom_site_label
_atom_site_type_symbol
_atom_type_description
_atom_site_fract_x
_atom_site_fract_y
_atom_site_fract_z
_atom_type_partial_charge
C1    C     C_R   0.709734 0.992204 0.366656 0.549924
C2    C     C_3   0.172644 0.520577 0.481282 -0.289905
C3    C     C_2   0.160847 0.641533 0.020324 0.516570
C4    C     C_3   0.585841 0.473386 0.562848 -0.005744
C5    C     C_3   0.575819 0.548120 0.626610 -0.238763
C6    C     C_3   0.502861 0.596876 0.623455 -0.490804
C7    C     C_3   0.415012 0.465603 0.436670 -0.004327
C8    C     C_3   0.425161 0.541448 0.373566 -0.237363
C9    C     C_3   0.498122 0.589812 0.377136 -0.489394
C10   C     C_3   0.085871 0.973328 0.562928 -0.005268
C11   C     C_3   0.075878 0.047873 0.626775 -0.239476
C12   C     C_3   0.002919 0.096596 0.623702 -0.491973
C13   C     C_3   0.329093 0.020249 0.519441 -0.289028
C14   C     C_3   0.915040 0.965682 0.436745 -0.004695
C15   C     C_3   0.925211 0.041701 0.373712 -0.236516
C16   C     C_3   0.998175 0.090072 0.377347 -0.488181
C17   C     C_3   0.672639 0.020555 0.481277 -0.289814
C18   C     C_3   0.783953 0.321680 0.551733 -0.219906
C19   C     C_3   0.216069 0.321525 0.447919 -0.217491
C20   C     C_3   0.283981 0.821686 0.551733 -0.219731
C21   C     C_3   0.716098 0.821520 0.447919 -0.217670
C22   C     C_3   0.774956 0.458087 0.561226 0.075798
C23   C     C_3   0.225949 0.457531 0.438879 0.077238
C24   C     C_3   0.274965 0.958090 0.561227 0.075867
C25   C     C_R   0.290662 0.992760 0.633485 0.564174
C26   C     C_3   0.725957 0.957529 0.438880 0.077156
C27   C     C_3   0.752461 0.408016 0.431336 0.033518
C28   C     C_3   0.248452 0.406998 0.568583 0.032844
C29   C     C_3   0.252464 0.908014 0.431338 0.032581
C30   C     C_3   0.748453 0.907004 0.568585 0.033802
C31   C     C_3   0.809132 0.503940 0.441731 -0.258070
C32   C     C_3   0.192120 0.503324 0.558751 -0.256462
C33   C     C_3   0.309127 0.003952 0.441728 -0.257935
C34   C     C_3   0.692112 0.003314 0.558747 -0.256599
C35   C     C_3   0.777863 0.297163 0.475565 -0.237143
C36   C     C_R   0.209730 0.492212 0.366656 0.550233
C37   C     C_3   0.223275 0.296449 0.523982 -0.238311
C38   C     C_3   0.277882 0.797164 0.475564 -0.237528
C39   C     C_3   0.723292 0.796451 0.523983 -0.237916
C40   C     C_3   0.455811 0.305625 0.968823 -0.228237
C41   C     C_3   0.472196 0.300340 0.045930 -0.225711
C42   C     C_3   0.027538 0.800364 0.954387 -0.225911
C43   C     C_3   0.043950 0.805437 0.031501 -0.227944
C44   C     C_3   0.411272 0.092792 0.979564 -0.056451
C45   C     C_3   0.560709 0.136289 0.023762 -0.055204
C46   C     C_3   0.939376 0.636188 0.976074 -0.054492
C47   C     C_R   0.790658 0.492752 0.633484 0.563768
C48   C     C_3   0.088907 0.592686 0.020088 -0.056637
C49   C     C_3   0.531509 0.127687 0.947997 -0.247562
C50   C     C_3   0.446352 0.077999 0.054795 -0.257479
C51   C     C_3   0.053853 0.578120 0.944795 -0.257346
C52   C     C_3   0.968621 0.627319 0.051794 -0.247578
C53   C     C_R   0.559223 0.183299 0.347567 0.530081
C54   C     C_R   0.464900 0.179981 0.662208 0.539975
C55   C     C_R   0.059240 0.683301 0.347570 0.533211
C56   C     C_R   0.964902 0.679981 0.662209 0.531742
C57   C     C_3   0.457106 0.176362 0.938087 0.014294
C58   C     C_3   0.686195 0.457591 0.456250 -0.201454
C59   C     C_3   0.503126 0.174164 0.068355 0.009959
C60   C     C_3   0.996874 0.674255 0.931591 0.012047
C61   C     C_3   0.042917 0.676058 0.061858 0.012287
C62   C     C_1   0.764561 0.432189 0.906679 0.042241
C63   C     C_1   0.240579 0.417748 0.097509 0.025981
C64   C     C_1   0.259369 0.918129 0.902465 0.024582
C65   C     C_1   0.735304 0.931949 0.093292 0.043037
C66   C     C_1   0.754734 0.424447 0.039045 -0.005556
C67   C     C_1   0.252375 0.407932 0.965554 0.009620
C68   C     C_1   0.247637 0.907837 0.034482 0.010665
C69   C     C_3   0.314818 0.456152 0.543764 -0.200697
C70   C     C_1   0.745180 0.924665 0.960996 -0.005674
C71   C     C_1   0.758940 0.427314 0.967373 0.010963
C72   C     C_1   0.248288 0.409074 0.037348 0.016151
C73   C     C_1   0.251696 0.909343 0.962636 0.016570
C74   C     C_1   0.740924 0.927227 0.032615 0.011889
C75   C     C_1   0.748549 0.407525 0.098902 0.027189
C76   C     C_1   0.255606 0.398447 0.904538 0.018672
C77   C     C_1   0.244410 0.898179 0.095494 0.018633
C78   C     C_1   0.751429 0.907819 0.901131 0.026041
C79   C     C_R   0.740190 0.365049 0.360133 0.529476
C80   C     C_3   0.186196 0.957574 0.456260 -0.201731
C81   C     C_R   0.260121 0.364202 0.639649 0.536224
C82   C     C_R   0.240190 0.865047 0.360134 0.533569
C83   C     C_R   0.760120 0.864205 0.639650 0.532126
C84   C     C_R   0.721838 0.954493 0.162755 0.578604
C85   C     C_R   0.276446 0.949911 0.835116 0.578054
C86   C     C_R   0.223533 0.449802 0.164877 0.579331
C87   C     C_R   0.778131 0.454604 0.837242 0.577658
C88   C     C_R   0.531649 0.179340 0.141061 0.560873
C89   C     C_R   0.436334 0.182733 0.862840 0.602887
C90   C     C_R   0.063669 0.682437 0.137148 0.604743
C91   C     C_3   0.814817 0.956175 0.543774 -0.200414
C92   C     C_R   0.968323 0.679415 0.858931 0.553345
C93   C     C_R   0.737483 0.363185 0.165658 0.574847
C94   C     C_R   0.262953 0.362662 0.834998 0.568847
C95   C     C_R   0.237031 0.862546 0.164999 0.571148
C96   C     C_R   0.762498 0.863302 0.834333 0.572118
C97   C     C_1   0.491110 0.171456 0.597447 -0.027561
C98   C     C_1   0.536327 0.175924 0.413950 -0.036386
C99   C     C_1   0.991123 0.671454 0.597453 -0.025931
C100  C     C_1   0.036351 0.675929 0.413957 -0.037386
C101  C     C_1   0.521668 0.170904 0.471698 -0.068551
C102  C     C_3   0.829095 0.520227 0.519445 -0.288954
C103  C     C_1   0.506595 0.168498 0.539968 -0.063167
C104  C     C_1   0.021692 0.670909 0.471706 -0.068716
C105  C     C_1   0.006614 0.668499 0.539975 -0.062693
C106  C     C_3   0.698321 0.487043 0.533027 0.160909
C107  C     C_3   0.302803 0.485046 0.466847 0.162294
C108  C     C_3   0.198325 0.987017 0.533038 0.161017
C109  C     C_3   0.802806 0.985078 0.466858 0.162174
C110  C     C_2   0.339240 0.141533 0.979537 0.516587
C111  C     C_2   0.622871 0.215482 0.030945 0.567043
C112  C     C_2   0.877084 0.715379 0.969225 0.567650
Cr1   Cr    Cr6+3 0.765780 0.160710 0.267420 1.014472
Cr2   Cr    Cr6+3 0.383970 0.323720 0.751490 1.010674
Cr3   Cr    Cr6+3 0.116030 0.823720 0.248510 1.009616
Cr4   Cr    Cr6+3 0.883970 0.823720 0.751490 1.020435
Cr5   Cr    Cr6+3 0.234220 0.160710 0.732580 1.004735
Cr6   Cr    Cr6+3 0.265780 0.660710 0.267420 1.003215
Cr7   Cr    Cr6+3 0.734220 0.660710 0.732580 1.015776
Cr8   Cr    Cr6+3 0.612200 0.009560 0.248850 1.018911
Cr9   Cr    Cr6+3 0.387800 0.009560 0.751150 1.017004
Cr10  Cr    Cr6+3 0.112200 0.509560 0.248850 1.020289
Cr11  Cr    Cr6+3 0.887800 0.509560 0.751150 1.016317
Cr12  Cr    Cr6+3 0.616030 0.323720 0.248510 1.018992
H1    H     H_    0.689145 0.582501 0.540274 0.105417
H2    H     H_    0.121859 0.477312 0.467485 0.137366
H3    H     H_    0.379464 0.975033 0.532813 0.137056
H4    H     H_    0.621860 0.977270 0.467477 0.137469
H5    H     H_    0.854921 0.475277 0.417090 0.144128
H6    H     H_    0.146112 0.474877 0.582956 0.141414
H7    H     H_    0.354917 0.975298 0.417084 0.143867
H8    H     H_    0.646105 0.974857 0.582950 0.141593
H9    H     H_    0.405091 0.349347 0.955684 0.142009
H10   H     H_    0.507370 0.376703 0.060907 0.184859
H11   H     H_    0.992176 0.876648 0.939659 0.184854
H12   H     H_    0.312876 0.580477 0.459610 0.104606
H13   H     H_    0.094589 0.849206 0.044770 0.142121
H14   H     H_    0.494506 0.364015 0.947787 0.183853
H15   H     H_    0.424924 0.316758 0.071023 0.149640
H16   H     H_    0.074763 0.816891 0.929326 0.148825
H17   H     H_    0.005149 0.863782 0.052722 0.184330
H18   H     H_    0.410693 0.083617 0.094794 0.169568
H19   H     H_    0.563936 0.177012 0.914129 0.160448
H20   H     H_    0.936112 0.676481 0.085874 0.162598
H21   H     H_    0.089513 0.583902 0.904827 0.167422
H22   H     H_    0.532108 0.031371 0.931728 0.114434
H23   H     H_    0.189135 0.082474 0.540293 0.105574
H24   H     H_    0.468847 0.985868 0.060645 0.103954
H25   H     H_    0.031537 0.485977 0.938583 0.103960
H26   H     H_    0.968228 0.530948 0.067681 0.114797
H27   H     H_    0.578867 0.044357 0.040137 0.121667
H28   H     H_    0.407212 0.002137 0.955029 0.110557
H29   H     H_    0.093127 0.501965 0.044273 0.109608
H30   H     H_    0.921363 0.544296 0.959352 0.122575
H31   H     H_    0.644679 0.389293 0.446806 0.152209
H32   H     H_    0.356395 0.387820 0.553358 0.156851
H33   H     H_    0.144680 0.889276 0.446816 0.151883
H34   H     H_    0.812863 0.080511 0.459629 0.104434
H35   H     H_    0.856395 0.887846 0.553369 0.157204
H36   H     H_    0.669126 0.540201 0.427010 0.074803
H37   H     H_    0.331760 0.538977 0.573035 0.074374
H38   H     H_    0.169123 0.040187 0.427025 0.075189
H39   H     H_    0.831754 0.038997 0.573051 0.073964
H40   H     H_    0.341312 0.114821 0.532966 0.101202
H41   H     H_    0.662362 0.115669 0.469045 0.093175
H42   H     H_    0.841322 0.614795 0.532972 0.101514
H43   H     H_    0.162378 0.615695 0.469054 0.092973
H44   H     H_    0.291128 0.089462 0.417455 0.122325
H45   H     H_    0.829817 0.271168 0.462863 0.127932
H46   H     H_    0.710241 0.088437 0.583719 0.120210
H47   H     H_    0.791140 0.589455 0.417461 0.121981
H48   H     H_    0.210257 0.588440 0.583726 0.120615
H49   H     H_    0.834848 0.288149 0.574649 0.121928
H50   H     H_    0.164600 0.289660 0.425652 0.121905
H51   H     H_    0.334884 0.788180 0.574641 0.122159
H52   H     H_    0.664639 0.789625 0.425642 0.121682
H53   H     H_    0.744816 0.271695 0.576507 0.173954
H54   H     H_    0.254143 0.270634 0.421954 0.174654
H55   H     H_    0.244859 0.771679 0.576516 0.174047
H56   H     H_    0.171575 0.270286 0.537091 0.127185
H57   H     H_    0.754190 0.770652 0.421967 0.174575
H58   H     H_    0.742675 0.223566 0.463174 0.105630
H59   H     H_    0.259431 0.223526 0.535270 0.107852
H60   H     H_    0.242701 0.723557 0.463180 0.105653
H61   H     H_    0.759453 0.723536 0.535280 0.107828
H62   H     H_    0.249114 0.166364 0.923991 0.335950
H63   H     H_    0.725457 0.201436 0.033953 0.324872
H64   H     H_    0.774474 0.701624 0.965910 0.325019
H65   H     H_    0.250971 0.665925 0.075953 0.335944
H66   H     H_    0.547687 0.399772 0.558270 0.161548
H67   H     H_    0.329833 0.771171 0.462855 0.127918
H68   H     H_    0.574608 0.529669 0.515981 0.091859
H69   H     H_    0.586648 0.491118 0.673064 0.191138
H70   H     H_    0.611936 0.625301 0.630646 0.182114
H71   H     H_    0.491457 0.656316 0.578128 0.128445
H72   H     H_    0.497098 0.650271 0.670417 0.151833
H73   H     H_    0.465542 0.521407 0.620301 0.162703
H74   H     H_    0.451997 0.389726 0.439730 0.165017
H75   H     H_    0.427540 0.520129 0.484197 0.091661
H76   H     H_    0.414284 0.485281 0.326631 0.191523
H77   H     H_    0.389121 0.618951 0.370104 0.180492
H78   H     H_    0.671589 0.770289 0.537082 0.127205
H79   H     H_    0.509063 0.650203 0.422268 0.127392
H80   H     H_    0.504235 0.642238 0.330089 0.150326
H81   H     H_    0.535511 0.514264 0.380873 0.163932
H82   H     H_    0.047710 0.899719 0.558290 0.161457
H83   H     H_    0.074630 0.029752 0.516114 0.091894
H84   H     H_    0.086735 0.990739 0.673177 0.188392
H85   H     H_    0.111989 0.125071 0.630861 0.182627
H86   H     H_    0.991494 0.156181 0.578434 0.129028
H87   H     H_    0.997177 0.149837 0.670729 0.149818
H88   H     H_    0.965603 0.021110 0.620483 0.162680
H89   H     H_    0.879461 0.474993 0.532820 0.137205
H90   H     H_    0.952024 0.889803 0.439753 0.165170
H91   H     H_    0.927555 0.020089 0.484320 0.091555
H92   H     H_    0.914350 0.985654 0.326727 0.194425
H93   H     H_    0.889170 0.119204 0.370301 0.179945
H94   H     H_    0.009104 0.150338 0.422537 0.126809
H95   H     H_    0.004305 0.142635 0.330352 0.152341
H96   H     H_    0.035561 0.014517 0.381024 0.163893
O1    O     O_R   0.783100 0.287550 0.345460 -0.553000
O2    O     O_R   0.454350 0.284910 0.836260 -0.524112
O3    O     O_R   0.045650 0.784910 0.163740 -0.519157
O4    O     O_R   0.954350 0.784910 0.836260 -0.512675
O5    O     O_R   0.677950 0.374280 0.185410 -0.470843
O6    O     O_R   0.322050 0.374280 0.814590 -0.496404
O7    O     O_R   0.177950 0.874280 0.185410 -0.496518
O8    O     O_R   0.822050 0.874280 0.814590 -0.471020
O9    O     O_3   0.664670 0.164660 0.254930 -0.278729
O10   O     O_3   0.335330 0.164660 0.745070 -0.274252
O11   O     O_3   0.164670 0.664660 0.254930 -0.287787
O12   O     O_R   0.216900 0.287550 0.654540 -0.553537
O13   O     O_3   0.835330 0.664660 0.745070 -0.265178
O14   O     O_R   0.760020 0.037400 0.337700 -0.485887
O15   O     O_R   0.239980 0.037400 0.662300 -0.484814
O16   O     O_R   0.260020 0.537400 0.337700 -0.485290
O17   O     O_R   0.739980 0.537400 0.662300 -0.485475
O18   O     O_R   0.666600 0.921990 0.332020 -0.532029
O19   O     O_R   0.333400 0.921990 0.667980 -0.530354
O20   O     O_R   0.166600 0.421990 0.332020 -0.532162
O21   O     O_R   0.833400 0.421990 0.667980 -0.530357
O22   O     O_R   0.557260 0.082670 0.312540 -0.504154
O23   O     O_R   0.283100 0.787550 0.345460 -0.550893
O24   O     O_R   0.442740 0.082670 0.687460 -0.510773
O25   O     O_R   0.057260 0.582670 0.312540 -0.498359
O26   O     O_R   0.942740 0.582670 0.687460 -0.514885
O27   O     O_R   0.548410 0.285740 0.316480 -0.517803
O28   O     O_R   0.451590 0.285740 0.683520 -0.519428
O29   O     O_R   0.048410 0.785740 0.316480 -0.510718
O30   O     O_R   0.951590 0.785740 0.683520 -0.524771
O31   O     O_R   0.680500 0.375040 0.327000 -0.526320
O32   O     O_R   0.319500 0.375040 0.673000 -0.512652
O33   O     O_R   0.180500 0.875040 0.327000 -0.523388
O34   O     O_R   0.716900 0.787550 0.654540 -0.555668
O35   O     O_R   0.819500 0.875040 0.673000 -0.515674
O36   O     O_R   0.780350 0.286720 0.192720 -0.506970
O37   O     O_R   0.219650 0.286720 0.807280 -0.507526
O38   O     O_R   0.280350 0.786720 0.192720 -0.505656
O39   O     O_R   0.719650 0.786720 0.807280 -0.508860
O40   O     O_R   0.757470 0.036630 0.196110 -0.472710
O41   O     O_R   0.242530 0.036630 0.803890 -0.475957
O42   O     O_R   0.257470 0.536630 0.196110 -0.474460
O43   O     O_R   0.742530 0.536630 0.803890 -0.474378
O44   O     O_R   0.663840 0.921160 0.179280 -0.511306
O45   O     O_R   0.554710 0.081900 0.170950 -0.499002
O46   O     O_R   0.336160 0.921160 0.820720 -0.511354
O47   O     O_R   0.163840 0.421160 0.179280 -0.511117
O48   O     O_R   0.836160 0.421160 0.820720 -0.511655
O49   O     O_2   0.314872 0.164580 0.032814 -0.557594
O50   O     O_R   0.299347 0.156847 0.917569 -0.706901
O51   O     O_2   0.619373 0.320451 0.012117 -0.541075
O52   O     O_R   0.685586 0.163484 0.054010 -0.714659
O53   O     O_2   0.880418 0.820275 0.988489 -0.541093
O54   O     O_R   0.814451 0.663459 0.945927 -0.714138
O55   O     O_2   0.185132 0.665012 0.967148 -0.558192
O56   O     O_R   0.445290 0.081900 0.829050 -0.506652
O57   O     O_R   0.200753 0.656445 0.082352 -0.707428
O58   O     O_3   0.652052 0.420170 0.569239 -0.562248
O59   O     O_3   0.348129 0.415697 0.430477 -0.562581
O60   O     O_3   0.152076 0.920099 0.569251 -0.562452
O61   O     O_3   0.848154 0.915775 0.430491 -0.562333
O62   O     O_R   0.054710 0.581900 0.170950 -0.500289
O63   O     O_R   0.945290 0.581900 0.829050 -0.503494
O64   O     O_R   0.545650 0.284910 0.163740 -0.509268

loop_
_geom_bond_atom_site_label_1
_geom_bond_atom_site_label_2
_ccdc_geom_bond_type
C20   C38   S    
C36   O20   A    
Cr9   O24   S    
Cr7   O39   S    
C21   C26   S    
C23   C107  S    
Cr4   O4    S    
C42   C43   S    
C46   C52   S    
C90   O62   A    
C4    O58   S    
C4    H68   S    
C28   C69   S    
C111  O51   D    
C48   H29   S    
C51   H25   S    
C107  O59   S    
C6    H72   S    
Cr12  O5    S    
C69   C107  S    
C93   O36   A    
C49   C57   S    
C7    C8    S    
Cr6   O23   S    
C35   H58   S    
C21   H57   S    
Cr10  O11   S    
C29   C80   S    
C106  H1    S    
C43   C61   S    
C44   H28   S    
C6    H71   S    
Cr4   O8    S    
C68   C77   T    
C56   O26   A    
C50   C59   S    
C96   O8    A    
Cr3   O3    S    
C8    H77   S    
C112  O54   S    
Cr12  O31   S    
C27   C79   S    
C52   C61   S    
C13   H3    S    
C5    C6    S    
C88   O45   A    
C3    O57   S    
C94   O37   A    
C70   C78   T    
C51   H21   S    
C44   C50   S    
C15   C16   S    
C37   H59   S    
C29   C33   S    
Cr5   O10   S    
C100  C104  T    
C38   H60   S    
C14   H90   S    
C16   H95   S    
C2    C32   S    
C67   C72   S    
C55   O25   A    
C30   C83   S    
C51   C60   S    
C59   C88   S    
C104  C105  S    
C9    H79   S    
C76   C94   S    
C47   O17   A    
C40   C57   S    
Cr11  O48   S    
Cr7   O13   S    
C48   C51   S    
Cr10  O20   S    
C20   C24   S    
C18   H53   S    
C78   C96   S    
C8    C9    S    
Cr8   O44   S    
C81   O12   A    
C40   H14   S    
Cr4   O13   S    
C70   C74   S    
C89   O56   A    
Cr11  O63   S    
C64   C73   T    
C55   O29   A    
C82   O33   A    
C16   H94   S    
C24   C108  S    
Cr1   O40   S    
C54   O28   A    
C15   H93   S    
C19   C37   S    
C18   C35   S    
C1    O14   A    
Cr3   O11   S    
Cr12  O9    S    
C34   H46   S    
C87   O48   A    
C108  H23   S    
Cr5   O41   S    
C33   H7    S    
C44   C57   S    
C60   C92   S    
C22   C47   S    
C32   H48   S    
C24   C25   S    
C34   H8    S    
C102  H42   S    
Cr1   O36   S    
Cr11  O13   S    
C91   H39   S    
C94   O6    A    
C79   O31   A    
C86   O47   A    
C7    O59   S    
C109  H34   S    
C88   O64   A    
C32   H6    S    
C41   H10   S    
Cr3   O7    S    
Cr10  O47   S    
C79   O1    A    
C20   H55   S    
Cr12  O64   S    
C14   O61   S    
Cr1   O14   S    
C99   C105  T    
Cr2   O28   S    
C69   H32   S    
C47   O21   A    
C30   C34   S    
C83   O34   A    
C42   H16   S    
C31   C102  S    
C4    H66   S    
C28   C32   S    
Cr9   O56   S    
Cr8   O45   S    
C53   O22   A    
C12   H88   S    
C58   H31   S    
C42   C60   S    
C89   O2    A    
C110  O50   S    
Cr6   O42   S    
Cr7   O17   S    
C65   C84   S    
H64   O54   S    
C27   C35   S    
C68   C73   S    
Cr9   O19   S    
C27   C31   S    
C77   C95   S    
C58   C106  S    
Cr2   O2    S    
C65   C74   T    
C15   H92   S    
C13   C24   S    
C56   O30   A    
C42   H11   S    
C45   H27   S    
C54   O24   A    
C29   C38   S    
C19   C23   S    
C10   H83   S    
C53   O27   A    
C13   C33   S    
C107  H12   S    
C9    H80   S    
C93   O5    A    
Cr2   O6    S    
Cr5   O37   S    
H62   O50   S    
C102  H89   S    
C66   C71   S    
C21   C39   S    
C92   O4    A    
C3    C48   S    
C21   H52   S    
Cr2   O32   S    
C17   H41   S    
C6    H73   S    
Cr4   O35   S    
C45   C49   S    
C82   O23   A    
C95   O38   A    
C54   C97   S    
Cr8   O22   S    
C112  O53   D    
Cr1   O9    S    
C4    C5    S    
Cr10  O62   S    
C26   C109  S    
C41   C59   S    
C97   C103  T    
C57   C89   S    
Cr10  O25   S    
C106  O58   S    
C2    H2    S    
C46   H30   S    
C22   C106  S    
C40   C41   S    
C110  O49   D    
H63   O52   S    
C38   H67   S    
C31   H47   S    
C52   H20   S    
C63   C86   S    
C109  O61   S    
C1    C26   S    
C35   H45   S    
C8    H76   S    
C33   H44   S    
C36   O16   A    
C17   C34   S    
C17   C26   S    
C81   O32   A    
C46   C112  S    
Cr7   O34   S    
C87   O43   A    
C64   C85   S    
Cr11  O21   S    
C43   H13   S    
C61   C90   S    
C75   C93   S    
C13   H40   S    
C5    H69   S    
C62   C87   S    
C50   H24   S    
C30   C39   S    
C37   H56   S    
C45   C59   S    
C85   O41   A    
Cr9   O10   S    
Cr6   O11   S    
C46   C60   S    
C28   C81   S    
C18   C22   S    
C91   H35   S    
C85   O46   A    
C84   O40   A    
H65   O57   S    
C12   H87   S    
C69   H37   S    
C30   C91   S    
C27   C58   S    
Cr9   O46   S    
Cr2   O10   S    
Cr11  O26   S    
C11   C12   S    
C45   C111  S    
C17   H4    S    
C3    O55   D    
C19   H54   S    
Cr3   O29   S    
C55   C100  S    
C83   O35   A    
C53   C98   S    
C92   O63   A    
C98   C101  T    
C40   H9    S    
C80   C108  S    
Cr5   O12   S    
C49   H22   S    
C22   C102  S    
C101  C103  S    
Cr3   O33   S    
C91   C109  S    
Cr12  O27   S    
C14   H91   S    
C10   H82   S    
C19   H50   S    
C12   H86   S    
C29   C82   S    
C31   H5    S    
C1    O18   A    
C9    H81   S    
C11   H85   S    
Cr7   O43   S    
C44   C110  S    
C80   H33   S    
C11   H84   S    
Cr4   O30   S    
C28   C37   S    
C7    H74   S    
C96   O39   A    
C66   C75   T    
C49   H19   S    
C39   H61   S    
C62   C71   T    
C16   H96   S    
C7    H75   S    
C95   O7    A    
C41   H15   S    
C43   H17   S    
C10   C11   S    
Cr1   O1    S    
C20   H51   S    
C18   H49   S    
Cr6   O16   S    
C90   O3    A    
C63   C72   T    
C25   O15   A    
C52   H26   S    
C23   C36   S    
C80   H38   S    
C39   H78   S    
C111  O52   S    
C2    C23   S    
C48   C61   S    
C25   O19   A    
C14   C15   S    
C84   O44   A    
C58   H36   S    
C67   C76   T    
C56   C99   S    
C10   O60   S    
C108  O60   S    
Cr8   O9    S    
C2    H43   S    
C86   O42   A    
C50   H18   S    
Cr8   O18   S    
C5    H70   S    
Cr5   O15   S    
Cr6   O38   S    
