data_mof_unit_pretest_745.cif
_audit_creation_date              2012-12-11T17:43:21-0500
_audit_creation_method            fapswitch 2.2
_symmetry_space_group_name_H-M    P1
_symmetry_Int_Tables_number       1
_space_group_crystal_system       triclinic
_cell_length_a                    15.041114
_cell_length_b                    14.971958
_cell_length_c                    16.926986
_cell_angle_alpha                 108.80391
_cell_angle_beta                  106.116701
_cell_angle_gamma                 109.077371
_cell_volume                      3082.02624984

loop_
_atom_site_label
_atom_site_type_symbol
_atom_type_description
_atom_site_fract_x
_atom_site_fract_y
_atom_site_fract_z
_atom_type_partial_charge
C1    C     C_R   0.083839 0.288724 0.081288 -0.136169
C2    C     C_R   0.908787 0.722834 0.977368 -0.120741
C3    C     C_R   0.026457 0.579012 0.744418 0.069115
C4    C     C_R   0.971603 0.534086 0.274450 0.068173
C5    C     C_R   0.760171 0.196096 0.726097 0.054686
C6    C     C_R   0.334739 0.783005 0.256302 0.066454
C7    C     C_R   0.284402 0.456846 0.964254 0.045700
C8    C     C_R   0.642161 0.436889 0.947304 0.066306
C9    C     C_R   0.897798 0.928477 0.048686 -0.226799
C10   C     C_R   0.083765 0.113969 0.131361 -0.217501
C11   C     C_R   0.992800 0.925087 0.078571 0.051715
C12   C     C_R   0.990384 0.112196 0.083484 0.048903
C13   C     C_R   0.085240 0.022416 0.134374 0.038531
C14   C     C_R   0.895589 0.023198 0.055822 0.042445
C15   C     C_R   0.704878 0.952171 0.959767 -0.174140
C16   C     C_R   0.172706 0.990363 0.263790 -0.129088
C17   C     C_R   0.608217 0.041140 0.011327 -0.227321
C18   C     C_R   0.360458 0.070311 0.342363 -0.220713
C19   C     C_R   0.478680 0.593385 0.267998 -0.255144
C20   C     C_R   0.518178 0.286260 0.657345 -0.248872
C21   C     C_R   0.476665 0.568067 0.180431 -0.084640
C22   C     C_R   0.497945 0.301907 0.735066 -0.102096
C23   C     C_R   0.935576 0.519026 0.746633 -0.135490
C24   C     C_R   0.063918 0.548415 0.265298 -0.122082
C25   C     C_R   0.444017 0.462659 0.119322 0.099294
C26   C     C_R   0.471955 0.383271 0.771533 0.126810
C27   C     C_R   0.416373 0.383285 0.147723 -0.216178
C28   C     C_R   0.462066 0.445722 0.726331 -0.233932
C29   C     C_R   0.415059 0.408270 0.234285 -0.045168
C30   C     C_R   0.482233 0.429932 0.648284 -0.073914
C31   C     C_R   0.445607 0.513683 0.294902 0.004127
C32   C     C_R   0.512054 0.351066 0.614150 0.037982
C33   C     C_R   0.524402 0.424498 0.016644 -0.231895
C34   C     C_R   0.376476 0.417469 0.868876 -0.242166
C35   C     C_R   0.538915 0.417065 0.937631 0.050508
C36   C     C_R   0.367270 0.434751 0.952177 0.067136
C37   C     C_R   0.462502 0.406689 0.860194 0.024333
C38   C     C_R   0.441130 0.435677 0.026107 0.020854
C39   C     C_R   0.611787 0.959040 0.945338 -0.086756
C40   C     C_R   0.262317 0.008421 0.333227 -0.067078
C41   C     C_R   0.962104 0.578402 0.360888 0.113906
C42   C     C_R   0.033836 0.620110 0.677342 0.125990
C43   C     C_R   0.137517 0.694233 0.606451 -0.215006
C44   C     C_R   0.857271 0.558995 0.445731 -0.197960
C45   C     C_R   0.776638 0.202245 0.812853 -0.133148
C46   C     C_R   0.279565 0.785655 0.177299 -0.128560
C47   C     C_R   0.131347 0.676848 0.681012 -0.171845
C48   C     C_R   0.864089 0.544280 0.362684 -0.105277
C49   C     C_R   0.942742 0.593014 0.603288 -0.262360
C50   C     C_R   0.052325 0.642502 0.444196 -0.279096
C51   C     C_R   0.948272 0.604866 0.526479 0.169038
C52   C     C_R   0.046460 0.651595 0.526652 0.191980
C53   C     C_R   0.718331 0.099282 0.640511 0.129724
C54   C     C_R   0.442803 0.855987 0.324140 0.137295
C55   C     C_R   0.596386 0.024581 0.392361 -0.245393
C56   C     C_R   0.606229 0.910428 0.557477 -0.232526
C57   C     C_R   0.503523 0.944522 0.317132 -0.184125
C58   C     C_R   0.677781 0.999912 0.639674 -0.166972
C59   C     C_R   0.482846 0.841663 0.401703 -0.318016
C60   C     C_R   0.702713 0.104854 0.556877 -0.290901
C61   C     C_R   0.574631 0.920646 0.476561 0.199937
C62   C     C_R   0.628026 0.016082 0.474440 0.193444
C63   C     C_R   0.697782 0.116899 0.092952 0.021758
C64   C     C_R   0.369990 0.112563 0.280508 0.035406
C65   C     C_R   0.791255 0.109466 0.107551 -0.128127
C66   C     C_R   0.279621 0.094182 0.210606 -0.171568
C67   C     C_R   0.259496 0.533384 0.949392 -0.134790
C68   C     C_R   0.700343 0.403845 0.996842 -0.165565
C69   C     C_R   0.795666 0.028007 0.040579 0.066096
C70   C     C_R   0.180521 0.033929 0.202399 0.074105
C71   C     C_R   0.782282 0.297383 0.734696 -0.129013
C72   C     C_R   0.272802 0.689375 0.253248 -0.144934
C73   C     C_R   0.241123 0.429681 0.019606 -0.104698
C74   C     C_R   0.704423 0.501022 0.921410 -0.126535
C75   C     C_R   0.108112 0.602762 0.823287 -0.139076
C76   C     C_R   0.890187 0.463697 0.187608 -0.075963
C77   C     C_R   0.912656 0.203507 0.000498 -0.142822
C78   C     C_R   0.082734 0.806973 0.051355 -0.131214
C79   C     C_R   0.995275 0.197047 0.055212 0.067426
C80   C     C_R   0.994485 0.821977 0.040584 0.054610
H1    H     H_    0.160886 0.317632 0.133400 0.098121
H2    H     H_    0.827621 0.704329 0.950825 0.093179
H3    H     H_    0.706598 0.888984 0.907230 0.112043
H4    H     H_    0.097242 0.944208 0.259036 0.117118
H5    H     H_    0.505603 0.675210 0.314483 0.134501
H6    H     H_    0.540357 0.224587 0.631851 0.123026
H7    H     H_    0.500367 0.630408 0.160136 0.118616
H8    H     H_    0.505084 0.252082 0.768289 0.115468
H9    H     H_    0.392446 0.301702 0.101565 0.143884
H10   H     H_    0.442533 0.509093 0.753367 0.123767
H11   H     H_    0.389980 0.345393 0.253682 0.173416
H12   H     H_    0.476538 0.480695 0.615813 0.167607
H13   H     H_    0.584119 0.433079 0.076278 0.135756
H14   H     H_    0.317396 0.413141 0.811686 0.136144
H15   H     H_    0.128289 0.674695 0.444751 0.119491
H16   H     H_    0.866799 0.552675 0.600197 0.125784
H17   H     H_    0.792625 0.499114 0.299991 0.131885
H18   H     H_    0.203209 0.701943 0.738294 0.112905
H19   H     H_    0.213410 0.731851 0.607966 0.125628
H20   H     H_    0.781260 0.525061 0.445097 0.153533
H21   H     H_    0.857067 0.499286 0.703861 0.091048
H22   H     H_    0.142502 0.597383 0.318369 0.098176
H23   H     H_    0.542300 0.900894 0.882564 0.109893
H24   H     H_    0.255744 0.975371 0.380781 0.117118
H25   H     H_    0.738488 0.179924 0.556103 0.125740
H26   H     H_    0.438961 0.773756 0.408689 0.111824
H27   H     H_    0.692803 0.991681 0.702499 0.117184
H28   H     H_    0.476471 0.955932 0.256688 0.118481
H29   H     H_    0.638566 0.096234 0.388886 0.138173
H30   H     H_    0.568151 0.836099 0.558911 0.127896
H31   H     H_    0.535440 0.045465 0.998701 0.112864
H32   H     H_    0.428943 0.084904 0.397685 0.114995
H33   H     H_    0.861074 0.167651 0.170208 0.158192
H34   H     H_    0.286128 0.127006 0.162824 0.136702
H35   H     H_    0.766739 0.138851 0.831829 0.095637
H36   H     H_    0.309801 0.839135 0.150401 0.090592
H37   H     H_    0.282862 0.573903 0.910603 0.101086
H38   H     H_    0.672667 0.342933 0.017757 0.095623
H39   H     H_    0.776926 0.322349 0.681233 0.093689
H40   H     H_    0.295812 0.651637 0.294131 0.089762
H41   H     H_    0.241954 0.370093 0.041822 0.110662
H42   H     H_    0.680567 0.532571 0.874789 0.105334
H43   H     H_    0.188385 0.660477 0.851020 0.085479
H44   H     H_    0.807958 0.434968 0.168788 0.097638
H45   H     H_    0.831044 0.152941 0.974409 0.115759
H46   H     H_    0.163166 0.865147 0.090282 0.115484
H47   H     H_    0.825067 0.857533 0.019116 0.123443
H48   H     H_    0.156049 0.186448 0.166588 0.126386
N1    N     N_R   0.055660 0.348550 0.045620 -0.041011
N2    N     N_R   0.944340 0.651450 0.954380 -0.041648
N3    N     N_R   0.960830 0.507850 0.823700 -0.038993
N4    N     N_R   0.039170 0.492150 0.176300 -0.043110
N5    N     N_R   0.811290 0.303410 0.871650 -0.039801
N6    N     N_R   0.188710 0.696590 0.128350 -0.041702
N7    N     N_R   0.205200 0.552990 0.997670 -0.041753
N8    N     N_R   0.794800 0.447010 0.002330 -0.040758
N9    N     N_R   0.814800 0.361830 0.823700 -0.037869
N10   N     N_R   0.185200 0.638170 0.176300 -0.039986
N11   N     N_R   0.201680 0.494570 0.045620 -0.041451
N12   N     N_R   0.798320 0.505430 0.954380 -0.041383
N13   N     N_R   0.068420 0.560530 0.871650 -0.037937
N14   N     N_R   0.931580 0.439470 0.128350 -0.047138
N15   N     N_R   0.948070 0.295860 0.997670 -0.040624
N16   N     N_R   0.051930 0.704140 0.002330 -0.043575
Ni1   Ni    Ni4+2 0.119340 0.493420 0.109960 0.219136
Ni2   Ni    Ni4+2 0.880660 0.506580 0.890040 0.215203
Ni3   Ni    Ni4+2 0.872590 0.372590 0.000000 0.215351
Ni4   Ni    Ni4+2 0.127410 0.627410 0.000000 0.209170
C81   C     C_2   0.442821 0.541844 0.385933 0.527537
H49   H     H_    0.472295 0.624438 0.433749 -0.030371
O1    O     O_2   0.406523 0.473386 0.408277 -0.553861
C82   C     C_2   0.539239 0.336529 0.535031 0.497493
H50   H     H_    0.563794 0.276285 0.511289 -0.042236
O2    O     O_2   0.535718 0.391972 0.496053 -0.554368
C83   C     C_2   0.692516 0.203387 0.161758 0.442807
H51   H     H_    0.620487 0.209721 0.147664 0.064462
O3    O     O_2   0.768170 0.268448 0.234849 -0.585017
C84   C     C_2   0.474547 0.176209 0.290173 0.517448
H52   H     H_    0.543427 0.192358 0.346277 0.009623
O4    O     O_2   0.485231 0.211224 0.235676 -0.620787

loop_
_geom_bond_atom_site_label_1
_geom_bond_atom_site_label_2
_ccdc_geom_bond_type
C40   H24   S    
C63   C65   A    
C3    C42   S    
N5    N9    A    
C83   O3    D    
C34   C37   A    
C11   C13   A    
C7    C36   S    
C3    C23   A    
N16   Ni4   S    
C19   C31   A    
C21   H7    S    
C77   H45   S    
C71   N9    A    
C66   C70   A    
N7    N11   A    
C48   H17   S    
C9    H47   S    
C47   H18   S    
C75   H43   S    
N4    Ni1   S    
C5    C53   S    
C35   C37   A    
C18   H32   S    
C1    N1    A    
C81   O1    D    
C6    C46   A    
C4    C24   A    
C78   C80   A    
C50   H15   S    
N2    Ni2   S    
C13   C70   S    
N10   Ni1   S    
C1    H1    S    
C12   C79   S    
C16   H4    S    
C27   C29   A    
N3    Ni2   S    
C60   C62   A    
C58   H27   S    
C17   C39   A    
C18   C40   A    
C75   N13   A    
N13   Ni4   S    
C68   H38   S    
C49   C51   A    
C20   H6    S    
C50   C52   A    
C7    C73   A    
N5    Ni3   S    
C22   H8    S    
N2    N16   A    
N1    Ni1   S    
N3    N13   A    
N8    N12   A    
C72   N10   A    
C4    C41   S    
C55   H29   S    
C84   O4    D    
C6    C54   S    
C10   H48   S    
C17   H31   S    
C56   H30   S    
C26   C28   A    
C53   C60   A    
C54   C59   A    
C77   C79   A    
N4    N14   A    
C15   C69   A    
C59   C61   A    
C59   H26   S    
C51   C52   A    
C76   H44   S    
N9    Ni2   S    
C68   N8    A    
C16   C70   A    
C30   H12   S    
N12   Ni2   S    
C2    N2    A    
C15   H3    S    
C73   N11   A    
C6    C72   A    
C74   N12   A    
C8    C35   S    
C64   C66   A    
C67   N7    A    
C9    C14   A    
C77   N15   A    
C78   N16   A    
C25   C38   S    
C46   N6    A    
C9    C11   A    
C45   H35   S    
C32   C82   S    
C72   H40   S    
C8    C74   A    
C23   N3    A    
C82   H50   S    
C39   H23   S    
C67   H37   S    
C15   C39   A    
C10   C12   A    
C16   C40   A    
C44   C51   A    
C74   H42   S    
C82   O2    D    
N15   Ni3   S    
C73   H41   S    
C55   C57   A    
C84   H52   S    
C1    C79   A    
C14   C69   S    
C2    H2    S    
C78   H46   S    
C41   C50   A    
C29   H11   S    
C3    C75   A    
C20   C32   A    
C65   C69   A    
C21   C25   A    
N11   Ni1   S    
C66   H34   S    
C19   C21   A    
C65   H33   S    
N14   Ni3   S    
C34   H14   S    
C20   C22   A    
C19   H5    S    
C10   C13   A    
C33   H13   S    
N6    N10   A    
C53   C58   A    
C26   C37   S    
C8    C68   A    
N1    N15   A    
C71   H39   S    
C25   C27   A    
N6    Ni4   S    
C45   N5    A    
C33   C38   A    
C46   H36   S    
C28   C30   A    
C12   C14   A    
C63   C83   S    
C5    C71   A    
C81   H49   S    
C43   H19   S    
C30   C32   A    
C24   N4    A    
C44   H20   S    
C18   C64   A    
C23   H21   S    
C5    C45   A    
C31   C81   S    
C36   C38   A    
C33   C35   A    
C41   C48   A    
C56   C58   A    
C27   H9    S    
C24   H22   S    
C42   C47   A    
C49   H16   S    
C61   C62   A    
C43   C52   A    
C4    C76   A    
N8    Ni3   S    
C2    C80   A    
C11   C80   S    
C42   C49   A    
C7    C67   A    
C57   H28   S    
C55   C62   A    
C34   C36   A    
C29   C31   A    
N7    Ni4   S    
C22   C26   A    
C64   C84   S    
C83   H51   S    
C56   C61   A    
C28   H10   S    
C43   C47   A    
C17   C63   A    
C60   H25   S    
C44   C48   A    
C54   C57   A    
C76   N14   A    
