data_mof_unit_pretest_1135.cif
_audit_creation_date              2013-03-05T16:44:36-0500
_audit_creation_method            fapswitch 2.2
_symmetry_space_group_name_H-M    P1
_symmetry_Int_Tables_number       1
_space_group_crystal_system       triclinic
_cell_length_a                    27.700973
_cell_length_b                    10.646681
_cell_length_c                    9.888821
_cell_angle_alpha                 89.709676
_cell_angle_beta                  88.72799
_cell_angle_gamma                 90.607432
_cell_volume                      2915.52137986

loop_
_atom_site_label
_atom_site_type_symbol
_atom_site_description
_atom_site_fract_x
_atom_site_fract_y
_atom_site_fract_z
_atom_type_partial_charge
O1    O     O_R   0.500010 0.316790 0.614690 -0.605544
O2    O     O_R   0.500000 0.316760 0.385350 -0.627214
C1    C     C_R   0.498605 0.260066 0.500442 0.957479
O3    O     O_R   0.428760 0.500040 0.614660 -0.524668
O4    O     O_R   0.428750 0.500000 0.385310 -0.652083
C2    C     C_R   0.406217 0.498350 0.501188 0.965760
Zn1   Zn    Zn3+2 0.500000 0.500020 0.653130 1.014952
Zn2   Zn    Zn3+2 0.500000 0.499980 0.346870 0.960656
O5    O     O_R   0.500000 0.683240 0.614650 -0.610023
O6    O     O_R   0.499990 0.683210 0.385310 -0.621759
O7    O     O_R   0.571250 0.500000 0.614690 -0.622313
O8    O     O_R   0.571240 0.499960 0.385340 -0.649883
C3    C     C_R   0.496801 0.739578 0.500092 0.872225
C4    C     C_R   0.593978 0.500239 0.498592 0.914300
C5    C     C_R   0.177942 0.381628 0.455402 0.649096
O9    O     O_2   0.203714 0.284819 0.405457 -0.450009
N1    N     N_R   0.201751 0.484401 0.503588 -0.321297
C6    C     C_R   0.177867 0.585292 0.555131 0.637408
C7    C     C_R   0.278544 0.559983 0.406315 0.465757
C8    C     C_R   0.328922 0.564678 0.408906 -0.441214
C9    C     C_R   0.328644 0.412814 0.594226 0.319105
C10   C     C_R   0.277624 0.414254 0.598212 0.315002
C11   C     C_R   0.253286 0.485590 0.501988 0.179862
C12   C     C_R   0.101727 0.482532 0.507944 -0.131521
C13   C     C_R   0.127101 0.377240 0.457747 -0.087825
C14   C     C_R   0.101235 0.271857 0.410997 0.509196
C15   C     C_R   0.127458 0.586724 0.557526 -0.069416
C16   C     C_R   0.353720 0.493217 0.503346 -0.141543
C17   C     C_R   0.646763 0.500439 0.495108 -0.076986
C18   C     C_R   0.973794 0.374275 0.478324 0.077013
C19   C     C_R   0.975479 0.600422 0.528832 0.059418
C20   C     C_R   0.949399 0.488623 0.501390 0.062015
C21   C     C_R   0.946168 0.262763 0.464992 -0.202900
C22   C     C_R   0.896072 0.265526 0.465571 -0.121984
C23   C     C_R   0.871911 0.379494 0.478400 -0.034638
C24   C     C_R   0.898482 0.491532 0.495663 -0.054046
C25   C     C_R   0.874127 0.606591 0.506721 -0.028448
C26   C     C_R   0.823717 0.607140 0.502488 0.551261
N2    N     N_R   0.798746 0.496932 0.488301 -0.339908
C27   C     C_R   0.821518 0.384329 0.475843 0.569329
C28   C     C_R   0.722745 0.496729 0.366967 0.524559
C29   C     C_R   0.672154 0.497482 0.370606 -0.320399
C30   C     C_R   0.672138 0.503368 0.616234 -0.178912
C31   C     C_R   0.722215 0.502795 0.613029 -0.192138
C32   C     C_R   0.747369 0.499161 0.489171 0.280558
O10   O     O_2   0.795364 0.277696 0.461582 -0.526477
C33   C     C_R   0.024833 0.375492 0.468480 0.028846
C34   C     C_R   0.050708 0.484069 0.508619 0.011921
C35   C     C_R   0.025857 0.594148 0.549781 0.009146
C36   C     C_R   0.050703 0.272098 0.417397 -0.315223
H1    H     H_    0.652811 0.495457 0.276609 0.172603
H2    H     H_    0.962306 0.171202 0.458014 0.148319
O11   O     O_2   0.203034 0.683726 0.604124 -0.523115
C37   C     C_R   0.102638 0.688549 0.612484 -0.220262
C38   C     C_R   0.950477 0.715369 0.528329 -0.124834
C39   C     C_R   0.900571 0.718198 0.519192 -0.152802
O12   O     O_2   0.799721 0.716489 0.512832 -0.533750
C40   C     C_R   0.052166 0.692242 0.612820 0.422370
H3    H     H_    0.882844 0.808416 0.521385 0.195146
C41   C     C_R   0.499435 0.062865 0.621693 0.010134
C42   C     C_R   0.490893 0.128536 0.503265 -0.188809
C43   C     C_R   0.470978 0.066662 0.392439 -0.198756
C44   C     C_R   0.467518 0.936404 0.393211 0.445537
C45   C     C_R   0.487220 0.870574 0.503726 -0.200043
C46   C     C_R   0.497964 0.935130 0.621708 0.022820
C47   C     C_3   0.539662 0.923904 0.714870 -0.489535
C48   C     C_3   0.541467 0.066845 0.714901 0.297949
C49   C     C_R   0.474879 0.409960 0.073744 0.073532
N3    N     N_R   0.499670 0.499140 0.142800 -0.152441
C50   C     C_R   0.528557 0.582008 0.067287 0.469707
C51   C     C_R   0.528192 0.581198 0.924305 -0.092116
N4    N     N_R   0.499670 0.499180 0.857150 -0.120535
C52   C     C_R   0.474416 0.410913 0.931386 0.140548
C53   C     C_3   0.421007 0.388797 0.932443 0.255918
C54   C     C_3   0.422007 0.385003 0.085993 -0.529752
H4    H     H_    0.413921 0.290187 0.128816 0.178999
O13   O     O_3   0.354747 0.330012 0.670996 -0.777613
H5    H     H_    0.334246 0.255890 0.694028 0.346423
O14   O     O_3   0.252987 0.627784 0.312995 -0.720315
H6    H     H_    0.276062 0.674973 0.253233 0.351607
H7    H     H_    0.122470 0.765207 0.657833 0.195400
H8    H     H_    0.968977 0.805050 0.528760 0.198946
H9    H     H_    0.653377 0.505916 0.713436 0.179486
H10   H     H_    0.741654 0.504630 0.706837 0.166704
O15   O     O_3   0.028297 0.784828 0.684573 -0.778932
H11   H     H_    0.052031 0.844409 0.722992 0.344454
H12   H     H_    0.459277 0.118503 0.304635 0.183688
O16   O     O_3   0.446972 0.878437 0.283856 -0.731460
H13   H     H_    0.431727 0.798759 0.315722 0.340609
H14   H     H_    0.528396 0.883394 0.814614 0.203403
O17   O     O_3   0.250408 0.349260 0.694663 -0.731159
H15   H     H_    0.269909 0.338676 0.776596 0.346409
H16   H     H_    0.571623 0.878800 0.666272 0.208028
H17   H     H_    0.532393 0.109352 0.814592 0.142468
O18   O     O_3   0.584006 0.117909 0.655031 -0.723566
H18   H     H_    0.589304 0.078614 0.565066 0.347696
O19   O     O_3   0.557987 0.670205 0.125475 -0.764186
H19   H     H_    0.559793 0.651510 0.222164 0.387585
H20   H     H_    0.550365 0.647830 0.867155 0.160260
O20   O     O_3   0.396297 0.493806 0.884891 -0.678069
H21   H     H_    0.361447 0.473832 0.898236 0.354887
H22   H     H_    0.410408 0.298586 0.884555 0.141596
H23   H     H_    0.402042 0.462929 0.135596 0.246146
O21   O     O_3   0.125623 0.169227 0.359624 -0.681273
H24   H     H_    0.102164 0.103409 0.332852 0.333215
O22   O     O_3   0.748931 0.493727 0.246622 -0.740499
H25   H     H_    0.726215 0.492253 0.170514 0.337095
H26   H     H_    0.876366 0.177787 0.455095 0.195110
H27   H     H_    0.032267 0.191643 0.376466 0.139497
H28   H     H_    0.348873 0.623935 0.337307 0.183031

loop_
_geom_bond_atom_site_label_1
_geom_bond_atom_site_label_2
_geom_bond_distance
_ccdc_geom_bond_type
C54   H23   1.112025 S    
C38   C39   1.388013 A    
C17   C29   1.404961 A    
C30   H9    1.083114 S    
C28   C29   1.401212 A    
O18   H18   0.993641 S    
C12   C15   1.408276 A    
C30   C31   1.386919 A    
O19   H19   0.978129 S    
C15   C37   1.395896 A    
C47   H14   1.111518 S    
O13   H5    0.990002 S    
C49   C54   1.487915 S    
C27   O10   1.349958 S    
Zn2   N3    2.018300 S    
C43   C44   1.389077 A    
C20   C24   1.413498 A    
C24   C25   1.408306 A    
C14   C36   1.399850 A    
C26   N2    1.365163 A    
C44   O16   1.378718 S    
O7    C4    1.297031 A    
C5    C13   1.408303 A    
O22   H25   0.991747 S    
C5    O9    1.349469 S    
C5    N1    1.365001 A    
C22   C23   1.396887 A    
C52   C53   1.495440 S    
O5    C3    1.284393 A    
C6    O11   1.350444 S    
C14   O21   1.383637 S    
C25   C39   1.396696 A    
C2    C16   1.454344 S    
C33   C34   1.416793 A    
C41   C48   1.501350 S    
C49   N3    1.361250 A    
C48   H17   1.111656 S    
C10   O17   1.381020 S    
C50   C51   1.414254 A    
O17   H15   0.990329 S    
C50   O19   1.373872 S    
C29   H1    1.083350 S    
C53   H22   1.112532 S    
C47   C48   1.522133 S    
C9    C10   1.413226 A    
C17   C30   1.402528 A    
C48   O18   1.409542 S    
N3    C50   1.388585 A    
C19   C35   1.417576 A    
O3    Zn1   2.018028 S    
O21   H24   0.991608 S    
N1    C6    1.362708 A    
C33   C36   1.409531 A    
C1    C42   1.414355 S    
C28   O22   1.380576 S    
C12   C34   1.413426 A    
C18   C33   1.414945 A    
C12   C13   1.415611 A    
O3    C2    1.296325 A    
C53   C54   1.519633 S    
Zn1   N4    2.017309 S    
C53   O20   1.401691 S    
C8    C16   1.398303 A    
C13   C14   1.410259 A    
O15   H11   0.991798 S    
C51   H20   1.082216 S    
C36   H27   1.077862 S    
C35   C40   1.421648 A    
C44   C45   1.417824 A    
C41   C42   1.387025 A    
O1    C1    1.284910 A    
C23   C24   1.408111 A    
C7    C11   1.401137 A    
C54   H4    1.111395 S    
C25   C26   1.398052 A    
C26   O12   1.349922 S    
Zn1   O7    2.001666 S    
C19   C20   1.416367 A    
Zn2   O8    2.018028 S    
C21   C22   1.388208 A    
N1    C11   1.427236 S    
C38   H8    1.078917 S    
C7    O14   1.380931 S    
C47   H16   1.112603 S    
C8    H28   1.084192 S    
C34   C35   1.422169 A    
C9    C16   1.405294 A    
O8    C4    1.297028 A    
C41   C46   1.360131 A    
C4    C17   1.461810 S    
C40   O15   1.382884 S    
N2    C27   1.365442 A    
C31   C32   1.396553 A    
C37   C40   1.399013 A    
Zn1   O5    1.985558 S    
C18   C21   1.413974 A    
O1    Zn1   1.989374 S    
O2    Zn2   1.985559 S    
C6    C15   1.396297 A    
N4    C52   1.366642 A    
C31   H10   1.083064 S    
O6    C3    1.288367 A    
O4    Zn2   2.001668 S    
C21   H2    1.078632 S    
C43   H12   1.083992 S    
C39   H3    1.083490 S    
N2    C32   1.423472 S    
C22   H26   1.083514 S    
C45   C46   1.393340 A    
C7    C8    1.396712 A    
O2    C1    1.285208 A    
C49   C52   1.408075 A    
C51   N4    1.357312 A    
C18   C20   1.415707 A    
O4    C2    1.292590 A    
C3    C45   1.422948 S    
O20   H21   0.992119 S    
C23   C27   1.398216 A    
C42   C43   1.402087 A    
O14   H6    0.991786 S    
O16   H13   0.990486 S    
Zn2   O6    1.989373 S    
C46   C47   1.498747 S    
C9    O13   1.381104 S    
C28   C32   1.401009 A    
C10   C11   1.403142 A    
C19   C38   1.412615 A    
C37   H7    1.083601 S    
