data_mof_unit_pretest_1955.cif
_audit_creation_date              2012-12-10T18:21:24-0500
_audit_creation_method            fapswitch 2.2
_symmetry_space_group_name_H-M    P1
_symmetry_Int_Tables_number       1
_space_group_crystal_system       monoclinic
_cell_length_a                    35.649774
_cell_length_b                    35.649773
_cell_length_c                    23.685544
_cell_angle_alpha                 90.0
_cell_angle_beta                  90.000012
_cell_angle_gamma                 90.0
_cell_volume                      30102.108287

loop_
_atom_site_label
_atom_site_type_symbol
_atom_type_description
_atom_site_fract_x
_atom_site_fract_y
_atom_site_fract_z
_atom_type_partial_charge
C1    C     C_R   0.000000 0.427629 0.500000 0.789153
C2    C     C_R   0.427629 0.000000 0.500000 0.789153
C3    C     C_R   0.000000 0.572371 0.500000 0.789153
C4    C     C_R   0.572371 0.000000 0.500000 0.789153
C5    C     C_R   0.500000 0.927629 0.000000 0.789153
C6    C     C_R   0.927629 0.500000 0.000000 0.789153
C7    C     C_R   0.500000 0.072371 0.000000 0.789153
C8    C     C_R   0.072371 0.500000 0.000000 0.789153
C9    C     C_1   0.000000 0.266920 0.500000 -0.064700
C10   C     C_1   0.266920 0.000000 0.500000 -0.064700
C11   C     C_1   1.000000 0.733080 0.500000 -0.064700
C12   C     C_1   0.733080 0.000000 0.500000 -0.064700
C13   C     C_1   0.500000 0.766920 0.000000 -0.064700
C14   C     C_1   0.766920 0.500000 0.000000 -0.064700
C15   C     C_1   0.500000 0.233080 1.000000 -0.064700
C16   C     C_1   0.233080 0.500000 1.000000 -0.064700
C17   C     C_R   0.966033 0.326892 0.499880 -0.156876
C18   C     C_R   0.326892 0.033966 0.499880 -0.156875
C19   C     C_R   0.033966 0.673108 0.499881 -0.156876
C20   C     C_R   0.673107 0.966033 0.499881 -0.156875
C21   C     C_R   0.966033 0.673108 0.500119 -0.156876
C22   C     C_R   0.326892 0.966033 0.500120 -0.156875
C23   C     C_R   0.033966 0.326892 0.500120 -0.156876
C24   C     C_R   0.673107 0.033966 0.500119 -0.156875
C25   C     C_R   0.466034 0.826892 0.999884 -0.156876
C26   C     C_R   0.826892 0.533966 0.999880 -0.156876
C27   C     C_R   0.533966 0.173108 0.999879 -0.156875
C28   C     C_R   0.173108 0.466033 0.999881 -0.156876
C29   C     C_R   0.466033 0.173108 0.000121 -0.156875
C30   C     C_R   0.826892 0.466034 0.000120 -0.156876
C31   C     C_R   0.533966 0.826892 0.000116 -0.156876
C32   C     C_R   0.173108 0.533966 0.000119 -0.156876
C33   C     C_R   0.965992 0.366097 0.499884 -0.188643
C34   C     C_R   0.366097 0.034008 0.499883 -0.188643
C35   C     C_R   0.034008 0.633903 0.499884 -0.188643
C36   C     C_R   0.633903 0.965992 0.499885 -0.188643
C37   C     C_R   0.965992 0.633903 0.500116 -0.188643
C38   C     C_R   0.366097 0.965992 0.500117 -0.188642
C39   C     C_R   0.034008 0.366097 0.500116 -0.188643
C40   C     C_R   0.633903 0.034008 0.500115 -0.188643
C41   C     C_R   0.465992 0.866097 0.999888 -0.188643
C42   C     C_R   0.866097 0.534008 0.999884 -0.188643
C43   C     C_R   0.534008 0.133903 0.999883 -0.188645
C44   C     C_R   0.133903 0.465992 0.999884 -0.188643
C45   C     C_R   0.465992 0.133903 0.000117 -0.188644
C46   C     C_R   0.866097 0.465992 0.000116 -0.188642
C47   C     C_R   0.534008 0.866097 0.000112 -0.188643
C48   C     C_R   0.133903 0.534008 0.000115 -0.188643
C49   C     C_R   1.000000 0.386133 0.500000 -0.035969
C50   C     C_R   0.386133 0.000000 0.500000 -0.035969
C51   C     C_R   0.000000 0.613866 0.500000 -0.035969
C52   C     C_R   0.613866 0.000000 0.500000 -0.035969
C53   C     C_R   0.500000 0.886133 0.000000 -0.035969
C54   C     C_R   0.886133 0.500000 0.000000 -0.035969
C55   C     C_R   0.500000 0.113866 0.000000 -0.035968
C56   C     C_R   0.113866 0.500000 0.000000 -0.035969
C57   C     C_R   0.000000 0.307240 0.500000 0.144057
C58   C     C_R   0.307240 0.000000 0.500000 0.144056
C59   C     C_R   1.000000 0.692760 0.500000 0.144056
C60   C     C_R   0.692760 0.000000 0.500000 0.144056
C61   C     C_R   0.500000 0.807240 0.000000 0.144056
C62   C     C_R   0.807240 0.500000 0.000000 0.144056
C63   C     C_R   0.500000 0.192760 1.000000 0.144056
C64   C     C_R   0.192760 0.500000 1.000000 0.144056
C65   C     C_R   0.927761 0.000000 0.500000 0.813699
C66   C     C_R   0.000000 0.072239 0.500000 0.813699
C67   C     C_R   0.072239 0.000000 0.500000 0.813698
C68   C     C_R   1.000000 0.927761 0.500000 0.813700
C69   C     C_R   0.427761 0.500000 0.000000 0.813700
C70   C     C_R   0.500000 0.572239 0.000000 0.813699
C71   C     C_R   0.572239 0.500000 0.000000 0.813699
C72   C     C_R   0.500000 0.427761 0.000000 0.813700
C73   C     C_R   0.000000 0.500000 0.608222 0.828652
C74   C     C_R   0.500000 0.000000 0.608222 0.828652
C75   C     C_R   0.000000 0.500000 0.391778 0.828652
C76   C     C_R   0.500000 0.000000 0.391778 0.828652
C77   C     C_R   0.500000 0.000000 0.108222 0.828652
C78   C     C_R   0.000000 0.500000 0.108222 0.828652
C79   C     C_R   0.500000 0.000000 0.891778 0.828652
C80   C     C_R   0.000000 0.500000 0.891778 0.828652
C81   C     C_1   0.000000 0.500000 0.669042 -0.178149
C82   C     C_1   0.500000 0.000000 0.669042 -0.178149
C83   C     C_1   1.000000 0.500000 0.330958 -0.178149
C84   C     C_1   0.500000 0.000000 0.330958 -0.178149
C85   C     C_1   0.500000 0.000000 0.169042 -0.178149
C86   C     C_1   0.000000 0.500000 0.169042 -0.178149
C87   C     C_1   0.500000 1.000000 0.830958 -0.178149
C88   C     C_1   0.000000 0.500000 0.830958 -0.178149
C89   C     C_1   0.000000 0.500000 0.720082 0.005224
C90   C     C_1   0.500000 0.000000 0.720082 0.005224
C91   C     C_1   1.000000 0.500000 0.279918 0.005224
C92   C     C_1   0.500000 0.000000 0.279918 0.005224
C93   C     C_1   0.500000 0.000000 0.220082 0.005224
C94   C     C_1   1.000000 0.500000 0.220082 0.005224
C95   C     C_1   0.500000 1.000000 0.779918 0.005224
C96   C     C_1   0.000000 0.500000 0.779918 0.005224
C97   C     C_R   0.974807 0.173270 0.465864 -0.151450
C98   C     C_R   0.173270 0.025193 0.465863 -0.151451
C99   C     C_R   0.025193 0.826730 0.465864 -0.151450
C100  C     C_R   0.826730 0.974807 0.465863 -0.151452
C101  C     C_R   0.974807 0.826730 0.534136 -0.151450
C102  C     C_R   0.173270 0.974807 0.534137 -0.151451
C103  C     C_R   0.025193 0.173270 0.534136 -0.151450
C104  C     C_R   0.826730 0.025193 0.534137 -0.151451
C105  C     C_R   0.474807 0.673270 0.965864 -0.151451
C106  C     C_R   0.673270 0.525193 0.965864 -0.151451
C107  C     C_R   0.525193 0.326730 0.965863 -0.151451
C108  C     C_R   0.326730 0.474807 0.965863 -0.151451
C109  C     C_R   0.474807 0.326730 0.034136 -0.151451
C110  C     C_R   0.673270 0.474807 0.034136 -0.151450
C111  C     C_R   0.525193 0.673270 0.034137 -0.151451
C112  C     C_R   0.326730 0.525193 0.034136 -0.151451
C113  C     C_R   0.974480 0.133910 0.465274 0.120311
C114  C     C_R   0.133910 0.025520 0.465274 0.120310
C115  C     C_R   0.025520 0.866090 0.465274 0.120311
C116  C     C_R   0.866090 0.974480 0.465274 0.120310
C117  C     C_R   0.974480 0.866090 0.534726 0.120311
C118  C     C_R   0.133910 0.974480 0.534726 0.120310
C119  C     C_R   0.025520 0.133910 0.534726 0.120310
C120  C     C_R   0.866090 0.025520 0.534726 0.120310
C121  C     C_R   0.474480 0.633910 0.965274 0.120311
C122  C     C_R   0.633910 0.525520 0.965274 0.120310
C123  C     C_R   0.525520 0.366090 0.965274 0.120311
C124  C     C_R   0.366090 0.474480 0.965274 0.120310
C125  C     C_R   0.474480 0.366090 0.034726 0.120311
C126  C     C_R   0.633910 0.474480 0.034726 0.120310
C127  C     C_R   0.525520 0.633910 0.034726 0.120311
C128  C     C_R   0.366090 0.525520 0.034726 0.120310
C129  C     C_R   0.000000 0.113788 0.500000 -0.057294
C130  C     C_R   0.113788 0.000000 0.500000 -0.057294
C131  C     C_R   1.000000 0.886212 0.500000 -0.057294
C132  C     C_R   0.886212 0.000000 0.500000 -0.057294
C133  C     C_R   0.500000 0.613788 0.000000 -0.057294
C134  C     C_R   0.613788 0.500000 0.000000 -0.057293
C135  C     C_R   0.500000 0.386212 1.000000 -0.057294
C136  C     C_R   0.386212 0.500000 1.000000 -0.057293
C137  C     C_R   0.000000 0.192796 0.500000 0.053358
C138  C     C_R   0.192796 0.000000 0.500000 0.053359
C139  C     C_R   1.000000 0.807204 0.500000 0.053359
C140  C     C_R   0.807204 0.000000 0.500000 0.053359
C141  C     C_R   0.500000 0.692796 0.000000 0.053359
C142  C     C_R   0.692796 0.500000 0.000000 0.053359
C143  C     C_R   0.500000 0.307204 1.000000 0.053359
C144  C     C_R   0.307204 0.500000 1.000000 0.053359
C145  C     C_1   0.000000 0.233131 0.500000 -0.038923
C146  C     C_1   0.233131 0.000000 0.500000 -0.038923
C147  C     C_1   1.000000 0.766869 0.500000 -0.038923
C148  C     C_1   0.766869 0.000000 0.500000 -0.038923
C149  C     C_1   0.500000 0.733131 0.000000 -0.038923
C150  C     C_1   0.733131 0.500000 0.000000 -0.038923
C151  C     C_1   0.500000 0.266869 1.000000 -0.038923
C152  C     C_1   0.266869 0.500000 1.000000 -0.038923
Cu1   Cu    Cu3+1 0.037270 0.500000 0.500000 0.953249
Cu2   Cu    Cu3+1 0.500000 0.962730 0.500000 0.953249
Cu3   Cu    Cu3+1 0.962730 0.500000 0.500000 0.953249
Cu4   Cu    Cu3+1 0.500000 0.037270 0.500000 0.953249
Cu5   Cu    Cu3+1 0.537270 0.000000 0.000000 0.953249
Cu6   Cu    Cu3+1 0.000000 0.462730 0.000000 0.953249
Cu7   Cu    Cu3+1 0.462730 0.000000 0.000000 0.953249
Cu8   Cu    Cu3+1 0.000000 0.537270 0.000000 0.953249
Cu9   Cu    Cu3+1 0.000000 0.000000 0.555780 0.931703
Cu10  Cu    Cu3+1 0.000000 1.000000 0.444220 0.931703
Cu11  Cu    Cu3+1 0.500000 0.500000 0.055780 0.931703
Cu12  Cu    Cu3+1 0.500000 0.500000 0.944220 0.931704
H1    H     H_    0.955353 0.188856 0.439629 0.140549
H2    H     H_    0.188856 0.044647 0.439628 0.140549
H3    H     H_    0.044647 0.811144 0.439629 0.140549
H4    H     H_    0.811144 0.955353 0.439628 0.140550
H5    H     H_    0.955353 0.811144 0.560371 0.140549
H6    H     H_    0.188856 0.955353 0.560372 0.140549
H7    H     H_    0.044647 0.188856 0.560371 0.140549
H8    H     H_    0.811144 0.044647 0.560372 0.140549
H9    H     H_    0.455353 0.688856 0.939629 0.140550
H10   H     H_    0.688856 0.544647 0.939629 0.140549
H11   H     H_    0.544647 0.311144 0.939629 0.140550
H12   H     H_    0.311144 0.455353 0.939629 0.140549
H13   H     H_    0.455353 0.311144 0.060371 0.140549
H14   H     H_    0.688856 0.455353 0.060371 0.140549
H15   H     H_    0.544647 0.688856 0.060371 0.140550
H16   H     H_    0.311144 0.544647 0.060371 0.140549
H17   H     H_    0.939584 0.311918 0.499785 0.132193
H18   H     H_    0.311918 0.060416 0.499784 0.132193
H19   H     H_    0.060416 0.688082 0.499785 0.132193
H20   H     H_    0.688082 0.939584 0.499787 0.132193
H21   H     H_    0.939584 0.688082 0.500215 0.132193
H22   H     H_    0.311918 0.939584 0.500216 0.132193
H23   H     H_    0.060416 0.311918 0.500215 0.132193
H24   H     H_    0.688082 0.060416 0.500213 0.132193
H25   H     H_    0.439584 0.811918 0.999792 0.132194
H26   H     H_    0.811918 0.560416 0.999785 0.132193
H27   H     H_    0.560416 0.188082 0.999783 0.132193
H28   H     H_    0.188082 0.439584 0.999787 0.132193
H29   H     H_    0.439584 0.188082 0.000217 0.132193
H30   H     H_    0.811918 0.439584 0.000215 0.132193
H31   H     H_    0.560415 0.811918 0.000208 0.132194
H32   H     H_    0.188082 0.560416 0.000213 0.132193
H33   H     H_    0.939346 0.380676 0.499789 0.154555
H34   H     H_    0.380676 0.060654 0.499789 0.154555
H35   H     H_    0.060654 0.619324 0.499790 0.154555
H36   H     H_    0.619324 0.939346 0.499791 0.154555
H37   H     H_    0.939346 0.619324 0.500210 0.154555
H38   H     H_    0.380676 0.939346 0.500211 0.154555
H39   H     H_    0.060654 0.380676 0.500211 0.154555
H40   H     H_    0.619324 0.060654 0.500209 0.154555
H41   H     H_    0.439346 0.880676 0.999797 0.154556
H42   H     H_    0.880676 0.560654 0.999789 0.154555
H43   H     H_    0.560654 0.119324 0.999788 0.154556
H44   H     H_    0.119323 0.439346 0.999791 0.154555
H45   H     H_    0.439346 0.119324 0.000212 0.154556
H46   H     H_    0.880676 0.439346 0.000210 0.154555
H47   H     H_    0.560654 0.880676 0.000203 0.154556
H48   H     H_    0.119323 0.560654 0.000209 0.154555
O1    O     O_R   0.031480 0.445630 0.499980 -0.587740
O2    O     O_R   0.445630 0.968520 0.499980 -0.587740
O3    O     O_R   0.968520 0.554370 0.499980 -0.587740
O4    O     O_R   0.554370 0.031480 0.499980 -0.587740
O5    O     O_R   0.031480 0.554370 0.500020 -0.587740
O6    O     O_R   0.445630 0.031480 0.500020 -0.587740
O7    O     O_R   0.968520 0.445630 0.500020 -0.587740
O8    O     O_R   0.554370 0.968520 0.500020 -0.587740
O9    O     O_R   0.531480 0.945630 0.999980 -0.587740
O10   O     O_R   0.945630 0.468520 0.999980 -0.587740
O11   O     O_R   0.468520 0.054370 0.999980 -0.587740
O12   O     O_R   0.054370 0.531480 0.999980 -0.587740
O13   O     O_R   0.531480 0.054370 0.000020 -0.587740
O14   O     O_R   0.945630 0.531480 0.000020 -0.587740
O15   O     O_R   0.468520 0.945630 0.000020 -0.587740
O16   O     O_R   0.054370 0.468520 0.000020 -0.587740
O17   O     O_R   0.031480 0.500000 0.581380 -0.576753
O18   O     O_R   0.500000 0.968520 0.581380 -0.576753
O19   O     O_R   0.968520 0.500000 0.581380 -0.576752
O20   O     O_R   0.500000 0.031480 0.581380 -0.576753
O21   O     O_R   0.031480 0.500000 0.418620 -0.576753
O22   O     O_R   0.500000 0.031480 0.418620 -0.576753
O23   O     O_R   0.968520 0.500000 0.418620 -0.576752
O24   O     O_R   0.500000 0.968520 0.418620 -0.576752
O25   O     O_R   0.531480 0.000000 0.081380 -0.576753
O26   O     O_R   0.000000 0.468520 0.081380 -0.576752
O27   O     O_R   0.468520 0.000000 0.081380 -0.576753
O28   O     O_R   0.000000 0.531480 0.081380 -0.576753
O29   O     O_R   0.531480 0.000000 0.918620 -0.576753
O30   O     O_R   0.000000 0.531480 0.918620 -0.576753
O31   O     O_R   0.468520 0.000000 0.918620 -0.576752
O32   O     O_R   0.000000 0.468520 0.918620 -0.576752
O33   O     O_R   0.945750 0.999990 0.547080 -0.580301
O34   O     O_R   0.999990 0.054250 0.547080 -0.580302
O35   O     O_R   0.054250 0.000010 0.547080 -0.580302
O36   O     O_R   0.000010 0.945750 0.547080 -0.580301
O37   O     O_R   0.945750 0.000010 0.452920 -0.580301
O38   O     O_R   0.999990 0.945750 0.452920 -0.580301
O39   O     O_R   0.054250 0.999990 0.452920 -0.580301
O40   O     O_R   0.000010 0.054250 0.452920 -0.580301
O41   O     O_R   0.445750 0.499990 0.047080 -0.580301
O42   O     O_R   0.499990 0.554250 0.047080 -0.580301
O43   O     O_R   0.554250 0.500010 0.047080 -0.580301
O44   O     O_R   0.500010 0.445750 0.047080 -0.580301
O45   O     O_R   0.445750 0.500010 0.952920 -0.580301
O46   O     O_R   0.499990 0.445750 0.952920 -0.580301
O47   O     O_R   0.554250 0.499990 0.952920 -0.580301
O48   O     O_R   0.500010 0.554250 0.952920 -0.580301
C153  C     C_3   0.946152 0.114140 0.428453 -0.839186
H49   H     H_    0.926224 0.134177 0.408694 0.222206
H50   H     H_    0.960698 0.098935 0.393944 0.250825
H51   H     H_    0.929546 0.094011 0.454006 0.221206
C154  C     C_3   0.114140 0.053847 0.428452 -0.839187
H52   H     H_    0.134177 0.073775 0.408693 0.222206
H53   H     H_    0.098935 0.039302 0.393943 0.250825
H54   H     H_    0.094011 0.070454 0.454005 0.221207
C155  C     C_3   0.053848 0.885860 0.428453 -0.839186
H55   H     H_    0.073775 0.865823 0.408694 0.222206
H56   H     H_    0.039302 0.901065 0.393944 0.250825
H57   H     H_    0.070454 0.905989 0.454006 0.221206
C156  C     C_3   0.885860 0.946153 0.428452 -0.839187
H58   H     H_    0.865823 0.926225 0.408693 0.222206
H59   H     H_    0.901065 0.960698 0.393943 0.250825
H60   H     H_    0.905989 0.929546 0.454005 0.221207
C157  C     C_3   0.946152 0.885860 0.571547 -0.839186
H61   H     H_    0.926225 0.865823 0.591306 0.222206
H62   H     H_    0.960698 0.901065 0.606056 0.250825
H63   H     H_    0.929546 0.905989 0.545994 0.221206
C158  C     C_3   0.114140 0.946153 0.571548 -0.839187
H64   H     H_    0.134177 0.926225 0.591307 0.222206
H65   H     H_    0.098935 0.960698 0.606056 0.250825
H66   H     H_    0.094011 0.929546 0.545995 0.221207
C159  C     C_3   0.053848 0.114140 0.571547 -0.839187
H67   H     H_    0.073775 0.134177 0.591306 0.222206
H68   H     H_    0.039302 0.098935 0.606056 0.250825
H69   H     H_    0.070454 0.094011 0.545994 0.221206
C160  C     C_3   0.885860 0.053847 0.571548 -0.839187
H70   H     H_    0.865823 0.073775 0.591307 0.222206
H71   H     H_    0.901065 0.039302 0.606056 0.250825
H72   H     H_    0.905989 0.070454 0.545995 0.221207
C161  C     C_3   0.446152 0.614140 0.928452 -0.839187
H73   H     H_    0.426225 0.634177 0.908693 0.222206
H74   H     H_    0.460698 0.598935 0.893944 0.250825
H75   H     H_    0.429546 0.594011 0.954005 0.221206
C162  C     C_3   0.614140 0.553848 0.928453 -0.839186
H76   H     H_    0.634177 0.573775 0.908694 0.222205
H77   H     H_    0.598935 0.539302 0.893944 0.250825
H78   H     H_    0.594011 0.570454 0.954006 0.221206
C163  C     C_3   0.553848 0.385860 0.928452 -0.839187
H79   H     H_    0.573775 0.365823 0.908693 0.222206
H80   H     H_    0.539302 0.401065 0.893944 0.250825
H81   H     H_    0.570454 0.405989 0.954005 0.221206
C164  C     C_3   0.385860 0.446152 0.928452 -0.839187
H82   H     H_    0.365823 0.426225 0.908693 0.222206
H83   H     H_    0.401065 0.460698 0.893944 0.250825
H84   H     H_    0.405989 0.429546 0.954005 0.221206
C165  C     C_3   0.446152 0.385860 0.071547 -0.839187
H85   H     H_    0.426225 0.365823 0.091307 0.222206
H86   H     H_    0.460698 0.401065 0.106056 0.250825
H87   H     H_    0.429546 0.405989 0.045994 0.221206
C166  C     C_3   0.614140 0.446152 0.071547 -0.839187
H88   H     H_    0.634177 0.426225 0.091307 0.222206
H89   H     H_    0.598935 0.460698 0.106056 0.250825
H90   H     H_    0.594011 0.429546 0.045994 0.221206
C167  C     C_3   0.553848 0.614140 0.071548 -0.839188
H91   H     H_    0.573775 0.634177 0.091307 0.222206
H92   H     H_    0.539302 0.598935 0.106056 0.250825
H93   H     H_    0.570454 0.594011 0.045995 0.221206
C168  C     C_3   0.385860 0.553848 0.071547 -0.839188
H94   H     H_    0.365823 0.573775 0.091306 0.222206
H95   H     H_    0.401065 0.539302 0.106056 0.250826
H96   H     H_    0.405989 0.570454 0.045994 0.221206

loop_
_geom_bond_atom_site_label_1
_geom_bond_atom_site_label_2
_ccdc_geom_bond_type
C103  H7    S    
C7    C55   S    
C32   H32   S    
C99   C139  A    
C8    C56   S    
Cu1   O1    S    
C90   C95   S    
C163  H79   S    
C158  H66   S    
C27   H27   S    
C98   C138  A    
C123  C163  S    
C21   C59   A    
C103  C137  A    
C98   C114  A    
C110  H14   S    
C3    O3    A    
C22   C38   A    
C156  H60   S    
C18   C58   A    
C48   H48   S    
Cu4   O4    S    
C79   O31   A    
C20   H20   S    
C125  C135  A    
C143  C151  S    
C78   O26   A    
C79   C87   S    
C111  H15   S    
C114  C130  A    
C120  C160  S    
C108  C124  A    
C73   C81   S    
C106  C142  A    
C99   H3    S    
C66   O40   A    
C36   H36   S    
Cu9   O36   S    
C25   C41   A    
C46   H46   S    
C28   C44   A    
C104  C140  A    
C29   C45   A    
Cu11  O42   S    
C7    O11   A    
Cu6   O32   S    
Cu6   O26   S    
Cu8   O12   S    
C2    O2    A    
C155  H56   S    
C35   C51   A    
C125  C165  S    
C108  C144  A    
C66   O34   A    
C163  H81   S    
C22   C58   A    
C68   C131  S    
Cu10  O37   S    
C83   C91   T    
C89   C96   S    
C80   C88   S    
C19   C35   A    
C91   C94   S    
C31   H31   S    
C29   H29   S    
C47   C53   A    
C29   C63   A    
C79   O29   A    
C126  C134  A    
C159  H68   S    
C168  H94   S    
C38   H38   S    
C2    O6    A    
C76   O22   A    
Cu8   O30   S    
C6    O10   A    
C102  H6    S    
C4    O4    A    
C47   H47   S    
C121  C161  S    
C11   C147  T    
C70   O42   A    
C73   O17   A    
C8    O16   A    
C35   H35   S    
C30   H30   S    
C68   O36   A    
Cu10  O39   S    
C10   C58   S    
C153  H49   S    
C166  H89   S    
C71   O47   A    
C14   C62   S    
C6    O14   A    
Cu11  O41   S    
C34   H34   S    
C122  C134  A    
C2    C50   S    
C85   C93   T    
C40   H40   S    
Cu4   O22   S    
C164  H83   S    
C87   C95   T    
Cu3   O23   S    
Cu1   O5    S    
C36   C52   A    
C24   C60   A    
C112  H16   S    
C77   C85   S    
C105  H9    S    
Cu12  O45   S    
Cu5   O9    S    
C162  H77   S    
Cu1   O17   S    
C97   C137  A    
C165  H86   S    
C32   C64   A    
C72   C135  S    
C7    O13   A    
C19   C59   A    
C45   H45   S    
C5    O15   A    
C123  C135  A    
C101  H5    S    
C22   H22   S    
Cu9   O33   S    
C161  H73   S    
C27   C43   A    
Cu4   O20   S    
C116  C132  A    
C168  H96   S    
C41   C53   A    
C106  C122  A    
C160  H70   S    
C76   O24   A    
C15   C151  T    
Cu11  O43   S    
C154  H53   S    
C71   O43   A    
C98   H2    S    
C110  C126  A    
C43   C55   A    
C39   C49   A    
C10   C146  T    
Cu1   Cu3   S    
C73   O19   A    
C65   C132  S    
C26   C42   A    
C69   O45   A    
C68   O38   A    
C23   C57   A    
Cu7   O27   S    
C30   C46   A    
C153  H51   S    
C115  C155  S    
C158  H65   S    
C141  C149  S    
C104  H8    S    
C122  C162  S    
Cu12  O48   S    
C144  C152  S    
C25   H25   S    
C23   H23   S    
C138  C146  S    
C156  H59   S    
Cu8   O14   S    
C116  C156  S    
C117  C131  A    
C111  C141  A    
C17   H17   S    
C45   C55   A    
C157  H63   S    
C84   C92   T    
C77   O25   A    
C88   C96   T    
C39   H39   S    
C31   C61   A    
C100  C116  A    
C107  C123  A    
Cu2   O2    S    
C76   C84   S    
C71   C134  S    
Cu9   Cu10  S    
C137  C145  S    
C6    C54   S    
Cu9   O35   S    
C161  H75   S    
C65   O37   A    
C128  C136  A    
C99   C115  A    
C33   C49   A    
C160  H72   S    
C128  C168  S    
C167  H92   S    
C4    O8    A    
Cu3   O7    S    
C20   C60   A    
Cu2   Cu4   S    
C8    O12   A    
Cu5   O13   S    
C119  C159  S    
C66   C129  S    
C81   C89   T    
C70   O48   A    
Cu5   Cu7   S    
C31   C47   A    
C155  H55   S    
Cu6   Cu8   S    
C32   C48   A    
C17   C33   A    
C72   O44   A    
C11   C59   S    
Cu7   O31   S    
C163  H80   S    
C101  C139  A    
C124  C136  A    
C43   H43   S    
C118  C158  S    
C74   O20   A    
C3    C51   S    
C159  H67   S    
C118  C130  A    
C44   C56   A    
C46   C54   A    
C106  H10   S    
Cu1   O21   S    
C109  C143  A    
C25   C61   A    
Cu3   O3    S    
C27   C63   A    
C28   C64   A    
Cu5   O25   S    
C69   C136  S    
C30   C62   A    
C1    O1    A    
C67   C130  S    
Cu2   O8    S    
C65   O33   A    
C127  C133  A    
C21   H21   S    
C82   C90   T    
C24   H24   S    
C101  C117  A    
C142  C150  S    
C42   C54   A    
C75   C83   S    
C166  H88   S    
C127  C167  S    
C107  H11   S    
C97   H1    S    
C108  H12   S    
C9    C145  T    
C92   C93   S    
C80   O30   A    
C42   H42   S    
C112  C128  A    
C20   C36   A    
C109  H13   S    
C21   C37   A    
C161  H74   S    
C164  H82   S    
C155  H57   S    
C77   O27   A    
C37   H37   S    
C160  H71   S    
C126  C166  S    
C17   C57   A    
C104  C120  A    
C5    O9    A    
C72   O46   A    
Cu12  O46   S    
C167  H93   S    
C162  H76   S    
Cu11  Cu12  S    
C74   O18   A    
C140  C148  S    
C26   H26   S    
C69   O41   A    
C115  C131  A    
C165  H85   S    
C139  C147  S    
C113  C129  A    
C4    C52   S    
C5    C53   S    
C159  H69   S    
C105  C141  A    
C37   C51   A    
Cu7   O11   S    
C18   H18   S    
C44   H44   S    
C102  C138  A    
C110  C142  A    
Cu5   O29   S    
C117  C157  S    
C100  C140  A    
C119  C129  A    
C168  H95   S    
C70   C133  S    
Cu10  O40   S    
C75   O23   A    
Cu7   O15   S    
C86   C94   T    
C154  H52   S    
C102  C118  A    
C78   C86   S    
Cu6   O10   S    
Cu2   O18   S    
C14   C150  T    
C124  C164  S    
Cu11  O44   S    
C67   O35   A    
C28   H28   S    
C34   C50   A    
C16   C152  T    
C114  C154  S    
C19   H19   S    
C153  H50   S    
C166  H90   S    
C158  H64   S    
C40   C52   A    
C80   O32   A    
C33   H33   S    
C3    O5    A    
C164  H84   S    
C156  H58   S    
C105  C121  A    
C1    O7    A    
C113  C153  S    
C112  C144  A    
C18   C34   A    
C109  C125  A    
C157  H62   S    
C111  C127  A    
C162  H78   S    
Cu12  O47   S    
C97   C113  A    
Cu6   O16   S    
C74   C82   S    
C165  H87   S    
C48   C56   A    
C78   O28   A    
Cu8   O28   S    
C120  C132  A    
C103  C119  A    
C38   C50   A    
C100  H4    S    
C12   C148  T    
C26   C62   A    
C13   C149  T    
Cu9   O34   S    
Cu10  O38   S    
C1    C49   S    
C23   C39   A    
Cu3   O19   S    
C24   C40   A    
C75   O21   A    
C9    C57   S    
C41   H41   S    
C167  H91   S    
C154  H54   S    
C12   C60   S    
C13   C61   S    
Cu2   O24   S    
C15   C63   S    
Cu4   O6    S    
C16   C64   S    
C121  C133  A    
C157  H61   S    
C107  C143  A    
C67   O39   A    
