data_mof_unit_pretest_1177.cif
_audit_creation_date              2012-12-11T14:14:16-0500
_audit_creation_method            fapswitch 2.2
_symmetry_space_group_name_H-M    P1
_symmetry_Int_Tables_number       1
_space_group_crystal_system       triclinic
_cell_length_a                    16.87592
_cell_length_b                    7.238038
_cell_length_c                    17.185128
_cell_angle_alpha                 92.059105
_cell_angle_beta                  99.240998
_cell_angle_gamma                 88.4464
_cell_volume                      2070.0724757

loop_
_atom_site_label
_atom_site_type_symbol
_atom_type_description
_atom_site_fract_x
_atom_site_fract_y
_atom_site_fract_z
_atom_type_partial_charge
O1    O     O_R   0.414560 0.494370 0.416770 -0.508560
O2    O     O_R   0.585440 0.994370 0.583230 -0.541314
O3    O     O_R   0.578370 0.819590 0.429320 -0.518705
O4    O     O_R   0.421630 0.319590 0.570680 -0.512366
C1    C     C_R   0.605231 0.651369 0.414118 0.699677
C2    C     C_R   0.394321 0.160216 0.585962 0.738430
O5    O     O_R   0.414740 0.823790 0.407360 -0.551734
O6    O     O_R   0.585260 0.323790 0.592640 -0.527662
O7    O     O_R   0.420650 0.998510 0.561120 -0.538844
O8    O     O_R   0.579350 0.498510 0.438880 -0.544892
C3    C     C_R   0.387325 0.651705 0.385771 0.589336
C4    C     C_R   0.613232 0.153808 0.613323 0.663203
O9    O     O_3   0.502130 0.662240 0.550470 -0.363072
O10   O     O_3   0.497870 0.162240 0.449530 -0.376258
V1    V     V_3+5 0.499600 0.935390 0.490640 1.584524
V2    V     V_3+5 0.500400 0.435390 0.509360 1.643019
C5    C     C_2   0.749005 0.073232 0.814485 -0.104769
C6    C     C_2   0.249277 0.667952 0.179840 -0.045737
C7    C     C_2   0.823958 0.133379 0.817854 -0.117449
C8    C     C_2   0.172042 0.636025 0.184230 -0.099279
H1    H     H_    0.735471 0.993530 0.862847 0.120173
H2    H     H_    0.267234 0.670230 0.121878 0.113408
H3    H     H_    0.834482 0.236342 0.776541 0.176686
H4    H     H_    0.149766 0.659302 0.239283 0.177381
C9    C     C_2   0.681653 0.137782 0.752657 -0.232904
C10   C     C_2   0.311701 0.711886 0.250049 -0.224293
C11   C     C_2   0.686200 0.128342 0.673718 0.199243
C12   C     C_2   0.320216 0.616894 0.318527 0.197466
C13   C     C_R   0.330512 0.170299 0.637744 -0.159547
C14   C     C_R   0.669738 0.627719 0.363826 -0.135017
C15   C     C_R   0.167032 0.100231 0.861659 -0.115423
C16   C     C_R   0.834110 0.641323 0.138545 -0.134574
C17   C     C_R   0.279378 0.933063 0.814515 0.443094
C18   C     C_R   0.724063 0.826985 0.180540 0.473730
C19   C     C_R   0.223298 0.953153 0.866637 -0.225911
C20   C     C_R   0.779352 0.791149 0.128681 -0.219155
C21   C     C_R   0.166937 0.228729 0.803012 -0.133196
C22   C     C_R   0.833376 0.525724 0.201760 -0.143310
C23   C     C_R   0.219537 0.207596 0.746536 0.050042
C24   C     C_R   0.780348 0.560852 0.256918 0.034547
C25   C     C_R   0.277535 0.059985 0.752903 0.047195
C26   C     C_R   0.723891 0.710959 0.245534 0.013990
C27   C     C_R   0.332187 0.044236 0.698183 -0.069796
C28   C     C_R   0.668842 0.740301 0.298979 -0.062288
C29   C     C_R   0.270900 0.313964 0.630545 -0.057861
C30   C     C_R   0.729075 0.484960 0.377430 -0.073431
C31   C     C_R   0.215359 0.331935 0.684173 -0.008378
C32   C     C_R   0.783519 0.449766 0.323606 -0.001301
H5    H     H_    0.378390 0.937220 0.703046 0.202658
H6    H     H_    0.622990 0.847725 0.289824 0.218504
H7    H     H_    0.223652 0.853870 0.912308 0.153137
H8    H     H_    0.779790 0.880807 0.079688 0.178650
H9    H     H_    0.123688 0.342137 0.800832 0.149645
H10   H     H_    0.876369 0.411486 0.208705 0.148562
O11   O     O_R   0.920750 0.773600 0.061260 -0.541347
O12   O     O_R   0.079250 0.273600 0.938740 -0.536081
O13   O     O_R   0.085340 0.439850 0.092570 -0.514256
O14   O     O_R   0.914660 0.939850 0.907430 -0.524760
C33   C     C_R   0.111776 0.610712 0.113644 0.687951
C34   C     C_R   0.887499 0.109591 0.886368 0.697569
O15   O     O_R   0.921720 0.444130 0.070790 -0.538096
O16   O     O_R   0.078280 0.944130 0.929210 -0.541864
O17   O     O_R   0.914480 0.269530 0.916840 -0.545065
O18   O     O_R   0.085520 0.769530 0.083160 -0.540520
C35   C     C_R   0.895918 0.616595 0.086096 0.714567
C36   C     C_R   0.104530 0.108227 0.913916 0.726609
O19   O     O_3   0.997840 0.601520 0.949550 -0.380000
O20   O     O_3   0.002160 0.101520 0.050450 -0.374061
V3    V     V_3+5 0.000400 0.328340 0.009360 1.524088
V4    V     V_3+5 0.999600 0.828340 0.990640 1.508840
C37   C     C_2   0.606743 0.205972 0.780995 0.811763
O21   O     O_2   0.574444 0.350256 0.756608 -0.496159
O22   O     O_R   0.572817 0.109961 0.836231 -0.586527
H11   H     H_    0.598878 0.984215 0.847761 0.303028
C38   C     C_2   0.371957 0.848251 0.236183 0.848885
O23   O     O_2   0.348975 0.997568 0.209229 -0.476500
O24   O     O_R   0.454342 0.806521 0.249406 -0.616369
H12   H     H_    0.467133 0.672585 0.262532 0.243101
S1    S     S_3+6 0.767735 0.006767 0.637851 0.056636
O25   O     O_2   0.836537 0.134251 0.637998 -0.296765
O26   O     O_2   0.796500 0.845482 0.688503 -0.312881
O27   O     O_3   0.739278 0.925681 0.545042 -0.437640
H13   H     H_    0.709817 0.811895 0.550538 0.360409
S2    S     S_3+6 0.261394 0.413329 0.325256 0.061669
O28   O     O_2   0.182365 0.472136 0.348849 -0.281909
O29   O     O_2   0.245604 0.309869 0.247042 -0.308277
O30   O     O_3   0.305111 0.262767 0.392415 -0.472249
H14   H     H_    0.337835 0.177259 0.363568 0.354961
C39   C     C_2   0.261432 0.439618 0.563570 0.891043
O31   O     O_2   0.207886 0.412805 0.507841 -0.481737
O32   O     O_R   0.309250 0.595307 0.567056 -0.618764
H15   H     H_    0.294732 0.674041 0.519024 0.294714
C40   C     C_2   0.737516 0.380561 0.450952 0.850348
O33   O     O_2   0.735702 0.211986 0.447811 -0.476847
O34   O     O_R   0.745357 0.476694 0.523600 -0.652414
H16   H     H_    0.747275 0.392533 0.569582 0.330679
S3    S     S_3+6 0.350778 0.747760 0.829244 0.053572
O35   O     O_2   0.346097 0.629207 0.755188 -0.296614
O36   O     O_2   0.433732 0.824634 0.848739 -0.297366
O37   O     O_3   0.333937 0.614882 0.903046 -0.482518
H17   H     H_    0.357061 0.682994 0.952124 0.354501
S4    S     S_3+6 0.657317 0.020005 0.162035 0.025765
O38   O     O_2   0.572934 0.952363 0.140868 -0.283781
O39   O     O_2   0.663066 0.143902 0.234718 -0.332484
O40   O     O_3   0.679892 0.141664 0.087194 -0.508700
H18   H     H_    0.645470 0.254865 0.086358 0.383406
C41   C     C_2   0.151952 0.480247 0.673467 0.794446
O41   O     O_2   0.170645 0.642150 0.672643 -0.526677
O42   O     O_R   0.071003 0.433464 0.663068 -0.634534
H19   H     H_    0.033634 0.545801 0.656227 0.338748
C42   C     C_2   0.847133 0.304137 0.339871 0.820084
O43   O     O_2   0.829786 0.140878 0.332182 -0.498090
O44   O     O_R   0.927033 0.355143 0.362319 -0.633824
H20   H     H_    0.965085 0.244346 0.371072 0.339018

loop_
_geom_bond_atom_site_label_1
_geom_bond_atom_site_label_2
_ccdc_geom_bond_type
C15   C36   S    
O30   H14   S    
C40   O33   D    
C12   S2    S    
C41   O42   S    
O22   H11   S    
O34   H16   S    
C18   C26   A    
S2    O30   S    
O2    C4    A    
C2    O7    A    
S3    O35   D    
C23   C25   A    
O24   H12   S    
O5    C3    A    
C33   O18   A    
C18   S4    S    
C34   O17   A    
C16   C20   A    
S2    O29   D    
C1    C14   S    
C11   S1    S    
C17   C19   A    
O13   C33   A    
O14   C34   A    
O16   V4    S    
S4    O40   S    
C28   H6    S    
S3    O36   D    
O17   V3    S    
O20   V3    S    
O1    C3    A    
C41   O41   D    
C9    C37   S    
C16   C22   A    
C39   O32   S    
C29   C39   S    
C6    C8    D    
C20   H8    S    
C21   H9    S    
C24   C26   A    
O6    V2    S    
C13   C27   A    
C25   C27   A    
C14   C28   A    
C26   C28   A    
O11   C35   A    
C29   C31   A    
C30   C32   A    
O16   C36   A    
C4    C11   S    
C8    H4    S    
S2    O28   D    
O4    C2    A    
O32   H15   S    
C37   O22   S    
C27   H5    S    
C5    H1    S    
C15   C21   A    
C13   C29   A    
O4    V2    S    
C7    H3    S    
C38   O23   D    
C22   H10   S    
O6    C4    A    
C6    C10   S    
C2    C13   S    
C10   C38   S    
C42   O44   S    
O1    V2    S    
C8    C33   S    
S4    O39   D    
O2    V1    S    
C38   O24   S    
O27   H13   S    
O18   V4    S    
C19   H7    S    
C15   C19   A    
S3    O37   S    
O3    V1    S    
C23   C31   A    
O44   H20   S    
O15   V3    S    
C24   C32   A    
C42   O43   D    
C6    H2    S    
C10   C12   D    
C14   C30   A    
O14   V4    S    
O3    C1    A    
S1    O27   S    
S1    O26   D    
C7    C34   S    
C9    C11   D    
O40   H18   S    
C31   C41   S    
O19   V4    S    
C17   C25   A    
O7    V1    S    
C5    C9    S    
C37   O21   D    
C21   C23   A    
O8    V2    S    
O42   H19   S    
C22   C24   A    
C30   C40   S    
C3    C12   S    
O12   C36   A    
O5    V1    S    
O37   H17   S    
C5    C7    D    
C18   C20   A    
C17   S3    S    
S4    O38   D    
O11   V4    S    
S1    O25   D    
O15   C35   A    
C1    O8    A    
C32   C42   S    
C40   O34   S    
O12   V3    S    
O9    V2    S    
O10   V1    S    
O13   V3    S    
C39   O31   D    
C16   C35   S    
