data_mof_unit_pretest_966.cif
_audit_creation_date              2012-12-10T18:55:58-0500
_audit_creation_method            fapswitch 2.2
_symmetry_space_group_name_H-M    P1
_symmetry_Int_Tables_number       1
_space_group_crystal_system       triclinic
_cell_length_a                    10.515109
_cell_length_b                    10.055414
_cell_length_c                    14.92884
_cell_angle_alpha                 90.130785
_cell_angle_beta                  95.061903
_cell_angle_gamma                 89.85225
_cell_volume                      1572.31786728

loop_
_atom_site_label
_atom_site_type_symbol
_atom_type_description
_atom_site_fract_x
_atom_site_fract_y
_atom_site_fract_z
_atom_type_partial_charge
C1    C     C_R   0.262680 0.499953 0.513304 0.921483
C2    C     C_R   0.942305 0.616816 0.481810 -0.126650
C3    C     C_R   0.940620 0.373155 0.493398 -0.154046
C4    C     C_R   0.062867 0.618922 0.528541 -0.136160
C5    C     C_R   0.524496 0.611467 0.092878 -0.181845
C6    C     C_R   0.440105 0.393435 0.905025 -0.175857
C7    C     C_R   0.436213 0.634460 0.898827 -0.191186
C8    C     C_R   0.377487 0.425413 0.092093 -0.165815
C9    C     C_R   0.544365 0.603610 0.185595 -0.169686
C10   C     C_R   0.454195 0.388111 0.814129 -0.171016
C11   C     C_R   0.453035 0.628784 0.808085 -0.154947
C12   C     C_R   0.739390 0.499274 0.490444 0.919136
C13   C     C_R   0.400609 0.415456 0.184168 -0.232861
C14   C     C_R   0.484480 0.503521 0.231129 -0.008935
C15   C     C_R   0.468645 0.505341 0.766065 0.006456
C16   C     C_R   0.441839 0.521200 0.045745 0.118537
C17   C     C_R   0.434959 0.516739 0.948278 0.117264
C18   C     C_R   0.875585 0.495756 0.479356 -0.147789
C19   C     C_R   0.130560 0.498718 0.535256 -0.124617
C20   C     C_3   0.607614 0.123146 0.658940 -0.389387
C21   C     C_3   0.730664 0.206287 0.674840 -0.281783
C22   C     C_3   0.767286 0.230538 0.774838 -0.936650
C23   C     C_R   0.498607 0.500286 0.327996 0.861234
C24   C     C_3   0.286053 0.868943 0.404630 -0.311061
C25   C     C_3   0.295607 0.786042 0.318483 -0.312342
C26   C     C_3   0.188825 0.814778 0.244877 -0.924295
C27   C     C_3   0.371121 0.130309 0.346822 -0.400475
C28   C     C_3   0.246808 0.210685 0.352828 -0.294318
C29   C     C_3   0.144325 0.182211 0.275989 -0.920500
C30   C     C_3   0.716435 0.870748 0.591837 -0.286001
C31   C     C_3   0.711886 0.788432 0.678272 -0.345438
C32   C     C_3   0.826214 0.814084 0.746461 -0.890118
C33   C     C_2   0.129234 0.259512 0.581505 0.947784
C34   C     C_R   0.493500 0.500740 0.671738 0.863687
C35   C     C_2   0.899231 0.727194 0.418961 0.929987
C36   C     C_2   0.883231 0.250482 0.450595 1.005701
C37   C     C_2   0.108658 0.735802 0.584604 0.927051
C38   C     C_R   0.573572 0.070041 0.564229 0.138598
C39   C     C_R   0.411161 0.929476 0.445859 0.089219
C40   C     C_R   0.426588 0.070041 0.435527 0.124249
C41   C     C_R   0.589665 0.929791 0.553061 0.076675
C42   C     C_R   0.066395 0.375780 0.532929 -0.159999
H1    H     H_    0.576788 0.684958 0.058067 0.131687
H2    H     H_    0.779137 0.135282 0.811962 0.264216
H3    H     H_    0.859020 0.285569 0.783413 0.266207
H4    H     H_    0.812086 0.156082 0.647253 0.254614
H5    H     H_    0.719224 0.304365 0.643363 0.257704
H6    H     H_    0.523356 0.173463 0.680378 0.208648
H7    H     H_    0.616852 0.039065 0.706914 0.181444
H8    H     H_    0.094010 0.808601 0.271836 0.298033
H9    H     H_    0.201286 0.914215 0.215196 0.262248
H10   H     H_    0.192367 0.740008 0.190252 0.261404
H11   H     H_    0.388266 0.803882 0.290126 0.232301
H12   H     H_    0.439155 0.300895 0.941926 0.129805
H13   H     H_    0.285894 0.679554 0.335200 0.243498
H14   H     H_    0.240003 0.813979 0.455673 0.226063
H15   H     H_    0.214118 0.948388 0.390792 0.236392
H16   H     H_    0.185461 0.181136 0.210017 0.251914
H17   H     H_    0.097313 0.085713 0.286587 0.287912
H18   H     H_    0.069692 0.260727 0.274530 0.281515
H19   H     H_    0.205296 0.188886 0.416483 0.260026
H20   H     H_    0.267572 0.318154 0.350477 0.232143
H21   H     H_    0.445604 0.184518 0.315103 0.209770
H22   H     H_    0.352893 0.050467 0.296206 0.194606
H23   H     H_    0.427889 0.730523 0.930813 0.128260
H24   H     H_    0.915761 0.781794 0.718795 0.294653
H25   H     H_    0.833036 0.921027 0.764238 0.269865
H26   H     H_    0.815084 0.756398 0.808622 0.248719
H27   H     H_    0.623790 0.811123 0.710819 0.214977
H28   H     H_    0.714820 0.681236 0.661833 0.246821
H29   H     H_    0.761319 0.816303 0.539731 0.224969
H30   H     H_    0.786418 0.951655 0.604863 0.239271
H31   H     H_    0.255014 0.198083 0.683138 0.325333
H32   H     H_    0.772568 0.792131 0.319180 0.324438
H33   H     H_    0.790347 0.169454 0.339658 0.337793
H34   H     H_    0.311269 0.356682 0.056981 0.132746
H35   H     H_    0.239790 0.809787 0.678543 0.330732
H36   H     H_    0.607556 0.674150 0.221492 0.170031
H37   H     H_    0.456754 0.291992 0.783123 0.146995
H38   H     H_    0.454418 0.721255 0.771507 0.152041
H39   H     H_    0.350559 0.341015 0.218139 0.155919
H40   H     H_    0.693508 0.291113 0.804427 0.267655
N1    N     N_R   0.500000 0.857200 0.500000 -0.109401
N2    N     N_R   0.500000 0.142800 0.500000 -0.110713
O1    O     O_R   0.316770 0.614620 0.499990 -0.617141
O2    O     O_R   0.216852 0.283089 0.655888 -0.795228
O3    O     O_2   0.961715 0.829173 0.415958 -0.604721
O4    O     O_R   0.791206 0.710932 0.358349 -0.806633
O5    O     O_2   0.876951 0.147152 0.492651 -0.599006
O6    O     O_R   0.829314 0.257032 0.361672 -0.803131
O7    O     O_2   0.046705 0.838880 0.583634 -0.573547
O8    O     O_R   0.219214 0.724843 0.643563 -0.794401
O9    O     O_R   0.683230 0.385380 0.500010 -0.627273
O10   O     O_R   0.683230 0.614620 0.500010 -0.609878
O11   O     O_R   0.316770 0.385380 0.499990 -0.633830
O12   O     O_R   0.499990 0.614660 0.369060 -0.617103
O13   O     O_R   0.500010 0.385340 0.630940 -0.620625
O14   O     O_R   0.500010 0.614660 0.630940 -0.620639
O15   O     O_R   0.499990 0.385340 0.369060 -0.622228
O16   O     O_2   0.106787 0.145141 0.557638 -0.581129
Zn1   Zn    Zn3+2 0.500000 0.653120 0.500000 0.955093
Zn2   Zn    Zn3+2 0.500000 0.346880 0.500000 0.954882

loop_
_geom_bond_atom_site_label_1
_geom_bond_atom_site_label_2
_ccdc_geom_bond_type
C2    C35   S    
C36   O5    D    
C23   O15   A    
H35   O8    S    
C8    C13   A    
C2    C18   A    
N2    Zn2   S    
C40   N2    A    
C33   O2    S    
C34   O13   A    
C30   H29   S    
C3    C42   A    
C7    C11   A    
C33   C42   S    
C22   H40   S    
C21   C22   S    
C28   C29   S    
C25   H11   S    
C10   C15   A    
C26   H8    S    
C30   C31   S    
C41   N1    A    
C13   H39   S    
C8    H34   S    
C24   C39   S    
C23   O12   A    
C3    C18   A    
C5    C16   A    
H33   O6    S    
C4    C19   A    
C11   C15   A    
C31   H28   S    
C22   H2    S    
C29   H17   S    
O10   Zn1   S    
C16   C17   S    
C7    C17   A    
C30   C41   S    
C15   C34   S    
O13   Zn2   S    
C19   C42   A    
C32   H26   S    
C28   H19   S    
C5    H1    S    
C8    C16   A    
C13   C14   A    
C12   O10   A    
C35   O3    D    
C6    H12   S    
C1    O1    A    
C1    C19   S    
C37   O7    D    
C24   C25   S    
C38   C41   A    
C11   H38   S    
C39   C40   A    
C24   H15   S    
C25   C26   S    
C14   C23   S    
C2    C4    A    
C9    C14   A    
C5    C9    A    
C20   H7    S    
C26   H10   S    
C7    H23   S    
C20   C38   S    
C35   O4    S    
C31   C32   S    
C29   H18   S    
C27   C40   S    
C1    O11   A    
C22   H3    S    
C20   C21   S    
C20   H6    S    
C27   H21   S    
C32   H25   S    
C12   O9    A    
O1    Zn1   S    
C29   H16   S    
C32   H24   S    
C21   H4    S    
C36   O6    S    
C6    C17   A    
N1    Zn1   S    
C37   O8    S    
C38   N2    A    
C25   H13   S    
O9    Zn2   S    
C6    C10   A    
C30   H30   S    
C10   H37   S    
O11   Zn2   S    
C24   H14   S    
O14   Zn1   S    
C33   O16   D    
C39   N1    A    
C26   H9    S    
C3    C36   S    
C34   O14   A    
C9    H36   S    
H31   O2    S    
C27   H22   S    
C31   H27   S    
O15   Zn2   S    
C4    C37   S    
C12   C18   S    
C27   C28   S    
H32   O4    S    
O12   Zn1   S    
C21   H5    S    
C28   H20   S    
