data_mof_unit_pretest_1045.cif
_audit_creation_date              2012-12-10T19:05:20-0500
_audit_creation_method            fapswitch 2.2
_symmetry_space_group_name_H-M    P1
_symmetry_Int_Tables_number       1
_space_group_crystal_system       triclinic
_cell_length_a                    9.552814
_cell_length_b                    10.827045
_cell_length_c                    17.357919
_cell_angle_alpha                 90.61314
_cell_angle_beta                  85.941781
_cell_angle_gamma                 89.887207
_cell_volume                      1790.69713103

loop_
_atom_site_label
_atom_site_type_symbol
_atom_type_description
_atom_site_fract_x
_atom_site_fract_y
_atom_site_fract_z
_atom_type_partial_charge
C1    C     C_R   0.499367 0.737510 0.502538 0.816093
C2    C     C_R   0.364610 0.414037 0.774181 -0.095742
C3    C     C_R   0.433498 0.440760 0.147164 -0.128277
C4    C     C_R   0.433642 0.432286 0.226703 -0.213862
C5    C     C_R   0.625944 0.578214 0.226560 -0.205005
C6    C     C_R   0.626385 0.586566 0.146533 -0.151816
C7    C     C_R   0.530309 0.517801 0.106433 0.177425
C8    C     C_2   0.486110 0.440503 0.977162 -0.154120
C9    C     C_2   0.528844 0.531686 0.022614 -0.213929
C10   C     C_R   0.527984 0.502277 0.266723 -0.022978
C11   C     C_R   0.373491 0.936647 0.506907 0.138778
C12   C     C_R   0.481616 0.495007 0.649631 0.823086
C13   C     C_R   0.496677 0.870062 0.513630 -0.180190
C14   C     C_R   0.615105 0.932719 0.537200 -0.209540
C15   C     C_R   0.617422 0.062413 0.540205 0.147720
C16   C     C_R   0.499317 0.129028 0.516249 -0.107994
C17   C     C_R   0.375477 0.063506 0.507436 0.102824
C18   C     C_3   0.269464 0.071656 0.448459 -0.484294
C19   C     C_3   0.267727 0.930955 0.447307 -0.043324
C20   C     C_R   0.935021 0.479581 0.432858 0.261610
C21   C     C_R   0.917469 0.531750 0.564404 -0.088491
C22   C     C_R   0.065930 0.531442 0.564454 -0.072357
C23   C     C_R   0.500037 0.262290 0.504227 0.832566
C24   C     C_R   0.082557 0.481427 0.433046 0.213444
C25   C     C_3   0.100335 0.371759 0.381534 -0.498748
C26   C     C_3   0.941424 0.364862 0.382822 -0.097145
C27   C     C_R   0.518401 0.500249 0.350473 0.776978
C28   C     C_R   0.473061 0.481708 0.733661 -0.121954
C29   C     C_R   0.580449 0.534702 0.773444 -0.195013
C30   C     C_R   0.582477 0.522099 0.852311 -0.139548
C31   C     C_R   0.475970 0.457399 0.893907 0.084869
C32   C     C_R   0.365424 0.402905 0.855333 -0.044965
Cu1   Cu    Cu3+1 0.359330 0.500020 0.500000 0.963228
Cu2   Cu    Cu3+1 0.640670 0.499980 0.500000 0.940226
H1    H     H_    0.664529 0.585747 0.743178 0.153068
H2    H     H_    0.700973 0.647017 0.115944 0.132988
H3    H     H_    0.707527 0.881056 0.550482 0.168804
H4    H     H_    0.170069 0.114143 0.473330 0.212900
H5    H     H_    0.313298 0.111962 0.393254 0.163335
H6    H     H_    0.310236 0.889570 0.391504 0.162376
H7    H     H_    0.856070 0.556484 0.616948 0.152361
H8    H     H_    0.113848 0.555819 0.617023 0.166017
H9    H     H_    0.152338 0.396811 0.324758 0.201130
H10   H     H_    0.360113 0.371008 0.256998 0.130458
H11   H     H_    0.148662 0.293212 0.409870 0.191936
H12   H     H_    0.898002 0.281994 0.413028 0.172774
H13   H     H_    0.698973 0.633334 0.257227 0.142323
H14   H     H_    0.562727 0.619453 0.998013 0.149915
H15   H     H_    0.355083 0.389333 0.118352 0.151726
H16   H     H_    0.454867 0.351924 0.001331 0.152633
H17   H     H_    0.670180 0.560783 0.880550 0.148784
N1    N     N_R   0.852130 0.499070 0.499500 -0.203617
N2    N     N_R   0.148040 0.499110 0.499500 -0.190590
O1    O     O_R   0.381190 0.680360 0.500000 -0.579424
O2    O     O_R   0.618770 0.680320 0.499990 -0.584284
O3    O     O_R   0.367430 0.500040 0.613600 -0.578060
O4    O     O_R   0.605020 0.500000 0.613590 -0.596797
O5    O     O_R   0.381230 0.319680 0.500010 -0.557078
O6    O     O_R   0.618810 0.319640 0.500000 -0.587316
O7    O     O_R   0.394980 0.500000 0.386410 -0.583637
O8    O     O_R   0.632570 0.499960 0.386400 -0.582359
C33   C     C_3   0.746570 0.124344 0.567578 -0.791729
H18   H     H_    0.716035 0.194991 0.612546 0.246357
H19   H     H_    0.817003 0.057181 0.593648 0.213811
H20   H     H_    0.807583 0.167458 0.518396 0.228220
C34   C     C_3   0.126915 0.876346 0.477818 -0.800906
H21   H     H_    0.045426 0.898313 0.437483 0.227228
H22   H     H_    0.135480 0.774498 0.481502 0.250211
H23   H     H_    0.093103 0.914277 0.535970 0.238890
C35   C     C_3   0.888174 0.381006 0.302314 -0.779044
H24   H     H_    0.944946 0.316622 0.260711 0.231181
H25   H     H_    0.775663 0.356486 0.303170 0.245110
H26   H     H_    0.904113 0.477007 0.281496 0.234107
C36   C     C_2   0.252750 0.333053 0.899525 0.851702
O9    O     O_2   0.194315 0.377953 0.958287 -0.596436
O10   O     O_R   0.213848 0.215969 0.873943 -0.746002
H27   H     H_    0.136026 0.178130 0.908712 0.337933
C37   C     C_2   0.252403 0.353464 0.732453 0.906541
O11   O     O_2   0.283190 0.278553 0.680747 -0.586436
O12   O     O_R   0.111660 0.381338 0.753053 -0.760931
H28   H     H_    0.045074 0.334601 0.720399 0.330269

loop_
_geom_bond_atom_site_label_1
_geom_bond_atom_site_label_2
_ccdc_geom_bond_type
C10   C27   S    
C23   O5    A    
C34   H22   S    
C30   H17   S    
Cu1   O5    S    
C8    H16   S    
C18   H5    S    
C25   H9    S    
C3    H15   S    
C23   O6    A    
C5    H13   S    
C11   C19   S    
C29   C30   A    
C36   O10   S    
C12   C28   S    
C28   C29   A    
C3    C7    A    
C27   O7    A    
C32   C36   S    
C5    C6    A    
C37   O12   S    
C34   H23   S    
C15   C16   A    
C19   C34   S    
C2    C32   A    
C18   C19   S    
C33   H19   S    
C27   O8    A    
C20   C24   A    
C8    C9    D    
Cu2   O4    S    
C35   H24   S    
Cu1   O3    S    
C34   H21   S    
Cu2   O2    S    
C21   C22   A    
C25   C26   S    
Cu1   Cu2   S    
C22   N2    A    
Cu1   N2    S    
C36   O9    D    
O10   H27   S    
C37   O11   D    
C16   C17   A    
C4    H10   S    
C24   N2    A    
Cu2   O8    S    
C1    O1    A    
C33   H18   S    
C2    C37   S    
C31   C32   A    
C30   C31   A    
C35   H26   S    
C17   C18   S    
C24   C25   S    
C12   O3    A    
C21   H7    S    
C12   O4    A    
C16   C23   S    
Cu2   O6    S    
C26   C35   S    
C1    C13   S    
C4    C10   A    
C3    C4    A    
C25   H11   S    
Cu1   O1    S    
C7    C9    S    
C11   C17   A    
C33   H20   S    
C8    C31   S    
O12   H28   S    
C35   H25   S    
C6    C7    A    
Cu1   O7    S    
C29   H1    S    
Cu2   N1    S    
C1    O2    A    
C5    C10   A    
C20   N1    A    
C14   H3    S    
C11   C13   A    
C22   H8    S    
C20   C26   S    
C15   C33   S    
C6    H2    S    
C18   H4    S    
C19   H6    S    
C26   H12   S    
C9    H14   S    
C14   C15   A    
C2    C28   A    
C13   C14   A    
C21   N1    A    
