data_mof_unit_pretest_1102.cif
_audit_creation_date              2012-12-10T17:48:51-0500
_audit_creation_method            fapswitch 2.2
_symmetry_space_group_name_H-M    P1
_symmetry_Int_Tables_number       1
_space_group_crystal_system       triclinic
_cell_length_a                    10.726209
_cell_length_b                    14.698467
_cell_length_c                    14.745836
_cell_angle_alpha                 65.025899
_cell_angle_beta                  103.593959
_cell_angle_gamma                 103.09202
_cell_volume                      2026.91527279

loop_
_atom_site_label
_atom_site_type_symbol
_atom_type_description
_atom_site_fract_x
_atom_site_fract_y
_atom_site_fract_z
_atom_type_partial_charge
C1    C     C_R   0.479813 0.119731 0.312314 0.796463
C2    C     C_3   0.878037 0.004119 0.495457 0.110713
C3    C     C_3   0.928295 0.911527 0.587138 -0.412869
C4    C     C_3   0.962805 0.103374 0.503699 -0.138692
C5    C     C_R   0.479019 0.187341 0.205246 -0.054693
C6    C     C_R   0.543275 0.812683 0.795236 -0.056896
C7    C     C_R   0.476191 0.216162 0.030771 -0.200851
C8    C     C_R   0.467150 0.149457 0.130534 -0.202119
C9    C     C_R   0.498840 0.292084 0.179122 -0.235074
C10   C     C_R   0.514444 0.360849 0.080246 0.091376
C11   C     C_R   0.499596 0.321325 0.005066 0.163002
C12   C     C_R   0.259868 0.001289 0.498472 0.763196
C13   C     C_R   0.541799 0.467536 0.053881 0.063800
C14   C     C_R   0.539124 0.533606 0.950137 0.063559
C15   C     C_R   0.526832 0.491173 0.877687 -0.221715
C16   C     C_R   0.508560 0.386993 0.905129 -0.228984
C17   C     C_R   0.574300 0.510277 0.127863 -0.213961
C18   C     C_R   0.594709 0.614445 0.100582 -0.230086
C19   C     C_R   0.580765 0.679755 0.998969 0.164911
C20   C     C_R   0.550975 0.640059 0.922632 0.089389
C21   C     C_R   0.595468 0.784684 0.972842 -0.200372
C22   C     C_R   0.577715 0.850879 0.871500 -0.202038
C23   C     C_R   0.523293 0.880256 0.687707 0.797209
C24   C     C_R   0.529487 0.708152 0.821219 -0.258794
C25   C     C_R   0.718161 0.286052 0.666931 -0.320535
C26   C     C_R   0.683996 0.204074 0.637740 0.075961
C27   C     C_R   0.517716 0.284665 0.509762 0.008200
C28   C     C_R   0.547952 0.371051 0.535464 -0.022484
C29   C     C_R   0.650374 0.369493 0.616470 0.165778
C30   C     C_R   0.480606 0.457766 0.484787 0.073885
C31   C     C_R   0.517413 0.541257 0.516667 0.078840
C32   C     C_R   0.619268 0.534706 0.598703 -0.243623
C33   C     C_R   0.684188 0.450720 0.647132 -0.202885
C34   C     C_R   0.739712 0.001645 0.497414 0.759302
C35   C     C_R   0.377859 0.463870 0.403427 -0.236318
C36   C     C_R   0.312659 0.547712 0.355231 -0.189999
C37   C     C_R   0.347469 0.629448 0.385126 0.162235
C38   C     C_R   0.450604 0.628249 0.465572 -0.023706
C39   C     C_R   0.279874 0.712992 0.334514 -0.318054
C40   C     C_R   0.315009 0.795468 0.362941 0.071553
C41   C     C_R   0.482097 0.715273 0.490280 0.003827
C42   C     C_3   0.039328 0.001222 0.395854 -0.388424
C43   C     C_3   0.894519 0.997031 0.396871 -0.373578
C44   C     C_3   0.071074 0.909429 0.586364 -0.375151
C45   C     C_3   0.106501 0.100620 0.507414 -0.402502
C46   C     C_3   0.122070 0.003112 0.496976 0.141498
Cu1   Cu    Cu3+1 0.465900 0.918260 0.475680 0.925794
Cu2   Cu    Cu3+1 0.534100 0.081740 0.524320 0.934411
H1    H     H_    0.051781 0.934072 0.384010 0.172079
H2    H     H_    0.952969 0.107453 0.575373 0.127008
H3    H     H_    0.130642 0.908598 0.659477 0.153288
H4    H     H_    0.919602 0.915435 0.659132 0.153468
H5    H     H_    0.499952 0.357680 0.847312 0.150757
H6    H     H_    0.498043 0.681239 0.760887 0.151646
H7    H     H_    0.589459 0.931600 0.852975 0.151730
H8    H     H_    0.619426 0.643990 0.159638 0.147348
H9    H     H_    0.466004 0.185538 0.973778 0.132434
H10   H     H_    0.452096 0.068559 0.149263 0.153501
H11   H     H_    0.499746 0.318242 0.237330 0.146765
H12   H     H_    0.071977 0.070094 0.331132 0.155023
H13   H     H_    0.534998 0.536518 0.799211 0.142719
H14   H     H_    0.588745 0.465383 0.208111 0.151967
H15   H     H_    0.619782 0.815467 0.030917 0.131644
H16   H     H_    0.761857 0.449306 0.709683 0.143916
H17   H     H_    0.560394 0.721948 0.548962 0.120188
H18   H     H_    0.263361 0.860204 0.323632 0.120327
H19   H     H_    0.234105 0.548681 0.293356 0.147135
H20   H     H_    0.796773 0.284022 0.728974 0.137007
H21   H     H_    0.735604 0.139320 0.677076 0.118138
H22   H     H_    0.440263 0.278381 0.450419 0.118263
H23   H     H_    0.854371 0.059809 0.328909 0.161994
H24   H     H_    0.651340 0.593398 0.627974 0.127260
H25   H     H_    0.344878 0.404745 0.374797 0.131508
H26   H     H_    0.200592 0.714680 0.272995 0.138229
H27   H     H_    0.839836 0.924689 0.392247 0.177737
H28   H     H_    0.079079 0.838477 0.579483 0.177841
H29   H     H_    0.868728 0.839685 0.584725 0.172833
H30   H     H_    0.161806 0.102118 0.580991 0.165679
H31   H     H_    0.149304 0.168760 0.446622 0.162397
N1    N     N_R   0.585360 0.204570 0.560800 -0.174109
N2    N     N_R   0.414550 0.795430 0.439160 -0.175839
O1    O     O_R   0.455060 0.022100 0.338110 -0.590318
O2    O     O_R   0.512640 0.160150 0.379180 -0.582017
O3    O     O_R   0.288900 0.930980 0.479450 -0.587986
O4    O     O_R   0.346480 0.069030 0.520520 -0.591608
O5    O     O_R   0.487360 0.839850 0.620820 -0.587330
O6    O     O_R   0.544940 0.977900 0.661890 -0.588478
O7    O     O_R   0.653520 0.930970 0.479480 -0.588536
O8    O     O_R   0.711100 0.069020 0.520550 -0.586504
C47   C     C_1   0.921136 0.196468 0.419561 0.251255
N3    N     N_1   0.888361 0.269136 0.353843 -0.290859

loop_
_geom_bond_atom_site_label_1
_geom_bond_atom_site_label_2
_ccdc_geom_bond_type
C35   C36   A    
C36   H19   S    
C7    C8    A    
C32   H24   S    
C45   C46   S    
C7    C11   A    
C28   C29   A    
C12   O4    A    
C1    C5    S    
C36   C37   A    
C19   C21   A    
C30   C31   A    
C39   H26   S    
C24   H6    S    
C15   C16   A    
C6    C22   A    
C29   C33   A    
C12   O3    A    
C18   C19   A    
C42   C46   S    
Cu1   O1    S    
C44   H28   S    
C20   C24   A    
C16   H5    S    
C8    H10   S    
C31   C32   A    
C23   O5    A    
C45   H30   S    
C9    C10   A    
C18   H8    S    
C2    C34   S    
C6    C24   A    
C23   O6    A    
C21   C22   A    
C43   H27   S    
C25   H20   S    
C44   C46   S    
C4    C47   S    
C4    C45   S    
C25   C29   A    
C3    C44   S    
Cu1   O5    S    
C14   C20   A    
C38   C41   A    
C12   C46   S    
C27   N1    A    
C42   H12   S    
C39   C40   A    
C41   H17   S    
C25   C26   A    
C26   N1    A    
C4    H2    S    
C9    H11   S    
C2    C4    S    
C5    C9    A    
C37   C38   A    
C17   H14   S    
C11   C16   A    
Cu1   Cu2   S    
C2    C43   S    
C41   N2    A    
C17   C18   A    
C15   H13   S    
Cu2   O6    S    
C45   H31   S    
C34   O7    A    
Cu1   O3    S    
C27   H22   S    
C30   C35   A    
C44   H3    S    
Cu2   O8    S    
C42   C43   S    
C3    H29   S    
C35   H25   S    
C43   H23   S    
C14   C15   A    
C40   N2    A    
C10   C13   A    
C5    C8    A    
C3    H4    S    
Cu2   O2    S    
C22   H7    S    
C1    O2    A    
C31   C38   A    
C13   C17   A    
Cu1   O7    S    
Cu2   N1    S    
C19   C20   A    
C28   C30   A    
C2    C3    S    
C1    O1    A    
C34   O8    A    
C37   C39   A    
C32   C33   A    
C47   N3    T    
C33   H16   S    
C6    C23   S    
Cu1   N2    S    
C21   H15   S    
C10   C11   A    
C42   H1    S    
C27   C28   A    
C26   H21   S    
Cu2   O4    S    
C40   H18   S    
C13   C14   A    
C7    H9    S    
