data_mof_unit_pretest_591.cif
_audit_creation_date              2012-12-10T17:18:54-0500
_audit_creation_method            fapswitch 2.2
_symmetry_space_group_name_H-M    P1
_symmetry_Int_Tables_number       1
_space_group_crystal_system       triclinic
_cell_length_a                    9.636688
_cell_length_b                    10.848827
_cell_length_c                    13.427587
_cell_angle_alpha                 93.264631
_cell_angle_beta                  72.320556
_cell_angle_gamma                 91.738861
_cell_volume                      1335.21321901

loop_
_atom_site_label
_atom_site_type_symbol
_atom_type_description
_atom_site_fract_x
_atom_site_fract_y
_atom_site_fract_z
_atom_type_partial_charge
C1    C     C_R   0.504426 0.736696 0.493838 0.794394
C2    C     C_R   0.432297 0.475739 0.979207 0.083406
C3    C     C_R   0.469684 0.449594 0.869580 0.078467
C4    C     C_R   0.540144 0.462054 0.030302 0.074575
C5    C     C_R   0.676983 0.410475 0.973906 0.160477
C6    C     C_R   0.703586 0.369696 0.869712 -0.238553
C7    C     C_R   0.600813 0.387138 0.818699 -0.199972
C8    C     C_R   0.517161 0.500223 0.135477 -0.250772
C9    C     C_R   0.757261 0.432898 0.128606 -0.208984
C10   C     C_R   0.373612 0.485271 0.814535 -0.104709
C11   C     C_R   0.337706 0.864163 0.382294 -0.209071
C12   C     C_R   0.421467 0.493287 0.699678 0.780285
C13   C     C_R   0.206142 0.909046 0.378587 -0.241618
C14   C     C_R   0.154249 0.019610 0.433050 0.442715
C15   C     C_R   0.245806 0.095783 0.473680 -0.248266
C16   C     C_R   0.384060 0.054459 0.471852 0.020628
C17   C     C_R   0.415064 0.929196 0.443083 0.105027
C18   C     C_R   0.510661 0.870152 0.485704 -0.125669
C19   C     C_R   0.592248 0.939896 0.538935 -0.085197
C20   C     C_R   0.585913 0.067732 0.545075 -0.081444
C21   C     C_R   0.485161 0.127105 0.508915 -0.138578
C22   C     C_R   0.914531 0.348287 0.350843 -0.062157
C23   C     C_R   0.495171 0.262194 0.504197 0.778102
C24   C     C_R   0.016348 0.278164 0.275061 -0.194925
C25   C     C_R   0.158369 0.275181 0.277171 -0.212150
C26   C     C_R   0.199776 0.343886 0.354088 -0.141072
C27   C     C_R   0.102794 0.424596 0.427388 0.213306
C28   C     C_R   0.953943 0.425866 0.426509 0.237530
C29   C     C_R   0.899426 0.571789 0.569219 -0.029167
C30   C     C_R   0.047152 0.572004 0.569009 -0.043180
C31   C     C_R   0.578357 0.497823 0.300034 0.770548
C32   C     C_R   0.784964 0.398083 0.023004 -0.198452
C33   C     C_R   0.621652 0.481171 0.185770 -0.038747
C34   C     C_R   0.232728 0.524357 0.870929 -0.185833
C35   C     C_R   0.189565 0.534829 0.979424 -0.156141
C36   C     C_R   0.288288 0.513484 0.033308 -0.182128
Cu1   Cu    Cu3+1 0.359340 0.500010 0.500010 0.930638
Cu2   Cu    Cu3+1 0.640660 0.499990 0.499990 0.957258
H1    H     H_    0.839795 0.418194 0.166016 0.147080
H2    H     H_    0.371515 0.774188 0.345272 0.167302
H3    H     H_    0.138113 0.851163 0.343631 0.167829
H4    H     H_    0.199248 0.177855 0.518885 0.208354
H5    H     H_    0.655092 0.120314 0.582503 0.211682
H6    H     H_    0.822644 0.630826 0.626047 0.150412
H7    H     H_    0.805892 0.334720 0.348779 0.189824
H8    H     H_    0.983062 0.221396 0.217115 0.142916
H9    H     H_    0.235961 0.215803 0.221125 0.151669
H10   H     H_    0.307657 0.327347 0.354622 0.199611
H11   H     H_    0.804758 0.324583 0.827124 0.163321
H12   H     H_    0.080065 0.631198 0.625659 0.144642
H13   H     H_    0.889752 0.359044 0.980209 0.141759
H14   H     H_    0.417982 0.544929 0.180677 0.148294
H15   H     H_    0.156129 0.549341 0.831065 0.155810
H16   H     H_    0.247205 0.524401 0.117378 0.133919
H17   H     H_    0.079991 0.563613 0.022059 0.149871
H18   H     H_    0.624709 0.347833 0.739712 0.184672
H19   H     H_    0.658391 0.894627 0.577563 0.201355
N1    N     N_R   0.852480 0.498790 0.499000 -0.209328
N2    N     N_R   0.148360 0.498710 0.498970 -0.209233
O1    O     O_R   0.381190 0.680360 0.500010 -0.574654
O2    O     O_R   0.618760 0.680340 0.500000 -0.562112
O3    O     O_R   0.323240 0.499990 0.650990 -0.577129
O4    O     O_R   0.560820 0.499960 0.650980 -0.585623
O5    O     O_R   0.381240 0.319660 0.500000 -0.611216
O6    O     O_R   0.618810 0.319640 0.499990 -0.576248
O7    O     O_R   0.439180 0.500040 0.349020 -0.609221
O8    O     O_R   0.676760 0.500010 0.349010 -0.603308
S1    S     S_3+6 0.966658 0.044343 0.474501 -0.043868
O9    O     O_2   0.903690 0.962772 0.564379 -0.316629
O10   O     O_2   0.933368 0.176060 0.512479 -0.328229
O11   O     O_3   0.893140 0.004905 0.378215 -0.527110
H20   H     H_    0.970246 0.021751 0.312311 0.323014

loop_
_geom_bond_atom_site_label_1
_geom_bond_atom_site_label_2
_ccdc_geom_bond_type
C31   O7    A    
C2    C4    A    
C24   C25   A    
C31   C33   S    
C32   H13   S    
Cu1   O5    S    
C29   C30   A    
C28   N1    A    
C12   O3    A    
C25   H9    S    
C19   C20   A    
Cu2   O6    S    
C26   H10   S    
C4    C8    A    
Cu2   O2    S    
C24   H8    S    
C30   N2    A    
C20   H5    S    
C13   H3    S    
C2    C3    A    
C30   H12   S    
O11   H20   S    
C10   C34   A    
C3    C10   A    
C27   N2    A    
C13   C14   A    
C19   H19   S    
C31   O8    A    
C11   C13   A    
C23   O6    A    
C1    C18   S    
Cu1   N2    S    
C10   C12   S    
C7    H18   S    
C9    C33   A    
S1    O11   S    
C5    C6    A    
C23   O5    A    
C22   C28   A    
Cu1   Cu2   S    
C17   C18   A    
C6    C7    A    
C3    C7    A    
C8    C33   A    
C21   C23   S    
C29   H6    S    
C26   C27   A    
C11   H2    S    
C16   C17   A    
C22   C24   A    
Cu1   O1    S    
C36   H16   S    
Cu1   O7    S    
C35   H17   S    
C15   C16   A    
Cu2   O8    S    
C20   C21   A    
C8    H14   S    
C9    H1    S    
C22   H7    S    
C29   N1    A    
C34   H15   S    
S1    O10   D    
C34   C35   A    
C1    O1    A    
C2    C36   A    
C27   C28   A    
C12   O4    A    
Cu1   O3    S    
C14   C15   A    
C18   C19   A    
C14   S1    S    
C9    C32   A    
C25   C26   A    
Cu2   O4    S    
C16   C21   A    
Cu2   N1    S    
S1    O9    D    
C5    C32   A    
C11   C17   A    
C6    H11   S    
C35   C36   A    
C15   H4    S    
C4    C5    A    
C1    O2    A    
