data_mof_unit_pretest_1567.cif
_audit_creation_date              2012-12-11T14:51:41-0500
_audit_creation_method            fapswitch 2.2
_symmetry_space_group_name_H-M    P1
_symmetry_Int_Tables_number       1
_space_group_crystal_system       triclinic
_cell_length_a                    7.043114
_cell_length_b                    17.004321
_cell_length_c                    16.849072
_cell_angle_alpha                 101.036801
_cell_angle_beta                  90.986607
_cell_angle_gamma                 93.15612
_cell_volume                      1976.78185751

loop_
_atom_site_label
_atom_site_type_symbol
_atom_type_description
_atom_site_fract_x
_atom_site_fract_y
_atom_site_fract_z
_atom_type_partial_charge
O1    O     O_R   0.506340 0.439070 0.579550 -0.528100
O2    O     O_R   0.170010 0.404890 0.412100 -0.535701
O3    O     O_R   0.005010 0.560930 0.420450 -0.527742
C1    C     C_R   0.335952 0.382463 0.382092 0.735243
O4    O     O_R   0.176280 0.429360 0.578400 -0.527126
O5    O     O_R   0.011320 0.585570 0.587940 -0.516998
C2    C     C_R   0.341608 0.414064 0.605527 0.776855
O6    O     O_R   0.500030 0.414430 0.412060 -0.530682
O7    O     O_3   0.340950 0.551220 0.502940 -0.360487
V1    V     V_3+5 0.064020 0.490500 0.499460 1.576178
O8    O     O_R   0.681910 0.595110 0.587900 -0.516985
C3    C     C_R   0.855273 0.615687 0.618493 0.834098
O9    O     O_R   0.675640 0.570640 0.421600 -0.552185
C4    C     C_R   0.845923 0.585696 0.394899 0.763979
V2    V     V_3+5 0.564670 0.509500 0.500540 1.554216
O10   O     O_3   0.837610 0.448780 0.497060 -0.361501
C5    C     C_R   0.911157 0.862897 0.170572 -0.141517
C6    C     C_R   0.863531 0.634686 0.330070 -0.181145
C7    C     C_R   0.956600 0.646939 0.192939 0.333024
C8    C     C_R   0.933538 0.600774 0.254132 0.150805
C9    C     C_R   0.810820 0.714970 0.343049 0.039696
C10   C     C_R   0.874511 0.765254 0.289192 -0.001530
C11   C     C_R   0.937617 0.731418 0.211466 -0.083017
C12   C     C_R   0.980535 0.784329 0.156549 0.264374
C13   C     C_R   0.860950 0.895369 0.251334 0.081123
C14   C     C_R   0.886466 0.849470 0.312151 0.125143
C15   C     C_3   0.784511 0.808317 0.721070 0.268971
C16   C     C_3   0.960781 0.769065 0.681519 0.216825
C17   C     C_3   0.877282 0.685555 0.689927 -0.282849
C18   C     C_3   0.702924 0.724222 0.730385 0.256486
C19   C     C_3   0.804069 0.734749 0.814157 0.190521
C20   C     C_3   0.979349 0.695671 0.773930 -0.025653
C21   C     C_3   0.063561 0.779905 0.765227 0.287502
C22   C     C_3   0.887708 0.818669 0.805846 -0.309346
C23   C     C_3   0.498959 0.250702 0.305199 0.267666
C24   C     C_3   0.352362 0.185388 0.262576 0.231364
C25   C     C_3   0.417788 0.197841 0.178693 -0.194401
C26   C     C_3   0.567303 0.263918 0.221213 -0.257042
C27   C     C_3   0.417967 0.327912 0.224310 0.070883
C28   C     C_3   0.269573 0.262701 0.180737 0.305533
C29   C     C_3   0.204749 0.248781 0.264166 0.003585
C30   C     C_3   0.349692 0.314422 0.308152 -0.182505
H1    H     H_    0.707774 0.279709 0.199128 0.192988
C31   C     C_R   0.429496 0.141077 0.833410 -0.208381
C32   C     C_R   0.337503 0.361311 0.667986 -0.141722
C33   C     C_R   0.247422 0.337622 0.801379 0.325608
C34   C     C_R   0.232243 0.380733 0.738628 0.158504
C35   C     C_R   0.413482 0.284962 0.652454 0.036803
C36   C     C_R   0.442289 0.243096 0.717244 -0.012647
C37   C     C_R   0.336891 0.263710 0.788357 -0.094651
C38   C     C_R   0.310559 0.206353 0.839495 0.222560
C39   C     C_R   0.569940 0.133190 0.773178 0.276164
C40   C     C_R   0.576387 0.183342 0.714698 0.098530
O11   O     O_R   0.266070 0.085680 0.087850 -0.531669
O12   O     O_R   0.590090 0.070660 0.921580 -0.517449
O13   O     O_R   0.754780 0.914400 0.912080 -0.509619
C41   C     C_R   0.424129 0.086787 0.894802 0.824036
O14   O     O_R   0.596110 0.095130 0.087880 -0.560212
O15   O     O_R   0.760850 0.939050 0.079570 -0.542476
C42   C     C_R   0.429919 0.122571 0.112242 0.752044
O16   O     O_R   0.260010 0.061030 0.920360 -0.514234
O17   O     O_3   0.425070 0.948840 0.997010 -0.350052
V3    V     V_3+5 0.702100 0.009490 0.000550 1.628693
O18   O     O_R   0.090200 0.929250 0.078500 -0.517395
C43   C     C_R   0.920884 0.913923 0.105781 0.726688
O19   O     O_R   0.084180 0.904770 0.912200 -0.522389
C44   C     C_R   0.911027 0.886277 0.879810 0.867582
V4    V     V_3+5 0.201420 0.990350 0.999580 1.656945
O20   O     O_3   0.928580 0.051150 0.002990 -0.362640
Br1   Br    Br    0.187706 0.763885 0.083781 -0.473555
Br2   Br    Br    0.686145 0.711650 0.911290 -0.461123
C45   C     C_3   0.066018 0.628398 0.807248 -0.293177
C46   C     C_3   0.179564 0.658784 0.885365 -0.454208
H2    H     H_    0.282388 0.708606 0.879002 0.271209
H3    H     H_    0.080347 0.680186 0.933626 0.270394
H4    H     H_    0.257341 0.609178 0.902446 0.268009
H5    H     H_    0.947651 0.587409 0.820144 0.255774
H6    H     H_    0.156342 0.594600 0.761602 0.245928
Br3   Br    Br    0.309147 0.839792 0.785554 -0.379948
Br4   Br    Br    0.294513 0.084789 0.296592 -0.685143
Br5   Br    Br    0.650757 0.232910 0.395599 -0.664739
C47   C     C_3   0.465755 0.410510 0.203552 -0.353979
C48   C     C_3   0.548898 0.405220 0.119616 -0.482136
H7    H     H_    0.684038 0.374354 0.115467 0.255330
H8    H     H_    0.447645 0.372540 0.071972 0.264252
H9    H     H_    0.578811 0.466742 0.107975 0.255543
H10   H     H_    0.336297 0.444302 0.206412 0.247651
H11   H     H_    0.569082 0.444434 0.249713 0.199789
Br6   Br    Br    0.099531 0.286120 0.098231 -0.458014
C49   C     C_3   0.005127 0.228689 0.286045 -0.261530
C50   C     C_3   0.909388 0.159884 0.222872 -0.649943
H12   H     H_    0.994768 0.106938 0.209199 0.232624
H13   H     H_    0.885420 0.178049 0.164342 0.245321
H14   H     H_    0.771366 0.140258 0.244970 0.239206
H15   H     H_    0.012983 0.209782 0.345334 0.235290
H16   H     H_    0.927320 0.284181 0.292750 0.220514
Br7   Br    Br    0.082384 0.203876 0.901003 -0.415768
C51   C     C_3   0.797607 0.979768 0.275851 -0.393489
C52   C     C_3   0.635837 0.984417 0.335620 -0.637319
H17   H     H_    0.504607 0.954463 0.303745 0.260393
H18   H     H_    0.661356 0.955652 0.387940 0.202395
H19   H     H_    0.618526 0.048306 0.361852 0.291390
H20   H     H_    0.918904 0.020175 0.303731 0.232193
H21   H     H_    0.744893 0.002430 0.222848 0.195751
Br8   Br    Br    0.752819 0.051849 0.767776 -0.456044
Br9   Br    Br    0.176231 0.391800 0.907262 -0.324150
C53   C     C_3   0.746308 0.182037 0.659317 -0.342724
C54   C     C_3   0.930044 0.210778 0.706890 -0.622583
H22   H     H_    0.901371 0.253294 0.763490 0.278958
H23   H     H_    0.007810 0.159722 0.720006 0.262431
H24   H     H_    0.023907 0.243079 0.670563 0.208538
H25   H     H_    0.757946 0.121179 0.622019 0.219785
H26   H     H_    0.737166 0.224194 0.617300 0.197954
Br10  Br    Br    0.005923 0.437916 0.736254 -0.550183
C55   C     C_3   0.411941 0.241335 0.564905 -0.360335
C56   C     C_3   0.212078 0.222999 0.526299 -0.696362
H27   H     H_    0.137338 0.174074 0.550875 0.238048
H28   H     H_    0.125566 0.276248 0.535830 0.229929
H29   H     H_    0.224040 0.201938 0.460191 0.262460
H30   H     H_    0.494539 0.280836 0.532097 0.230766
H31   H     H_    0.474523 0.182128 0.556577 0.222387
Br11  Br    Br    0.980511 0.589549 0.083232 -0.341315
C57   C     C_3   0.975808 0.889276 0.394744 -0.350718
C58   C     C_3   0.176917 0.863283 0.404029 -0.649367
H32   H     H_    0.169557 0.799681 0.410172 0.239283
H33   H     H_    0.261584 0.870611 0.350696 0.219975
H34   H     H_    0.248177 0.899897 0.459274 0.262941
H35   H     H_    0.988316 0.955528 0.402763 0.218245
H36   H     H_    0.892243 0.875687 0.445897 0.212459
Br12  Br    Br    0.972422 0.487543 0.231143 -0.560897
C59   C     C_3   0.654468 0.740330 0.402088 -0.295712
C60   C     C_3   0.462534 0.698776 0.368985 -0.657213
H37   H     H_    0.402172 0.730461 0.323390 0.213962
H38   H     H_    0.473996 0.635490 0.338455 0.231723
H39   H     H_    0.363015 0.699336 0.419389 0.232204
H40   H     H_    0.689998 0.726497 0.462242 0.207545
H41   H     H_    0.633131 0.805367 0.411498 0.183839
Br13  Br    Br    0.083171 0.790889 0.585094 -0.476394
Br14  Br    Br    0.650716 0.872575 0.657466 -0.360560
Br15  Br    Br    0.453149 0.670692 0.707001 -0.452931

loop_
_geom_bond_atom_site_label_1
_geom_bond_atom_site_label_2
_ccdc_geom_bond_type
C38   Br7   S    
C34   Br10  S    
O19   V4    S    
C7    Br11  S    
C28   C29   S    
C55   H31   S    
C3    C17   S    
C6    C9    A    
C53   H25   S    
C4    C6    S    
O2    C1    A    
C7    C8    A    
C1    O6    A    
C23   Br5   S    
C12   Br1   S    
C57   C58   S    
C20   C45   S    
O11   C42   A    
C54   H22   S    
C25   C26   S    
C48   H7    S    
C2    C32   S    
C16   C17   S    
C17   C20   S    
O5    C3    A    
C26   C27   S    
C47   H11   S    
O11   V4    S    
C16   C21   S    
O14   C42   A    
C51   H20   S    
C51   C52   S    
C56   H27   S    
C29   C30   S    
C36   C37   A    
C23   C30   S    
C9    C59   S    
C45   H6    S    
C45   H5    S    
O8    V2    S    
C53   H26   S    
V3    O20   S    
C54   H23   S    
C60   H37   S    
O12   V3    S    
C11   C12   A    
O1    V2    S    
C28   Br6   S    
C17   C18   S    
O7    V1    S    
C31   C39   A    
C19   Br2   S    
C29   C49   S    
O9    C4    A    
C57   H36   S    
C15   C18   S    
C46   H3    S    
C24   C29   S    
C21   C22   S    
C27   C30   S    
C32   C34   A    
C15   C22   S    
C19   C22   S    
C5    C12   A    
C18   Br15  S    
V2    O10   S    
C49   H15   S    
C23   C26   S    
C16   Br13  S    
C59   H40   S    
C24   Br4   S    
C27   C28   S    
O4    C2    A    
V4    O20   S    
C13   C14   A    
C15   Br14  S    
C23   C24   S    
C7    C11   A    
O17   V3    S    
C59   H41   S    
C50   H13   S    
C40   C53   S    
C19   C20   S    
C31   C41   S    
C53   C54   S    
C48   H9    S    
C37   C38   A    
O13   V3    S    
C41   O16   A    
O3    C4    A    
C35   C55   S    
C57   H35   S    
C31   C38   A    
C35   C36   A    
C52   H18   S    
C39   Br8   S    
C47   C48   S    
O6    V2    S    
O12   C41   A    
C46   H4    S    
C14   C57   S    
C59   C60   S    
O2    V1    S    
C46   H2    S    
O18   V4    S    
C50   H12   S    
C39   C40   A    
C58   H33   S    
C32   C35   A    
O14   V3    S    
C33   C34   A    
C24   C25   S    
C48   H8    S    
O1    C2    A    
C5    C43   S    
C21   Br3   S    
C27   C47   S    
C8    Br12  S    
C45   C46   S    
C22   C44   S    
O5    V1    S    
O8    C3    A    
C56   H29   S    
C49   H16   S    
C25   C28   S    
O13   C44   A    
C33   C37   A    
O15   V3    S    
C54   H24   S    
O17   V4    S    
C5    C13   A    
C20   C21   S    
O9    V2    S    
O7    V2    S    
O4    V1    S    
O3    V1    S    
V1    O10   S    
C52   H17   S    
O18   C43   A    
C50   H14   S    
O16   V4    S    
C49   C50   S    
C18   C19   S    
C1    C30   S    
C60   H39   S    
C36   C40   A    
C33   Br9   S    
C56   H28   S    
O19   C44   A    
C6    C8    A    
C25   C42   S    
C13   C51   S    
C26   H1    S    
C52   H19   S    
C60   H38   S    
C55   H30   S    
C10   C14   A    
C58   H34   S    
C15   C16   S    
C10   C11   A    
C55   C56   S    
C9    C10   A    
C51   H21   S    
O15   C43   A    
C47   H10   S    
C58   H32   S    
