data_mof_unit_pretest_558.cif
_audit_creation_date              2013-03-05T16:42:04-0500
_audit_creation_method            fapswitch 2.2
_symmetry_space_group_name_H-M    P1
_symmetry_Int_Tables_number       1
_space_group_crystal_system       triclinic
_cell_length_a                    9.891643
_cell_length_b                    10.695046
_cell_length_c                    12.819798
_cell_angle_alpha                 90.576965
_cell_angle_beta                  73.669783
_cell_angle_gamma                 88.334039
_cell_volume                      1300.72712552

loop_
_atom_site_label
_atom_site_type_symbol
_atom_site_description
_atom_site_fract_x
_atom_site_fract_y
_atom_site_fract_z
_atom_type_partial_charge
O1    O     O_R   0.385310 0.683210 0.499990 -0.576386
O2    O     O_R   0.614650 0.683240 0.500000 -0.625113
C1    C     C_R   0.500641 0.740342 0.495414 0.948356
O3    O     O_R   0.328390 0.499940 0.653610 -0.599774
O4    O     O_R   0.557730 0.499980 0.653620 -0.624066
C2    C     C_R   0.428551 0.467314 0.696589 0.895502
Zn1   Zn    Zn3+2 0.346870 0.499980 0.499990 1.047412
Zn2   Zn    Zn3+2 0.653130 0.500020 0.500010 0.998433
O5    O     O_R   0.385350 0.316760 0.500000 -0.612304
O6    O     O_R   0.614690 0.316790 0.500010 -0.585876
O7    O     O_R   0.442270 0.500020 0.346380 -0.574975
O8    O     O_R   0.671610 0.500060 0.346390 -0.621973
C3    C     C_R   0.505648 0.260047 0.490581 0.849177
C4    C     C_R   0.575510 0.488408 0.295231 0.886728
C5    C     C_R   0.800922 0.383701 0.015748 -0.182739
H1    H     H_    0.840832 0.454037 0.160337 0.188971
H2    H     H_    0.911420 0.380918 0.971433 0.136513
C6    C     C_R   0.616567 0.442702 0.180194 -0.178145
C7    C     C_R   0.252187 0.370451 0.850853 -0.178545
C8    C     C_R   0.216682 0.312463 0.951390 -0.133495
C9    C     C_R   0.317006 0.298135 0.008061 -0.047519
C10   C     C_R   0.455708 0.336469 0.961714 0.100638
C11   C     C_R   0.497531 0.358210 0.849705 0.071260
C12   C     C_R   0.554915 0.358066 0.020788 -0.027352
C13   C     C_R   0.699928 0.352705 0.963274 0.124982
C14   C     C_R   0.740738 0.325315 0.851491 -0.220008
C15   C     C_R   0.640349 0.334913 0.793729 -0.195884
C16   C     C_R   0.513651 0.404408 0.129302 0.278412
C17   C     C_R   0.759871 0.428174 0.122986 -0.182870
C18   C     C_R   0.393224 0.398819 0.799962 -0.127213
H3    H     H_    0.170476 0.388903 0.811646 0.140522
H4    H     H_    0.286167 0.254813 0.086384 0.208539
H5    H     H_    0.675390 0.325049 0.706194 0.197870
C19   C     C_R   0.401868 0.939741 0.449803 0.034481
C20   C     C_R   0.511255 0.871166 0.472276 -0.163897
C21   C     C_R   0.639673 0.929297 0.462738 -0.253555
H6    H     H_    0.733027 0.875978 0.466399 0.215651
C22   C     C_R   0.646716 0.058589 0.455819 0.300975
C23   C     C_R   0.521059 0.128985 0.462193 -0.249380
C24   C     C_R   0.406926 0.067546 0.444230 0.070684
C25   C     C_3   0.251960 0.084082 0.496535 0.118916
C26   C     C_3   0.247592 0.942931 0.504074 -0.397871
H7    H     H_    0.223637 0.133454 0.577026 0.113871
H8    H     H_    0.224452 0.912035 0.589430 0.246434
H9    H     H_    0.188334 0.897947 0.452742 0.266099
C27   C     C_R   0.893769 0.485673 0.594508 0.166976
N1    N     N_R   0.856940 0.500860 0.500710 -0.095598
C28   C     C_R   0.961359 0.521183 0.407495 -0.006501
H10   H     H_    0.934712 0.539238 0.332737 0.142731
C29   C     C_R   0.103858 0.525367 0.408671 0.071909
N2    N     N_R   0.142580 0.500820 0.500710 -0.095739
C30   C     C_R   0.037126 0.484073 0.594567 0.112112
C31   C     C_3   0.000987 0.571482 0.691767 0.102037
C32   C     C_3   0.849287 0.575426 0.688694 -0.543402
H11   H     H_    0.016355 0.527949 0.766034 0.098253
N3    N     N_R   0.778147 0.115150 0.450139 0.236259
O9    O     O_R   0.853322 0.076166 0.512715 -0.354691
O10   O     O_R   0.834265 0.187871 0.369759 -0.322149
N4    N     N_R   0.178111 0.134838 0.421398 0.296376
O11   O     O_R   0.200592 0.087826 0.323661 -0.328827
O12   O     O_R   0.091985 0.230989 0.451302 -0.318754
H12   H     H_    0.182026 0.553320 0.337248 0.197354
N5    N     N_R   0.065519 0.692714 0.669044 0.252667
O13   O     O_R   0.137932 0.736338 0.730916 -0.387446
O14   O     O_R   0.037926 0.763205 0.595033 -0.434993
H13   H     H_    0.777294 0.538734 0.762826 0.200601
H14   H     H_    0.851147 0.313113 0.806984 0.149263
H15   H     H_    0.809595 0.666392 0.665669 0.257416
N6    N     N_R   0.367513 0.427464 0.182479 0.170102
O15   O     O_R   0.299958 0.348700 0.253670 -0.370383
O16   O     O_R   0.298431 0.515703 0.147896 -0.430577
H16   H     H_    0.110628 0.282657 0.987613 0.153517

loop_
_geom_bond_atom_site_label_1
_geom_bond_atom_site_label_2
_geom_bond_distance
_ccdc_geom_bond_type
O4    Zn2   1.929629 S    
N5    O14   1.300456 A    
C5    H2    1.080218 S    
C32   H13   1.098857 S    
C11   C15   1.406624 A    
N3    O10   1.301708 A    
C22   N3    1.433457 S    
C25   H7    1.113531 S    
C25   C26   1.514771 S    
C4    C6    1.488593 S    
C16   N6    1.427191 S    
C19   C26   1.487777 S    
C1    C20   1.433895 S    
Zn2   O8    1.925991 S    
C32   H15   1.111987 S    
C7    H3    1.079827 S    
C8    C9    1.391022 A    
C27   C32   1.492078 S    
C21   C22   1.389034 A    
O2    C1    1.283033 A    
C13   C14   1.400613 A    
Zn2   N1    2.018839 S    
Zn1   N2    2.017946 S    
N4    O11   1.302428 A    
C6    C17   1.404146 A    
O1    Zn1   2.007024 S    
C9    C10   1.408073 A    
C15   H5    1.080438 S    
Zn1   O7    1.929631 S    
C31   N5    1.457598 S    
C14   C15   1.397874 A    
O4    C2    1.300866 A    
C26   H8    1.108962 S    
O3    Zn1   1.925990 S    
C19   C24   1.371097 A    
C14   H14   1.084022 S    
C28   C29   1.415861 A    
C24   C25   1.494804 S    
C2    C18   1.479517 S    
O8    C4    1.305796 A    
O6    C3    1.286929 A    
C5    C17   1.393839 A    
O1    C1    1.296871 A    
C31   H11   1.110200 S    
N6    O15   1.301662 A    
C29   H12   1.070718 S    
C9    H4    1.077614 S    
C10   C12   1.420365 A    
C3    C23   1.437562 S    
N4    O12   1.299106 A    
N3    O9    1.301729 A    
N2    C30   1.370151 A    
C11   C18   1.417520 A    
C27   C30   1.417851 A    
N6    O16   1.302083 A    
C12   C16   1.415112 A    
C6    C16   1.422002 A    
C12   C13   1.415666 A    
C25   N4    1.462627 S    
C5    C13   1.397539 A    
O3    C2    1.302959 A    
C19   C20   1.387467 A    
C28   H10   1.080785 S    
O2    Zn2   1.985287 S    
C23   C24   1.394863 A    
Zn1   O5    1.985286 S    
O5    C3    1.293913 A    
C27   N1    1.360840 A    
C21   H6    1.083695 S    
C29   N2    1.364689 A    
H1    C17   1.083044 S    
C10   C11   1.401926 A    
C7    C18   1.407385 A    
O7    C4    1.298184 A    
C26   H9    1.111313 S    
Zn2   O6    2.007024 S    
C8    H16   1.079922 S    
C7    C8    1.394038 A    
C31   C32   1.511494 S    
C30   C31   1.503684 S    
N5    O13   1.300528 A    
N1    C28   1.366121 A    
C20   C21   1.405405 A    
C22   C23   1.416222 A    
