data_mof_unit_pretest_1761.cif
_audit_creation_date              2012-12-10T17:04:16-0500
_audit_creation_method            fapswitch 2.2
_symmetry_space_group_name_H-M    P1
_symmetry_Int_Tables_number       1
_space_group_crystal_system       triclinic
_cell_length_a                    18.614644
_cell_length_b                    18.831838
_cell_length_c                    19.108751
_cell_angle_alpha                 109.080265
_cell_angle_beta                  109.388348
_cell_angle_gamma                 107.683406
_cell_volume                      5294.56677699

loop_
_atom_site_label
_atom_site_type_symbol
_atom_type_description
_atom_site_fract_x
_atom_site_fract_y
_atom_site_fract_z
_atom_type_partial_charge
C1    C     C_R   0.618323 0.618340 0.498370 0.802436
C2    C     C_R   0.670994 0.755784 0.486757 -0.006753
C3    C     C_2   0.171036 0.309231 0.344140 0.847678
C4    C     C_2   0.195053 0.968157 0.447960 0.904063
C5    C     C_2   0.804651 0.529809 0.075554 0.978038
C6    C     C_2   0.935824 0.166069 0.954566 0.909360
C7    C     C_2   0.004525 0.035267 0.736011 0.940949
C8    C     C_2   0.114978 0.334436 0.155439 0.948921
C9    C     C_2   0.516051 0.696485 0.449305 0.826774
C10   C     C_2   0.497725 0.828073 0.418529 0.876224
C11   C     C_R   0.817728 0.820867 0.508789 -0.042477
C12   C     C_R   0.377185 0.497885 0.381764 0.849904
C13   C     C_R   0.826830 0.748750 0.508667 -0.020944
C14   C     C_R   0.756404 0.677187 0.491858 -0.052476
C15   C     C_R   0.682450 0.684657 0.493085 -0.107999
C16   C     C_R   0.900619 0.740257 0.511194 0.120346
C17   C     C_R   0.888920 0.662187 0.456968 0.103503
C18   C     C_R   0.813979 0.589756 0.428276 0.154428
C19   C     C_R   0.759925 0.598533 0.463636 0.103479
C20   C     C_3   0.188137 0.421684 0.201527 -0.069175
C21   C     C_R   0.775564 0.642333 0.725104 -0.153343
C22   C     C_R   0.850500 0.717398 0.777511 -0.142970
C23   C     C_R   0.909615 0.728965 0.852052 0.169763
C24   C     C_R   0.382826 0.382731 0.502572 0.786878
C25   C     C_R   0.894449 0.663213 0.874001 -0.029604
C26   C     C_R   0.823784 0.579663 0.813678 -0.016901
C27   C     C_R   0.760653 0.572099 0.740924 0.095269
C28   C     C_R   0.814454 0.503719 0.820478 -0.139826
C29   C     C_R   0.744958 0.422895 0.752453 0.047547
C30   C     C_R   0.685357 0.417157 0.679267 -0.021618
C31   C     C_3   0.216632 0.470546 0.296202 -0.270090
C32   C     C_R   0.686307 0.493734 0.681076 -0.076899
C33   C     C_R   0.735803 0.344969 0.752388 -0.097875
C34   C     C_R   0.710613 0.275404 0.676585 -0.158214
C35   C     C_R   0.659645 0.271437 0.600970 0.131890
C36   C     C_R   0.615669 0.494733 0.617821 0.766049
C37   C     C_R   0.633659 0.335065 0.605503 -0.156032
C38   C     C_R   0.393120 0.382992 0.659924 0.119043
C39   C     C_R   0.423999 0.360625 0.722684 -0.159962
C40   C     C_R   0.367591 0.286248 0.715825 0.141485
C41   C     C_R   0.281549 0.245706 0.653738 0.152689
C42   C     C_3   0.311017 0.502943 0.315700 -0.067465
C43   C     C_R   0.261308 0.249148 0.576841 -0.026674
C44   C     C_R   0.322328 0.318635 0.580001 0.029557
C45   C     C_R   0.186135 0.183996 0.497952 -0.057830
C46   C     C_R   0.180929 0.182947 0.420645 0.050524
C47   C     C_R   0.241557 0.255532 0.427549 -0.026499
C48   C     C_3   0.311009 0.582329 0.307250 -0.180747
C49   C     C_R   0.313750 0.319645 0.504347 -0.076034
C50   C     C_R   0.125917 0.112066 0.335473 -0.090571
C51   C     C_R   0.146301 0.114522 0.270554 -0.118509
C52   C     C_R   0.200852 0.192815 0.283569 0.202707
C53   C     C_R   0.592029 0.761209 0.465329 -0.024796
C54   C     C_R   0.224625 0.264944 0.355202 -0.204859
C55   C     C_R   0.000392 0.617104 0.120157 0.742926
C56   C     C_R   0.122306 0.500029 0.123238 0.804048
C57   C     C_R   0.001326 0.382705 0.881876 0.820570
C58   C     C_R   0.883871 0.503731 0.887852 0.745893
C59   C     C_R   0.004510 0.883390 0.383288 0.810953
C60   C     C_3   0.216116 0.547725 0.285594 -0.028319
C61   C     C_R   0.882263 0.884274 0.503234 0.829251
C62   C     C_R   0.995198 0.115215 0.617083 0.789204
C63   C     C_R   0.118746 0.117013 0.498079 0.807364
C64   C     C_R   0.579271 0.822184 0.442087 -0.049417
C65   C     C_R   0.155978 0.735999 0.269970 -0.125210
C66   C     C_R   0.236461 0.801860 0.328475 -0.110247
C67   C     C_R   0.245733 0.875799 0.385403 0.151400
C68   C     C_R   0.172926 0.883150 0.386728 -0.126356
C69   C     C_R   0.086712 0.815091 0.324844 0.014316
C70   C     C_R   0.080536 0.743066 0.262263 0.071743
C71   C     C_R   0.007315 0.815948 0.318378 -0.091425
C72   C     C_3   0.188048 0.499615 0.191882 -0.189497
C73   C     C_R   0.927089 0.751569 0.245469 0.006498
C74   C     C_R   0.922781 0.682100 0.183135 0.006101
C75   C     C_R   0.646916 0.883779 0.448213 -0.136927
C76   C     C_R   0.000446 0.679597 0.190955 -0.122526
C77   C     C_R   0.848695 0.755210 0.230897 0.141306
C78   C     C_R   0.785052 0.720568 0.148188 0.199387
C79   C     C_R   0.778252 0.650105 0.087704 -0.196228
C80   C     C_R   0.840107 0.622664 0.110390 -0.163800
C81   C     C_R   0.031057 0.403514 0.742699 0.099068
C82   C     C_R   0.072881 0.419147 0.696360 0.144849
C83   C     C_R   0.059936 0.349505 0.628125 0.113875
C84   C     C_3   0.282710 0.532678 0.212721 -0.077809
C85   C     C_R   0.006752 0.268378 0.610503 0.102022
C86   C     C_R   0.727535 0.892398 0.489411 0.148631
C87   C     C_R   0.000877 0.256485 0.678451 -0.019064
C88   C     C_R   0.010014 0.325890 0.745407 -0.029394
C89   C     C_R   0.992730 0.180576 0.683261 -0.064549
C90   C     C_R   0.989788 0.172410 0.754977 -0.018879
C91   C     C_R   0.995030 0.241794 0.818196 0.025740
C92   C     C_R   0.001787 0.316455 0.813280 -0.057693
C93   C     C_R   0.976618 0.098076 0.767451 -0.092146
C94   C     C_R   0.949869 0.091172 0.827279 0.101618
C95   C     C_R   0.966245 0.165291 0.892414 -0.059071
C96   C     C_3   0.283223 0.453676 0.221106 0.162479
C97   C     C_R   0.740025 0.823932 0.496929 0.028902
C98   C     C_R   0.006367 0.240917 0.893557 0.083461
C99   C     C_2   0.176284 0.595546 0.323784 0.847169
C100  C     C_2   0.941451 0.691393 0.964525 0.836592
C101  C     C_2   0.703639 0.322682 0.807725 0.935343
C102  C     C_2   0.726224 0.203194 0.679087 0.949037
C103  C     C_2   0.542892 0.304378 0.546121 0.932841
C104  C     C_2   0.510756 0.419759 0.796560 0.949931
C105  C     C_2   0.045821 0.038259 0.306959 0.894865
C106  C     C_2   0.108850 0.037469 0.189078 0.917966
C107  C     C_2   0.322661 0.570393 0.168545 0.943305
Cu1   Cu    Cu3+1 0.500490 0.438210 0.438660 1.136875
Cu2   Cu    Cu3+1 0.499510 0.561790 0.561340 1.099038
Cu3   Cu    Cu3+1 0.942070 0.438200 0.003850 1.181550
Cu4   Cu    Cu3+1 0.065670 0.561760 0.003800 1.106357
Cu5   Cu    Cu3+1 0.062280 0.000030 0.562300 1.119693
Cu6   Cu    Cu3+1 0.937720 1.000000 0.437720 1.082406
H1    H     H_    0.639404 0.935271 0.438375 0.201376
H2    H     H_    0.938427 0.734104 0.073232 0.339181
H3    H     H_    0.623324 0.325005 0.856837 0.382905
H4    H     H_    0.805725 0.165710 0.739850 0.352421
H5    H     H_    0.509036 0.315908 0.637029 0.304990
H6    H     H_    0.630596 0.510116 0.841162 0.339772
H7    H     H_    0.917404 0.988792 0.261048 0.348558
H8    H     H_    0.086411 0.916431 0.129564 0.364594
H9    H     H_    0.325093 0.554538 0.059955 0.357108
H10   H     H_    0.242502 0.408148 0.463911 0.309086
H11   H     H_    0.207458 0.015802 0.370042 0.337946
H12   H     H_    0.732151 0.638907 0.668641 0.157874
H13   H     H_    0.750009 0.506564 0.954656 0.296427
H14   H     H_    0.869064 0.205390 0.008799 0.348834
H15   H     H_    0.104487 0.010460 0.745555 0.352603
H16   H     H_    0.996112 0.263472 0.132468 0.370645
H17   H     H_    0.417989 0.681348 0.478093 0.353355
H18   H     H_    0.402608 0.828028 0.447109 0.343373
H19   H     H_    0.861098 0.768186 0.761167 0.193232
H20   H     H_    0.353682 0.651421 0.344421 0.182296
H21   H     H_    0.718490 0.610094 0.028973 0.181877
H22   H     H_    0.154471 0.679361 0.229576 0.142101
H23   H     H_    0.291899 0.795547 0.327376 0.170580
H24   H     H_    0.186229 0.450479 0.331355 0.238710
H25   H     H_    0.067280 0.599345 0.316544 0.359960
I1    I     I_    0.800728 0.015334 0.587317 -0.313377
I2    I     I_    0.206131 0.266121 0.711814 -0.248056
I3    I     I_    0.373899 0.977495 0.465505 -0.130477
I4    I     I_    0.794297 0.725084 0.304334 -0.295303
I5    I     I_    0.681787 0.750764 0.119666 -0.171357
I6    I     I_    0.345585 0.391251 0.166637 -0.077769
I7    I     I_    0.942756 0.452762 0.734659 -0.243436
I8    I     I_    0.139976 0.545657 0.720703 -0.105255
I9    I     I_    0.105196 0.362826 0.542478 -0.147162
I10   I     I_    0.890767 0.207189 0.493861 -0.124045
I11   I     I_    0.889036 0.970897 0.821418 -0.136133
I12   I     I_    0.015770 0.807921 0.629266 -0.152813
I13   I     I_    0.135133 0.321816 0.986023 -0.194288
I14   I     I_    0.790040 0.466872 0.346285 -0.064625
I15   I     I_    0.988501 0.656594 0.427932 -0.175867
I16   I     I_    0.755938 0.527923 0.529772 -0.240729
I17   I     I_    0.615277 0.167666 0.480829 -0.083610
I18   I     I_    0.016693 0.852148 0.931253 -0.123565
I19   I     I_    0.256228 0.204737 0.205104 -0.072234
I20   I     I_    0.403340 0.507442 0.710533 -0.161340
I21   I     I_    0.402277 0.238716 0.802010 -0.083907
O1    O     O_R   0.590580 0.537990 0.448200 -0.543206
O2    O     O_R   0.948140 0.909840 0.357940 -0.570622
O3    O     O_R   0.962430 0.909850 0.552620 -0.552683
O4    O     O_R   0.589760 0.642350 0.551790 -0.564934
O5    O     O_R   0.857240 0.909830 0.447420 -0.571302
O6    O     O_R   0.051860 0.090180 0.642080 -0.560800
O7    O     O_R   0.946670 0.090160 0.536880 -0.552594
O8    O     O_R   0.142760 0.090200 0.552610 -0.530810
O9    O     O_R   0.037570 0.090170 0.447410 -0.569326
O10   O     O_R   0.409540 0.447820 0.357340 -0.555926
O11   O     O_R   0.408720 0.552180 0.460940 -0.577479
O12   O     O_R   0.055380 0.642340 0.093300 -0.552164
O13   O     O_R   0.410240 0.357650 0.448210 -0.532066
O14   O     O_R   0.409420 0.462010 0.551800 -0.588527
O15   O     O_R   0.591280 0.447820 0.539060 -0.563774
O16   O     O_R   0.590460 0.552180 0.642660 -0.556457
O17   O     O_R   0.951000 0.537990 0.093340 -0.555358
O18   O     O_2   0.221805 0.664061 0.387715 -0.575275
O19   O     O_R   0.086920 0.560375 0.286764 -0.703683
O20   O     O_2   0.019683 0.720940 0.000275 -0.527002
O21   O     O_R   0.897515 0.695632 0.010840 -0.788804
O22   O     O_2   0.726876 0.280889 0.838618 -0.508250
O23   O     O_R   0.042560 0.447800 0.094700 -0.512028
O24   O     O_R   0.643528 0.346770 0.821319 -0.751321
O25   O     O_2   0.671141 0.130031 0.628973 -0.526547
O26   O     O_R   0.803282 0.219446 0.742231 -0.728805
O27   O     O_2   0.518825 0.278456 0.470777 -0.474126
O28   O     O_R   0.482834 0.299285 0.574916 -0.755111
O29   O     O_2   0.526677 0.424921 0.865959 -0.527467
O30   O     O_R   0.574217 0.471912 0.786758 -0.751823
O31   O     O_2   0.044316 0.969642 0.292212 -0.612426
O32   O     O_R   0.969445 0.044766 0.285134 -0.687169
O33   O     O_2   0.073074 0.037452 0.122598 -0.488469
O34   O     O_R   0.146930 0.552150 0.094670 -0.590437
O35   O     O_R   0.115145 0.965226 0.188612 -0.726816
O36   O     O_2   0.380720 0.643008 0.208010 -0.542840
O37   O     O_R   0.293339 0.522292 0.082555 -0.712871
O38   O     O_2   0.107168 0.278129 0.276583 -0.500407
O39   O     O_R   0.185606 0.380743 0.411587 -0.713319
O40   O     O_2   0.215401 0.984664 0.521211 -0.478386
O41   O     O_R   0.212010 0.034188 0.428112 -0.751816
O42   O     O_2   0.817476 0.499722 0.123463 -0.475730
O43   O     O_R   0.753194 0.475414 0.989035 -0.700250
O44   O     O_2   0.946131 0.124339 0.990834 -0.500819
O45   O     O_R   0.952370 0.357620 0.914350 -0.521077
O46   O     O_R   0.893716 0.214583 0.970691 -0.710117
O47   O     O_2   0.951917 0.960858 0.689791 -0.580781
O48   O     O_R   0.092431 0.059572 0.768792 -0.680003
O49   O     O_2   0.125412 0.272668 0.126021 -0.521985
O50   O     O_R   0.036619 0.324462 0.153093 -0.673247
O51   O     O_2   0.481017 0.630154 0.384672 -0.628281
O52   O     O_R   0.482448 0.713986 0.504857 -0.665527
O53   O     O_2   0.464148 0.832335 0.354155 -0.538422
O54   O     O_R   0.461598 0.832101 0.472218 -0.698207
O55   O     O_R   0.056740 0.461970 0.914310 -0.565285
O56   O     O_R   0.860810 0.447810 0.912980 -0.565955
O57   O     O_R   0.965190 0.552160 0.912950 -0.549435
O58   O     O_R   0.053330 0.909870 0.463140 -0.564481

loop_
_geom_bond_atom_site_label_1
_geom_bond_atom_site_label_2
_ccdc_geom_bond_type
C44   C49   A    
C100  O21   S    
C87   C88   A    
C62   C89   S    
C36   O15   A    
C93   C94   A    
C31   C42   S    
H18   O54   S    
C61   O5    A    
C73   C74   A    
C105  O32   S    
C40   I21   S    
C85   I10   S    
C106  O33   D    
C60   C99   S    
C17   I15   S    
C3    O39   S    
Cu6   O9    S    
C107  O36   D    
C81   C82   A    
C95   C98   A    
C39   C104  S    
C106  O35   S    
C45   C46   A    
H13   O43   S    
C94   I11   S    
C26   C27   A    
C8    C20   S    
C74   C76   A    
C33   C101  S    
C32   C36   S    
C21   C22   A    
C28   C29   A    
C35   C37   A    
C35   I17   S    
C18   C19   A    
C34   C102  S    
C5    O42   D    
C38   C39   A    
C53   C64   A    
Cu2   O14   S    
C65   H22   S    
C60   C72   S    
C65   C70   A    
H3    O24   S    
C29   C33   A    
C24   C49   S    
C84   C107  S    
Cu1   Cu2   S    
Cu3   O45   S    
C34   C35   A    
C84   C96   S    
C8    O49   D    
C86   C97   A    
C42   C96   S    
Cu3   Cu4   S    
C107  O37   S    
C6    O46   S    
C12   C42   S    
C75   C86   A    
C59   O58   A    
C77   I4    S    
C4    O40   D    
C88   C92   A    
C2    C97   A    
C16   C17   A    
C41   I2    S    
Cu1   O15   S    
C17   C18   A    
C50   C105  S    
Cu5   O58   S    
Cu4   O55   S    
C1    C15   S    
H15   O48   S    
C31   H24   S    
C104  O30   S    
H2    O21   S    
C101  O24   S    
C22   H19   S    
C58   O56   A    
C63   O8    A    
C66   C67   A    
C20   C96   S    
C74   C80   A    
C13   C14   A    
C104  O29   D    
C41   C43   A    
H17   O52   S    
C94   C95   A    
C103  O27   D    
C7    O47   D    
C18   I14   S    
C24   O14   A    
C14   C19   A    
C55   O12   A    
Cu5   Cu6   S    
C82   I8    S    
C52   C54   A    
C48   C60   S    
C98   I13   S    
C85   C87   A    
C7    C93   S    
C102  O26   S    
C69   C71   A    
C67   C68   A    
C48   H20   S    
C103  O28   S    
Cu4   O57   S    
C38   I20   S    
C99   O19   S    
C47   C49   A    
Cu2   O4    S    
H7    O32   S    
Cu6   O7    S    
C71   C73   A    
C78   C79   A    
C68   C69   A    
C12   O11   A    
C50   C51   A    
C25   C26   A    
C77   C78   A    
Cu5   O8    S    
C45   C63   S    
C61   O3    A    
C30   C37   A    
C31   C60   S    
C43   C44   A    
C38   C44   A    
C29   C30   A    
C59   O2    A    
C96   I6    S    
C25   C100  S    
C4    O41   S    
C9    O51   D    
C33   C34   A    
H10   O39   S    
C75   H1    S    
C42   C48   S    
C5    C80   S    
Cu1   O10   S    
C2    C15   A    
C43   C45   A    
Cu3   O23   S    
C72   C84   S    
C86   I1    S    
Cu4   O34   S    
C47   C54   A    
C83   I9    S    
C55   C76   S    
C7    O48   S    
C40   C41   A    
C62   O7    A    
C65   C66   A    
C81   I7    S    
Cu1   O13   S    
C70   C76   A    
C66   H23   S    
C79   C80   A    
C9    C53   S    
C21   H12   S    
C8    O50   S    
H25   O19   S    
H8    O35   S    
C91   C92   A    
C101  O22   D    
Cu2   O11   S    
C67   I3    S    
C90   C93   A    
C4    C68   S    
C10   O53   D    
C52   I19   S    
C79   H21   S    
C46   C50   A    
C46   C47   A    
C63   O9    A    
C56   C72   S    
C27   C32   A    
C22   C23   A    
C105  O31   D    
C5    O43   S    
C1    O1    A    
C10   C64   S    
H6    O30   S    
H9    O37   S    
C11   C61   S    
C2    C53   A    
C37   C103  S    
H5    O28   S    
Cu2   O16   S    
C10   O54   S    
C99   O18   D    
C12   O10   A    
Cu1   O1    S    
C28   C58   S    
Cu5   O3    S    
H11   O41   S    
C26   C28   A    
C83   C85   A    
C11   C97   A    
C102  O25   D    
C87   C89   A    
Cu3   O56   S    
H14   O46   S    
C51   C52   A    
H4    O26   S    
C78   I5    S    
Cu6   O5    S    
C30   C32   A    
C11   C13   A    
C90   C91   A    
C56   O23   A    
C9    O52   S    
C51   C106  S    
Cu5   O6    S    
C57   O45   A    
C3    O38   D    
C64   C75   A    
C57   C92   S    
Cu4   O12   S    
C23   C25   A    
C91   C98   A    
C21   C27   A    
C69   C70   A    
C24   O13   A    
C55   O17   A    
C81   C88   A    
Cu3   O17   S    
Cu6   O2    S    
C56   O34   A    
C39   C40   A    
C48   C84   S    
C6    O44   D    
C62   O6    A    
C57   O55   A    
C1    O4    A    
C36   O16   A    
C6    C95   S    
C13   C16   A    
C19   I16   S    
C73   C77   A    
C14   C15   A    
C20   C72   S    
C16   I12   S    
C82   C83   A    
C89   C90   A    
C23   I18   S    
C100  O20   D    
H16   O50   S    
C3    C54   S    
C59   C71   S    
C20   C31   S    
C58   O57   A    
