data_mof_unit_pretest_596.cif
_audit_creation_date              2013-03-05T16:43:02-0500
_audit_creation_method            fapswitch 2.2
_symmetry_space_group_name_H-M    P1
_symmetry_Int_Tables_number       1
_space_group_crystal_system       triclinic
_cell_length_a                    10.900511
_cell_length_b                    10.746733
_cell_length_c                    10.025309
_cell_angle_alpha                 91.457602
_cell_angle_beta                  92.628557
_cell_angle_gamma                 91.952424
_cell_volume                      1172.06804053

loop_
_atom_site_label
_atom_site_type_symbol
_atom_site_description
_atom_site_fract_x
_atom_site_fract_y
_atom_site_fract_z
_atom_type_partial_charge
O1    O     O_R   0.500020 0.316790 0.614690 -0.588098
O2    O     O_R   0.500000 0.316760 0.385350 -0.584218
C1    C     C_R   0.501413 0.260338 0.497809 0.942022
O3    O     O_R   0.314800 0.500000 0.614670 -0.611319
O4    O     O_R   0.314790 0.499960 0.385330 -0.533555
C2    C     C_R   0.257391 0.497606 0.497429 1.072168
Zn1   Zn    Zn3+2 0.500010 0.500020 0.653130 1.170560
Zn2   Zn    Zn3+2 0.499990 0.499980 0.346870 1.164413
O5    O     O_R   0.500000 0.683240 0.614650 -0.564928
O6    O     O_R   0.499980 0.683210 0.385310 -0.598469
O7    O     O_R   0.685210 0.500040 0.614670 -0.510598
O8    O     O_R   0.685200 0.500000 0.385330 -0.576216
C3    C     C_R   0.497064 0.739161 0.501505 0.968122
C4    C     C_R   0.741300 0.496159 0.502312 1.014030
C5    C     C_3   0.069302 0.382335 0.581077 -0.115017
H1    H     H_    0.107063 0.402154 0.683276 0.193404
C6    C     C_3   0.926683 0.386165 0.592380 1.052648
H2    H     H_    0.100996 0.607420 0.674867 0.257140
C7    C     C_3   0.074113 0.615636 0.567526 -0.042023
C8    C     C_3   0.059819 0.480077 0.343462 0.302743
C9    C     C_3   0.119258 0.493806 0.492904 -0.546181
C10   C     C_3   0.877118 0.492380 0.503920 -0.526330
C11   C     C_3   0.932004 0.618889 0.562073 0.423356
C12   C     C_3   0.916788 0.479643 0.354597 0.499836
H3    H     H_    0.897496 0.695136 0.499795 0.231944
C13   C     C_R   0.499082 0.068537 0.615710 0.000454
C14   C     C_R   0.493489 0.127223 0.493517 -0.207482
C15   C     C_R   0.467175 0.055408 0.374067 0.320811
C16   C     C_R   0.450908 0.927598 0.383447 -0.090029
H4    H     H_    0.428100 0.872738 0.293217 0.243427
C17   C     C_R   0.481121 0.870080 0.503387 -0.094031
C18   C     C_R   0.496506 0.941509 0.621016 0.002213
C19   C     C_3   0.591882 0.944795 0.735371 0.304059
C20   C     C_3   0.593058 0.086262 0.728397 0.423591
H5    H     H_    0.680941 0.130638 0.698445 0.159486
C21   C     C_R   0.441369 0.406392 0.064342 0.039561
N1    N     N_R   0.499150 0.499140 0.142800 -0.184141
C22   C     C_R   0.574533 0.581137 0.074880 0.226699
C23   C     C_R   0.576085 0.577504 0.932082 0.721384
N2    N     N_R   0.499150 0.499180 0.857150 -0.154865
C24   C     C_R   0.433816 0.413084 0.923059 -0.051248
C25   C     C_3   0.297988 0.393625 0.913234 -0.060366
C26   C     C_3   0.308460 0.377438 0.061608 1.126515
H6    H     H_    0.266152 0.308895 0.854044 0.195222
F1    F     F_    0.875730 0.586861 0.295445 -0.581988
N3    N     N_R   0.132908 0.734032 0.529562 0.258781
O9    O     O_R   0.235152 0.771391 0.592137 -0.317443
O10   O     O_R   0.073292 0.814523 0.459088 -0.215873
N4    N     N_R   0.472939 0.104902 0.242600 0.258298
O11   O     O_R   0.574088 0.161330 0.209199 -0.246427
O12   O     O_R   0.399240 0.057399 0.147408 -0.199639
N5    N     N_R   0.545302 0.898976 0.860635 0.286953
O13   O     O_R   0.604370 0.928604 0.973248 -0.174369
O14   O     O_R   0.440522 0.837397 0.862087 -0.257644
N6    N     N_R   0.710542 0.893129 0.703364 0.200776
O15   O     O_R   0.745822 0.891686 0.581004 -0.357679
O16   O     O_R   0.792035 0.875450 0.799313 -0.131764
F2    F     F_    0.543853 0.144725 0.837499 -0.549148
N7    N     N_R   0.653178 0.673378 0.143526 0.281633
O17   O     O_R   0.603854 0.772404 0.190386 -0.311825
O18   O     O_R   0.765554 0.685869 0.106263 -0.119946
N8    N     N_R   0.115658 0.258069 0.550333 0.276886
O19   O     O_R   0.224916 0.230748 0.595755 -0.363531
O20   O     O_R   0.047741 0.170441 0.489070 -0.137879
F3    F     F_    0.651920 0.656140 0.868356 -0.537435
N9    N     N_R   0.228051 0.504692 0.882286 0.204709
O21   O     O_R   0.282476 0.612719 0.867009 -0.283262
O22   O     O_R   0.110316 0.500509 0.898527 -0.212015
F4    F     F_    0.253541 0.468151 0.132299 -0.602019
F5    F     F_    0.280398 0.257075 0.096731 -0.544260
F6    F     F_    0.864899 0.274232 0.560723 -0.595785
F7    F     F_    0.902091 0.411196 0.724909 -0.524123
F8    F     F_    0.891923 0.644057 0.689106 -0.483994
N10   N     N_R   0.095231 0.585804 0.257274 0.318448
O23   O     O_R   0.043749 0.592377 0.137920 -0.097920
O24   O     O_R   0.184828 0.665530 0.288829 -0.282263
N11   N     N_R   0.094440 0.362988 0.274429 0.261004
O25   O     O_R   0.049824 0.336217 0.153777 -0.175604
O26   O     O_R   0.185768 0.298337 0.318075 -0.270895
N12   N     N_R   0.852902 0.373034 0.280059 0.260757
O27   O     O_R   0.791523 0.392321 0.168374 -0.218896
O28   O     O_R   0.864821 0.258591 0.316086 -0.231315

loop_
_geom_bond_atom_site_label_1
_geom_bond_atom_site_label_2
_geom_bond_distance
_ccdc_geom_bond_type
C19   N6    1.470450 S    
N9    O22   1.300453 A    
N6    O15   1.302161 A    
C13   C18   1.366908 A    
C24   C25   1.486633 S    
C7    N3    1.471717 S    
N11   O25   1.304286 A    
C19   N5    1.466372 S    
Zn1   O7    2.072555 S    
C13   C14   1.391842 A    
N8    O19   1.301100 A    
N10   O24   1.299569 A    
C8    N11   1.488896 S    
C12   F1    1.387509 S    
C15   C16   1.385059 A    
C7    C9    1.594955 S    
N1    C22   1.395665 A    
H2    C7    1.108776 S    
O4    C2    1.311476 A    
O7    C4    1.306492 A    
C5    H1    1.099445 S    
C5    C6    1.565783 S    
C20   H5    1.112594 S    
O5    C3    1.296734 A    
N8    O20   1.301338 A    
C12   N12   1.486724 S    
C13   C20   1.493828 S    
C8    C12   1.568058 S    
N4    O12   1.301409 A    
Zn1   N2    2.046063 S    
N9    O21   1.301401 A    
N7    O17   1.295773 A    
C26   F4    1.361815 S    
C23   F3    1.354243 S    
C21   C24   1.418826 A    
C25   H6    1.110753 S    
C11   F8    1.388352 S    
O3    Zn1   2.037923 S    
N5    O14   1.301228 A    
N11   O26   1.299187 A    
N3    O10   1.302699 A    
N7    O18   1.300544 A    
N10   O23   1.302721 A    
O3    C2    1.305250 A    
C23   N2    1.355759 A    
C2    C9    1.503455 S    
O1    C1    1.306685 A    
C7    C11   1.549136 S    
C16   H4    1.081633 S    
C15   N4    1.437000 S    
C17   C18   1.391074 A    
Zn2   O8    2.037921 S    
C19   C20   1.523337 S    
C8    N10   1.495742 S    
N12   O28   1.299668 A    
N2    C24   1.352494 A    
O8    C4    1.299798 A    
C6    F6    1.380967 S    
C26   F5    1.377241 S    
N6    O16   1.301122 A    
C10   C12   1.581057 S    
Zn2   N1    2.045254 S    
N5    O13   1.300625 A    
C20   F2    1.385855 S    
Zn1   O5    2.016060 S    
N3    O9    1.299782 A    
C21   N1    1.371405 A    
O1    Zn1   1.996841 S    
C3    C17   1.423260 S    
O2    Zn2   2.016060 S    
N12   O27   1.302627 A    
O6    C3    1.299461 A    
O4    Zn2   2.072557 S    
C6    C10   1.559143 S    
C18   C19   1.510811 S    
C4    C10   1.481778 S    
C1    C14   1.429653 S    
O2    C1    1.293378 A    
C16   C17   1.397054 A    
C22   C23   1.432019 A    
C5    N8    1.474143 S    
C11   H3    1.108251 S    
C22   N7    1.429842 S    
C5    C9    1.602047 S    
C8    C9    1.606037 S    
C6    F7    1.388855 S    
Zn2   O6    1.996841 S    
N4    O11   1.301602 A    
C25   C26   1.501631 S    
C14   C15   1.420695 A    
C25   N9    1.470127 S    
C10   C11   1.555156 S    
C21   C26   1.470288 S    
