data_mof_unit_pretest_671.cif
_audit_creation_date              2012-10-26T20:17:40-0400
_audit_creation_method            fapswitch 2.2
_symmetry_space_group_name_H-M    P1
_symmetry_Int_Tables_number       1
_space_group_crystal_system       triclinic
_cell_length_a                    27.811784
_cell_length_b                    8.671986
_cell_length_c                    7.459134
_cell_angle_alpha                 103.270967
_cell_angle_beta                  94.37078
_cell_angle_gamma                 92.807079
_cell_volume                      1741.78502625

loop_
_atom_site_label
_atom_site_type_symbol
_atom_type_description
_atom_site_fract_x
_atom_site_fract_y
_atom_site_fract_z
_atom_type_partial_charge
C1    C     C_R   0.498519 0.199586 0.452953 0.527297
C2    C     C_R   0.868789 0.359196 0.437251 0.029034
C3    C     C_R   0.354570 0.497182 0.507414 -0.037803
C4    C     C_R   0.645428 0.502678 0.492585 -0.037770
C5    C     C_R   0.970887 0.353768 0.450549 0.031783
C6    C     C_R   0.029107 0.645674 0.549499 0.031786
C7    C     C_R   0.977860 0.647221 0.541090 -0.032834
C8    C     C_R   0.022135 0.352221 0.458954 -0.032835
C9    C     C_R   0.949066 0.501348 0.491997 0.026210
C10   C     C_R   0.050928 0.498094 0.508048 0.026209
C11   C     C_R   0.940358 0.212174 0.401398 -0.107107
C12   C     C_R   0.501481 0.800414 0.547047 0.527321
C13   C     C_R   0.059636 0.787270 0.598657 -0.107113
C14   C     C_R   0.890485 0.215317 0.394889 -0.032050
C15   C     C_R   0.109507 0.784130 0.605173 -0.032051
C16   C     C_R   0.407486 0.498945 0.501991 0.556354
C17   C     C_R   0.592513 0.501038 0.498008 0.556363
C18   C     C_R   0.045843 0.209073 0.419475 -0.113102
C19   C     C_R   0.954152 0.790370 0.580564 -0.113102
C20   C     C_2   0.497830 0.031388 0.426723 -0.114107
C21   C     C_2   0.502170 0.968612 0.573277 -0.114103
C22   C     C_R   0.175383 0.354091 0.481413 0.449191
C23   C     C_R   0.102202 0.496503 0.515343 -0.086135
C24   C     C_R   0.824614 0.645362 0.518602 0.449158
C25   C     C_R   0.181585 0.637151 0.565413 0.463954
C26   C     C_R   0.818408 0.362305 0.434658 0.463990
C27   C     C_R   0.284665 0.533742 0.686455 0.298270
C28   C     C_R   0.715323 0.465792 0.313619 0.298233
C29   C     C_R   0.334655 0.534347 0.678738 -0.123672
C30   C     C_R   0.665333 0.465376 0.321301 -0.123673
C31   C     C_R   0.323395 0.457710 0.343093 0.388959
C32   C     C_R   0.676612 0.542077 0.656912 0.389006
C33   C     C_R   0.273546 0.456727 0.351324 -0.024213
C34   C     C_R   0.897793 0.502942 0.484702 -0.086138
C35   C     C_R   0.726459 0.542874 0.648721 -0.024104
C36   C     C_R   0.253969 0.495277 0.521892 0.163739
C37   C     C_R   0.746026 0.504214 0.478181 0.163734
C38   C     C_R   0.124605 0.351490 0.474210 0.032637
C39   C     C_R   0.875391 0.647956 0.525819 0.032640
C40   C     C_R   0.095830 0.208493 0.426098 0.389900
C41   C     C_R   0.904166 0.790952 0.573932 0.389897
C42   C     C_R   0.131204 0.640253 0.562808 0.029051
Cl1   Cl    Cl    0.738756 0.419755 0.096714 -0.470922
Cl2   Cl    Cl    0.261225 0.579606 0.903399 -0.470893
Cu1   Cu    Cu3+1 0.505380 0.517380 0.684380 1.231351
Cu2   Cu    Cu3+1 0.494620 0.482620 0.315620 1.231356
F1    F     F_    0.340757 0.418322 0.174474 -0.548931
F2    F     F_    0.659263 0.581594 0.825491 -0.549001
F3    F     F_    0.453135 0.357261 0.925387 -0.514556
F4    F     F_    0.546865 0.642740 0.074613 -0.514541
F5    F     F_    0.115597 0.065987 0.382727 -0.590769
F6    F     F_    0.884400 0.933459 0.617307 -0.590774
H1    H     H_    0.249826 0.425968 0.224556 0.205571
H2    H     H_    0.973011 0.905959 0.618192 0.130147
H3    H     H_    0.493760 0.958972 0.285873 0.169056
H4    H     H_    0.506240 0.041028 0.714127 0.169055
H5    H     H_    0.750186 0.573598 0.775487 0.205526
H6    H     H_    0.642146 0.435304 0.193045 0.217203
H7    H     H_    0.357834 0.564462 0.806998 0.217252
H8    H     H_    0.868891 0.103384 0.356279 0.222783
H9    H     H_    0.131101 0.896065 0.643788 0.222775
H10   H     H_    0.953475 0.095416 0.366654 0.118811
H11   H     H_    0.046519 0.904028 0.633403 0.118807
H12   H     H_    0.026983 0.093485 0.381849 0.130146
N1    N     N_R   0.202522 0.495509 0.525616 -0.397744
N2    N     N_R   0.797473 0.503950 0.474439 -0.397747
N3    N     N_2   0.486510 0.456430 0.038510 0.183396
N4    N     N_2   0.513490 0.543570 0.961490 0.183396
O1    O     O_R   0.503500 0.286120 0.619780 -0.484402
O2    O     O_2   0.802338 0.782483 0.555312 -0.353078
O3    O     O_2   0.790491 0.224886 0.394495 -0.394848
O4    O     O_2   0.209500 0.774578 0.605605 -0.394916
O5    O     O_R   0.496500 0.713880 0.380220 -0.484393
O6    O     O_R   0.494410 0.256780 0.308360 -0.494420
O7    O     O_R   0.505590 0.743220 0.691640 -0.494410
O8    O     O_R   0.434810 0.514700 0.655690 -0.492272
O9    O     O_R   0.565190 0.485300 0.344310 -0.492267
O10   O     O_R   0.425720 0.485350 0.344280 -0.422737
O11   O     O_R   0.574280 0.514650 0.655720 -0.422756
O12   O     O_2   0.197661 0.216969 0.444649 -0.353062

loop_
_geom_bond_atom_site_label_1
_geom_bond_atom_site_label_2
_ccdc_geom_bond_type
C27   C29   A    
C11   H10   S    
C33   C36   A    
C24   O2    S    
C39   C41   A    
Cu1   Cu2   S    
C23   C42   A    
Cu1   O8    S    
C1    O6    A    
C35   C37   A    
C5    C11   A    
C11   C14   A    
C22   C38   A    
C17   O11   A    
C24   C39   A    
C3    C29   A    
C18   C40   A    
C27   Cl2   S    
C29   H7    S    
C31   C33   A    
C41   F6    S    
C24   N2    A    
C2    C34   A    
C31   F1    S    
C12   O5    A    
C26   O3    S    
C32   F2    S    
C20   H3    S    
C33   H1    S    
Cu1   O1    S    
C34   C39   A    
C26   N2    A    
C32   C35   A    
C25   N1    A    
Cu1   O11   S    
Cu2   O10   S    
C36   N1    S    
C12   C21   S    
C1    O1    A    
N3    N4    D    
C22   N1    A    
C5    C9    A    
Cu2   O9    S    
C13   H11   S    
C37   N2    S    
Cu1   N4    S    
C17   O9    A    
C15   H9    S    
C2    C26   A    
C25   O4    S    
C3    C31   A    
C4    C32   A    
C4    C17   S    
C19   H2    S    
C7    C19   A    
C13   C15   A    
C9    C34   A    
C10   C23   A    
C5    C8    A    
C23   C38   A    
Cu2   O6    S    
C7    C9    A    
C1    C20   S    
F3    N3    S    
C16   O8    A    
C15   C42   A    
C25   C42   A    
C6    C10   A    
C21   H4    S    
C6    C7    A    
C27   C36   A    
C40   F5    S    
C14   H8    S    
C28   Cl1   S    
Cu1   O7    S    
C35   H5    S    
C28   C30   A    
C22   O12   S    
Cu2   N3    S    
C6    C13   A    
C38   C40   A    
C18   H12   S    
C28   C37   A    
C30   H6    S    
C16   O10   A    
C2    C14   A    
C8    C18   A    
C20   C21   D    
C8    C10   A    
C12   O7    A    
F4    N4    S    
Cu2   O5    S    
C4    C30   A    
C3    C16   S    
C19   C41   A    
