data_mof_unit_pretest_976.cif
_audit_creation_date              2012-12-10T18:05:13-0500
_audit_creation_method            fapswitch 2.2
_symmetry_space_group_name_H-M    P1
_symmetry_Int_Tables_number       1
_space_group_crystal_system       triclinic
_cell_length_a                    9.669155
_cell_length_b                    10.816154
_cell_length_c                    16.908817
_cell_angle_alpha                 85.493818
_cell_angle_beta                  94.346376
_cell_angle_gamma                 90.139198
_cell_volume                      1757.8287194

loop_
_atom_site_label
_atom_site_type_symbol
_atom_type_description
_atom_site_fract_x
_atom_site_fract_y
_atom_site_fract_z
_atom_type_partial_charge
C1    C     C_R   0.499881 0.262485 0.500360 0.775831
C2    C     C_R   0.500119 0.737515 0.499638 0.775711
C3    C     C_R   0.376544 0.934633 0.508809 -0.153699
C4    C     C_R   0.623455 0.065366 0.491190 -0.153561
C5    C     C_R   0.500154 0.871572 0.499883 -0.019804
C6    C     C_R   0.499845 0.128428 0.500116 -0.019914
C7    C     C_R   0.080000 0.419472 0.551747 0.192185
C8    C     C_R   0.920000 0.580527 0.448251 0.192134
C9    C     C_R   0.932076 0.419867 0.551574 0.230009
C10   C     C_R   0.067925 0.580127 0.448421 0.230004
C11   C     C_R   0.517864 0.499955 0.650679 0.823771
C12   C     C_R   0.482135 0.500147 0.349321 0.823742
C13   C     C_R   0.530046 0.503884 0.737127 -0.087285
C14   C     C_R   0.469941 0.496711 0.262852 -0.086879
C15   C     C_R   0.499381 0.612277 0.774320 0.127547
C16   C     C_R   0.499572 0.388335 0.225400 0.127220
C17   C     C_R   0.519137 0.610939 0.858383 0.117929
C18   C     C_R   0.479899 0.390250 0.141311 0.117969
C19   C     C_R   0.557500 0.498438 0.903888 0.287509
C20   C     C_R   0.442544 0.503197 0.096063 0.288048
C21   C     C_R   0.596359 0.395448 0.865016 0.140309
C22   C     C_R   0.404654 0.606240 0.135187 0.140549
C23   C     C_R   0.581621 0.398469 0.782566 -0.273988
C24   C     C_R   0.419397 0.602698 0.217652 -0.273908
C25   C     C_R   0.376355 0.062515 0.508794 -0.173612
C26   C     C_R   0.623644 0.937484 0.491204 -0.173605
Cu1   Cu    Cu3+1 0.640660 0.500020 0.500000 0.973045
Cu2   Cu    Cu3+1 0.359340 0.499980 0.500000 0.972935
H1    H     H_    0.608651 0.316913 0.753699 0.196632
H2    H     H_    0.393112 0.684264 0.246731 0.196264
H3    H     H_    0.279756 0.109378 0.515851 0.158121
H4    H     H_    0.720243 0.890621 0.484148 0.158107
H5    H     H_    0.280076 0.885444 0.516115 0.171753
H6    H     H_    0.719923 0.114555 0.483885 0.171794
N1    N     N_2   0.557047 0.486544 0.988117 -0.210482
N2    N     N_2   0.442979 0.515382 0.011842 -0.210799
N3    N     N_R   0.852070 0.500030 0.499980 -0.198777
N4    N     N_R   0.147930 0.499970 0.500020 -0.198813
O1    O     O_R   0.618740 0.319660 0.500000 -0.562764
O2    O     O_R   0.381260 0.680340 0.500000 -0.563007
O3    O     O_R   0.381170 0.319630 0.500010 -0.594105
O4    O     O_R   0.618830 0.680370 0.499990 -0.594102
O5    O     O_R   0.631780 0.498870 0.613920 -0.536011
O6    O     O_R   0.368220 0.501130 0.386080 -0.535954
O7    O     O_R   0.394210 0.498840 0.613930 -0.586371
O8    O     O_R   0.605790 0.501160 0.386070 -0.586253
C27   C     C_3   0.548104 0.270099 0.273625 -0.812355
H7    H     H_    0.568797 0.281517 0.337802 0.223576
H8    H     H_    0.467997 0.197063 0.267829 0.236483
H9    H     H_    0.646263 0.237542 0.252046 0.243246
C28   C     C_3   0.449655 0.729974 0.725861 -0.812875
H10   H     H_    0.428908 0.718088 0.661749 0.224255
H11   H     H_    0.351244 0.761935 0.747469 0.243269
H12   H     H_    0.529098 0.803654 0.731370 0.236173
C29   C     C_3   0.490832 0.270912 0.101200 -0.718843
H13   H     H_    0.600381 0.239190 0.105798 0.252930
H14   H     H_    0.426126 0.198084 0.129884 0.230965
H15   H     H_    0.450950 0.280616 0.037861 0.260930
C30   C     C_3   0.507204 0.730474 0.898189 -0.718733
H16   H     H_    0.397247 0.761092 0.893968 0.252922
H17   H     H_    0.547991 0.721426 0.961376 0.261148
H18   H     H_    0.570700 0.803854 0.869082 0.230760
I1    I     I_    0.679804 0.231689 0.927325 -0.325329
I2    I     I_    0.322577 0.770847 0.073310 -0.325923
C31   C     C_3   0.156953 0.327038 0.611013 -0.719401
H19   H     H_    0.135273 0.346774 0.672343 0.229273
H20   H     H_    0.122491 0.231635 0.599688 0.204846
H21   H     H_    0.268961 0.324629 0.610832 0.264853
C32   C     C_3   0.843049 0.672962 0.388986 -0.719351
H22   H     H_    0.864721 0.653221 0.327655 0.229305
H23   H     H_    0.731041 0.675375 0.389169 0.264801
H24   H     H_    0.877519 0.768364 0.400308 0.204840
I3    I     I_    0.838857 0.290088 0.634755 -0.368816
I4    I     I_    0.161149 0.709876 0.365219 -0.368371

loop_
_geom_bond_atom_site_label_1
_geom_bond_atom_site_label_2
_ccdc_geom_bond_type
C25   H3    S    
C32   H24   S    
C4    C26   A    
C29   H13   S    
Cu2   O2    S    
C11   O5    A    
C19   C21   A    
C15   C28   S    
C5    C26   A    
C7    C31   S    
C4    H6    S    
C10   I4    S    
C1    O1    A    
C18   C20   A    
N1    N2    D    
C13   C15   A    
Cu2   N4    S    
C10   N4    A    
C28   H12   S    
C31   H21   S    
C9    N3    A    
C20   C22   A    
C3    C5    A    
C30   H16   S    
C27   H8    S    
C19   N1    S    
C26   H4    S    
C1    O3    A    
C11   C13   S    
Cu1   O4    S    
C8    C32   S    
C29   H15   S    
C9    I3    S    
C18   C29   S    
C2    O4    A    
C23   H1    S    
Cu1   O8    S    
C16   C18   A    
C17   C19   A    
C7    N4    A    
C17   C30   S    
C31   H19   S    
C27   H9    S    
C14   C16   A    
C29   H14   S    
C21   C23   A    
C32   H22   S    
C22   C24   A    
Cu2   O7    S    
C11   O7    A    
C6    C25   A    
C21   I1    S    
C8    N3    A    
C3    H5    S    
C24   H2    S    
Cu1   O1    S    
C28   H10   S    
C20   N2    S    
C27   H7    S    
C2    O2    A    
Cu2   O3    S    
C3    C25   A    
C13   C23   A    
C7    C9    A    
C4    C6    A    
C30   H17   S    
C14   C24   A    
Cu1   Cu2   S    
C32   H23   S    
Cu1   O5    S    
C16   C27   S    
Cu1   N3    S    
C12   O6    A    
C30   H18   S    
C28   H11   S    
C15   C17   A    
C22   I2    S    
Cu2   O6    S    
C8    C10   A    
C2    C5    S    
C1    C6    S    
C12   C14   S    
C31   H20   S    
C12   O8    A    
