data_mof_unit_pretest_323.cif
_audit_creation_date              2012-12-11T17:01:18-0500
_audit_creation_method            fapswitch 2.2
_symmetry_space_group_name_H-M    P1
_symmetry_Int_Tables_number       1
_space_group_crystal_system       triclinic
_cell_length_a                    14.966323
_cell_length_b                    14.854119
_cell_length_c                    14.859091
_cell_angle_alpha                 109.776222
_cell_angle_beta                  109.202421
_cell_angle_gamma                 109.510489
_cell_volume                      2540.49897034

loop_
_atom_site_label
_atom_site_type_symbol
_atom_type_description
_atom_site_fract_x
_atom_site_fract_y
_atom_site_fract_z
_atom_type_partial_charge
C1    C     C_R   0.929862 0.744696 0.023109 -0.149284
C2    C     C_R   0.210007 0.805712 0.300833 -0.143827
C3    C     C_R   0.973293 0.408547 0.223865 -0.126633
C4    C     C_R   0.779412 0.253674 0.685680 -0.147966
C5    C     C_R   0.314432 0.592589 0.067343 -0.136996
C6    C     C_R   0.051009 0.502059 0.327093 0.071106
C7    C     C_R   0.325483 0.500192 0.051846 -0.006906
C8    C     C_R   0.303036 0.868678 0.301738 0.080883
C9    C     C_R   0.934166 0.131041 0.934024 0.079666
C10   C     C_3   0.531301 0.396686 0.072584 -0.405042
C11   C     C_3   0.427217 0.396818 0.068301 -0.397849
C12   C     C_R   0.675986 0.224020 0.672775 0.072201
C13   C     C_3   0.634030 0.604510 0.175918 -0.403907
C14   C     C_3   0.537055 0.499576 0.967343 -0.393312
C15   C     C_3   0.603139 0.500211 0.072563 0.397889
C16   C     C_R   0.096752 0.592195 0.792933 -0.162681
C17   C     C_3   0.427248 0.500249 0.064880 0.392138
C18   C     C_3   0.529834 0.604243 0.171737 -0.398902
C19   C     C_3   0.434212 0.499740 0.962836 -0.391686
C20   C     C_R   0.574189 0.122989 0.467853 0.163102
C21   C     C_R   0.575244 0.168250 0.567891 0.033879
C22   C     C_R   0.473945 0.140066 0.564305 -0.203926
C23   C     C_R   0.067278 0.501525 0.698560 0.082834
C24   C     C_R   0.378345 0.047950 0.469833 -0.205731
C25   C     C_R   0.384481 0.985480 0.379051 0.032859
C26   C     C_R   0.479831 0.033026 0.374527 0.160350
C27   C     C_3   0.541230 0.982778 0.336085 -0.526532
C28   C     C_R   0.700211 0.408322 0.004715 -0.150106
C29   C     C_3   0.644314 0.080597 0.438274 -0.521268
C30   C     C_R   0.156543 0.605592 0.532157 0.166285
C31   C     C_R   0.100346 0.505931 0.432073 0.032502
C32   C     C_R   0.074800 0.407593 0.435982 -0.201689
C33   C     C_R   0.077702 0.406959 0.530908 -0.207797
C34   C     C_R   0.699791 0.500034 0.068729 -0.000701
C35   C     C_R   0.107221 0.504936 0.621677 0.029513
C36   C     C_R   0.160375 0.604991 0.625931 0.159802
C37   C     C_3   0.151220 0.706837 0.664981 -0.525825
C38   C     C_3   0.146274 0.707321 0.562348 -0.525039
C39   C     C_R   0.841399 0.872839 0.945018 0.162041
C40   C     C_R   0.004965 0.409137 0.699320 -0.145627
C41   C     C_R   0.897874 0.829411 0.902604 0.032709
C42   C     C_R   0.924566 0.859721 0.830887 -0.203030
C43   C     C_R   0.922920 0.952488 0.828191 -0.206124
C44   C     C_R   0.893353 0.013518 0.896267 0.032303
C45   C     C_R   0.067611 0.593199 0.314198 -0.147924
C46   C     C_R   0.838725 0.963463 0.941311 0.162288
C47   C     C_3   0.846386 0.010798 0.051712 -0.523951
C48   C     C_3   0.850126 0.912431 0.056425 -0.525535
C49   C     C_R   0.791490 0.591638 0.097274 -0.155891
C50   C     C_R   0.685461 0.249260 0.775815 -0.126896
C51   C     C_R   0.025270 0.749904 0.934541 -0.125449
C52   C     C_R   0.946979 0.774202 0.948833 0.072937
C53   C     C_R   0.222731 0.407616 0.974991 -0.136367
C54   C     C_R   0.298893 0.803967 0.207231 -0.155843
C55   C     C_R   0.904355 0.195575 0.994756 -0.160331
C56   C     C_R   0.997189 0.194772 0.905006 -0.135867
H1    H     H_    0.870820 0.746282 0.048679 0.108670
H2    H     H_    0.505906 0.319331 0.999633 0.146073
H3    H     H_    0.355649 0.319211 0.993905 0.146522
H4    H     H_    0.803458 0.250700 0.624487 0.111329
H5    H     H_    0.422870 0.396571 0.141553 0.158364
H6    H     H_    0.682486 0.606496 0.252369 0.155935
H7    H     H_    0.526250 0.605120 0.245628 0.157975
H8    H     H_    0.587300 0.573489 0.966124 0.155540
H9    H     H_    0.513782 0.425065 0.892279 0.155314
H10   H     H_    0.361540 0.425468 0.885348 0.155687
H11   H     H_    0.435060 0.573770 0.959406 0.155907
H12   H     H_    0.201073 0.321878 0.937791 0.091979
H13   H     H_    0.684569 0.681317 0.179382 0.147146
H14   H     H_    0.534827 0.681569 0.174784 0.147274
H15   H     H_    0.469603 0.178851 0.637624 0.123636
H16   H     H_    0.160847 0.675983 0.829686 0.100957
H17   H     H_    0.303996 0.019045 0.473920 0.123903
H18   H     H_    0.524091 0.903820 0.335895 0.200104
H19   H     H_    0.536089 0.980807 0.259014 0.187544
H20   H     H_    0.684907 0.056356 0.495583 0.200092
H21   H     H_    0.698688 0.134486 0.419903 0.190722
H22   H     H_    0.039054 0.329279 0.362632 0.126577
H23   H     H_    0.345702 0.831763 0.170670 0.099508
H24   H     H_    0.043964 0.328155 0.527026 0.124948
H25   H     H_    0.073685 0.691766 0.666027 0.199182
H26   H     H_    0.226819 0.778216 0.741689 0.188065
H27   H     H_    0.065620 0.692249 0.505889 0.198823
H28   H     H_    0.645459 0.322825 0.974886 0.085120
H29   H     H_    0.218671 0.779394 0.580055 0.191032
H30   H     H_    0.960422 0.822391 0.788874 0.125963
H31   H     H_    0.957602 0.983056 0.784226 0.124241
H32   H     H_    0.923922 0.089773 0.115826 0.199089
H33   H     H_    0.770618 0.011381 0.045903 0.188099
H34   H     H_    0.839897 0.167386 0.013302 0.102001
H35   H     H_    0.930136 0.936800 0.123329 0.200732
H36   H     H_    0.776894 0.856828 0.054152 0.187226
H37   H     H_    0.982160 0.324863 0.647243 0.084522
H38   H     H_    0.821943 0.677042 0.154165 0.086384
H39   H     H_    0.621340 0.237794 0.796445 0.090135
H40   H     H_    0.057494 0.761103 0.881545 0.092737
H41   H     H_    0.125774 0.678717 0.375120 0.111184
H42   H     H_    0.020370 0.165762 0.844112 0.082592
H43   H     H_    0.178792 0.835590 0.353338 0.084729
H44   H     H_    0.941264 0.323048 0.202688 0.092644
H45   H     H_    0.377727 0.678327 0.115690 0.090924
H46   H     H_    0.578220 0.395919 0.147737 0.156565
N1    N     N_R   0.995640 0.706130 0.053910 -0.039755
N2    N     N_R   0.054010 0.556790 0.847890 -0.037202
N3    N     N_R   0.789940 0.443190 0.997130 -0.032065
N4    N     N_R   0.997630 0.443170 0.791110 -0.037916
N5    N     N_R   0.846320 0.556810 0.053910 -0.032300
N6    N     N_R   0.791080 0.293860 0.847890 -0.040068
N7    N     N_R   0.052880 0.706130 0.997130 -0.039985
N8    N     N_R   0.002370 0.556830 0.208890 -0.038885
N9    N     N_R   0.153680 0.443190 0.946090 -0.036034
N10   N     N_R   0.208920 0.706140 0.152110 -0.036076
N11   N     N_R   0.947120 0.293870 0.002870 -0.037570
N12   N     N_R   0.004360 0.293870 0.946090 -0.036894
N13   N     N_R   0.151690 0.706140 0.208890 -0.037684
N14   N     N_R   0.945990 0.443210 0.152110 -0.038762
N15   N     N_R   0.210060 0.556810 0.002870 -0.035634
N16   N     N_R   0.848310 0.293860 0.791110 -0.040347
Ni1   Ni    Ni4+2 0.999010 0.630300 0.130220 0.207867
Ni2   Ni    Ni4+2 0.000990 0.369700 0.869780 0.206165
Ni3   Ni    Ni4+2 0.130280 0.630280 0.000000 0.205594
Ni4   Ni    Ni4+2 0.869720 0.369720 0.000000 0.209014

loop_
_geom_bond_atom_site_label_1
_geom_bond_atom_site_label_2
_ccdc_geom_bond_type
C18   H14   S    
C6    C45   A    
C38   H27   S    
C27   C29   S    
C41   C42   A    
C35   C36   A    
C16   H16   S    
C56   H42   S    
C40   H37   S    
C3    C6    A    
C4    N16   A    
N2    N4    A    
C39   C41   A    
C29   H20   S    
N3    N5    A    
C26   C27   S    
N14   Ni4   S    
C13   C18   S    
C36   C37   S    
C10   H2    S    
N11   N12   A    
C55   H34   S    
C3    N14   A    
C30   C31   A    
C11   H3    S    
C18   H7    S    
C28   H28   S    
N9    N15   A    
C23   C40   A    
C30   C38   S    
C19   H10   S    
C53   H12   S    
N15   Ni3   S    
C17   C19   S    
C3    H44   S    
C16   N2    A    
N11   Ni4   S    
C31   C32   A    
C7    C17   S    
C48   H35   S    
C19   H11   S    
C42   H30   S    
C49   H38   S    
C4    C12   A    
C27   H18   S    
C1    N1    A    
C15   C34   S    
C51   H40   S    
C53   N9    A    
C6    C31   S    
C28   C34   A    
C51   N7    A    
C21   C22   A    
C50   N6    A    
C8    C25   S    
C47   H33   S    
C37   H25   S    
C27   H19   S    
N5    Ni1   S    
C44   C46   A    
C20   C29   S    
C5    H45   S    
C13   H6    S    
C38   H29   S    
C51   C52   A    
N6    N16   A    
C10   H46   S    
C24   C25   A    
C49   N5    A    
C8    C54   A    
C5    C7    A    
C45   N8    A    
N2    Ni3   S    
C55   N11   A    
C25   C26   A    
C12   C21   S    
C24   H17   S    
C5    N15   A    
N9    Ni2   S    
C43   C44   A    
C37   C38   S    
C1    H1    S    
C2    N13   A    
C47   C48   S    
C28   N3    A    
C14   H8    S    
C4    H4    S    
C17   C18   S    
C54   N10   A    
C9    C56   A    
C39   C46   A    
C9    C55   A    
C2    H43   S    
C16   C23   A    
C23   C35   S    
C13   C15   S    
C22   C24   A    
C37   H26   S    
C42   C43   A    
C7    C53   A    
N8    N14   A    
C22   H15   S    
C40   N4    A    
C54   H23   S    
C46   C47   S    
C11   C17   S    
C9    C44   S    
C41   C52   S    
N4    Ni2   S    
C10   C15   S    
C14   C19   S    
N1    Ni1   S    
N6    Ni4   S    
C11   H5    S    
N8    Ni1   S    
C12   C50   A    
C33   H24   S    
N13   Ni1   S    
C30   C36   A    
N1    N7    A    
C43   H31   S    
C47   H32   S    
C13   H13   S    
N10   Ni3   S    
C45   H41   S    
C32   C33   A    
N7    Ni3   S    
C20   C26   A    
C33   C35   A    
C14   H9    S    
N3    Ni4   S    
C50   H39   S    
C1    C52   A    
N16   Ni2   S    
C10   C11   S    
C32   H22   S    
C29   H21   S    
C20   C21   A    
C34   C49   A    
C48   H36   S    
C2    C8    A    
C56   N12   A    
C14   C15   S    
N10   N13   A    
N12   Ni2   S    
C39   C48   S    
