data_mof_unit_pretest_1328.cif
_audit_creation_date              2012-12-11T17:25:12-0500
_audit_creation_method            fapswitch 2.2
_symmetry_space_group_name_H-M    P1
_symmetry_Int_Tables_number       1
_space_group_crystal_system       triclinic
_cell_length_a                    6.948542
_cell_length_b                    20.556769
_cell_length_c                    24.440169
_cell_angle_alpha                 90.187368
_cell_angle_beta                  90.202463
_cell_angle_gamma                 89.214862
_cell_volume                      3490.6556202

loop_
_atom_site_label
_atom_site_type_symbol
_atom_type_description
_atom_site_fract_x
_atom_site_fract_y
_atom_site_fract_z
_atom_type_partial_charge
O1    O     O_R   0.507280 0.423750 0.460310 -0.538523
O2    O     O_R   0.171030 0.555650 0.437630 -0.539202
O3    O     O_R   0.004080 0.576250 0.539690 -0.536366
C1    C     C_R   0.339070 0.575784 0.421866 0.717379
O4    O     O_R   0.177330 0.422980 0.453960 -0.541255
O5    O     O_R   0.010420 0.442640 0.556140 -0.528930
C2    C     C_R   0.346641 0.398873 0.443615 0.763749
O6    O     O_R   0.500930 0.557360 0.443860 -0.535590
O7    O     O_3   0.340310 0.506600 0.533500 -0.363833
V1    V     V_3+5 0.064140 0.498780 0.493780 1.433655
O8    O     O_R   0.680890 0.444350 0.562370 -0.534278
C3    C     C_R   0.850544 0.424328 0.578114 0.727256
O9    O     O_R   0.674590 0.577020 0.546040 -0.536727
C4    C     C_R   0.841736 0.600965 0.556881 0.700416
V2    V     V_3+5 0.564550 0.501220 0.506220 1.440226
O10   O     O_3   0.838250 0.493400 0.466500 -0.372065
C5    C     C_R   0.982668 0.837091 0.911818 -0.059782
C6    C     C_R   0.840571 0.661470 0.589994 -0.078008
C7    C     C_R   0.114594 0.728198 0.902106 -0.141133
C8    C     C_R   0.083276 0.783798 0.933540 -0.155870
C9    C     C_R   0.906634 0.832869 0.858421 -0.211529
C10   C     C_R   0.923683 0.774436 0.826946 0.111555
C11   C     C_R   0.042357 0.724226 0.848552 0.058140
C12   C     C_R   0.840699 0.766084 0.773241 -0.088161
C13   C     C_R   0.913245 0.714786 0.738119 -0.090407
C14   C     C_R   0.052930 0.670353 0.760196 0.465632
C15   C     C_R   0.100428 0.672456 0.815571 -0.267326
C16   C     C_R   0.686095 0.806108 0.753504 0.069896
C17   C     C_R   0.646235 0.808531 0.696988 0.440387
C18   C     C_R   0.738918 0.764617 0.660923 -0.057396
C19   C     C_R   0.849531 0.712005 0.682040 0.022100
C20   C     C_R   0.711460 0.770221 0.604045 -0.153626
C21   C     C_R   0.762466 0.719576 0.568388 0.150195
C22   C     C_R   0.885036 0.658367 0.646169 -0.208881
H1    H     H_    0.198774 0.635726 0.831626 0.149315
H2    H     H_    0.930713 0.611558 0.661394 0.176836
H3    H     H_    0.202373 0.689121 0.919015 0.117370
H4    H     H_    0.145769 0.786458 0.974163 0.110506
H5    H     H_    0.846613 0.876791 0.840886 0.123151
H6    H     H_    0.643109 0.813404 0.587104 0.163085
H7    H     H_    0.619317 0.210793 0.796667 0.112811
C23   C     C_R   0.730069 0.272058 0.733099 -0.147021
H8    H     H_    0.588193 0.288961 0.720712 0.115461
C24   C     C_R   0.894266 0.294579 0.706127 0.133794
C25   C     C_R   0.076426 0.271787 0.723027 -0.147235
H9    H     H_    0.204923 0.288484 0.702739 0.118656
C26   C     C_R   0.094187 0.227210 0.766311 -0.151326
H10   H     H_    0.236068 0.210331 0.778714 0.112897
C27   C     C_R   0.929991 0.204723 0.793312 0.136210
C28   C     C_R   0.747824 0.227475 0.776376 -0.150396
C29   C     C_1   0.876263 0.340728 0.661212 -0.049466
C30   C     C_1   0.947991 0.158758 0.838373 -0.053565
C31   C     C_1   0.961183 0.120620 0.876199 -0.187572
C32   C     C_1   0.863026 0.379051 0.623530 -0.176902
H11   H     H_    0.689746 0.720809 0.310811 0.124897
C33   C     C_R   0.593882 0.780464 0.242535 0.478742
C34   C     C_R   0.438589 0.795683 0.207305 0.021968
C35   C     C_R   0.259434 0.766847 0.216539 -0.222253
H12   H     H_    0.138416 0.778334 0.190073 0.182928
C36   C     C_R   0.234459 0.722896 0.259804 -0.147403
H13   H     H_    0.094576 0.701545 0.266035 0.145691
C37   C     C_R   0.388944 0.706289 0.294369 0.066147
C38   C     C_R   0.568692 0.734718 0.285173 -0.246359
C39   C     C_1   0.460716 0.841399 0.162030 0.019472
C40   C     C_1   0.364629 0.659860 0.338926 -0.029510
C41   C     C_1   0.349054 0.621354 0.376437 -0.194213
C42   C     C_1   0.475358 0.879388 0.124110 -0.184103
C43   C     C_R   0.470249 0.161768 0.088721 -0.106580
C44   C     C_R   0.353835 0.337787 0.411917 -0.141261
C45   C     C_R   0.516903 0.278321 0.093020 0.466463
C46   C     C_R   0.514822 0.220143 0.063270 -0.246047
C47   C     C_R   0.431226 0.160928 0.144993 -0.222166
C48   C     C_R   0.439435 0.218698 0.177209 0.031329
C49   C     C_R   0.483783 0.277685 0.150044 0.038223
C50   C     C_R   0.407309 0.219867 0.235320 0.082370
C51   C     C_R   0.419823 0.279984 0.265156 0.080786
C52   C     C_R   0.464106 0.336854 0.235950 -0.206315
C53   C     C_R   0.495017 0.335585 0.179934 -0.169634
C54   C     C_R   0.363537 0.162916 0.264651 -0.185097
C55   C     C_R   0.331529 0.164371 0.320647 -0.181206
C56   C     C_R   0.340891 0.222427 0.350058 0.075303
C57   C     C_R   0.386491 0.281243 0.323179 0.094157
C58   C     C_R   0.302955 0.221768 0.406404 -0.245629
C59   C     C_R   0.303289 0.279337 0.437109 0.445453
C60   C     C_R   0.394926 0.338778 0.355665 -0.300695
H14   H     H_    0.528482 0.380997 0.159941 0.169330
H15   H     H_    0.428836 0.385465 0.338624 0.117595
H16   H     H_    0.297317 0.119307 0.341162 0.122685
H17   H     H_    0.548862 0.220605 0.020025 0.124115
H18   H     H_    0.399702 0.114165 0.162255 0.106519
H19   H     H_    0.476108 0.383803 0.255154 0.125739
H20   H     H_    0.351955 0.115885 0.245585 0.119658
H21   H     H_    0.270748 0.176406 0.426703 0.130032
O11   O     O_R   0.323320 0.942780 0.056240 -0.536098
O12   O     O_R   0.647300 0.077050 0.046060 -0.537319
O13   O     O_R   0.813840 0.057330 0.943840 -0.535417
C61   C     C_R   0.477989 0.101062 0.056650 0.722504
O14   O     O_R   0.653250 0.944380 0.062400 -0.532765
O15   O     O_R   0.819830 0.923720 0.960300 -0.536298
C62   C     C_R   0.485178 0.924464 0.078321 0.716757
O16   O     O_R   0.317330 0.076390 0.039790 -0.536812
O17   O     O_3   0.483830 0.993470 0.966560 -0.368251
V3    V     V_3+5 0.760140 0.001210 0.006210 1.432213
O18   O     O_R   0.149290 0.922840 0.953850 -0.538734
C63   C     C_R   0.982001 0.898898 0.943017 0.694048
O19   O     O_R   0.143340 0.055500 0.937510 -0.537605
C64   C     C_R   0.973686 0.075517 0.921758 0.727177
V4    V     V_3+5 0.259690 0.998600 0.993650 1.425129
O20   O     O_3   0.986130 0.006520 0.033440 -0.365048
O21   O     O_3   0.772477 0.806797 0.232052 -0.558448
C65   C     C_3   0.834054 0.843460 0.277612 -0.279623
H22   H     H_    0.885682 0.811218 0.311124 0.140491
H23   H     H_    0.719410 0.877426 0.292638 0.132494
H24   H     H_    0.957589 0.873437 0.264903 0.171308
O22   O     O_3   0.267774 0.278097 0.492781 -0.559589
C66   C     C_3   0.069197 0.269055 0.501186 -0.224607
H25   H     H_    0.024213 0.219785 0.487797 0.133882
H26   H     H_    0.981031 0.307169 0.480143 0.133914
H27   H     H_    0.039583 0.273171 0.545640 0.164388
O23   O     O_3   0.566153 0.335315 0.066925 -0.557568
C67   C     C_3   0.404199 0.358749 0.037762 -0.260112
H28   H     H_    0.278945 0.367118 0.065353 0.142378
H29   H     H_    0.364760 0.325182 0.003850 0.141375
H30   H     H_    0.440482 0.406205 0.019249 0.171056
C68   C     C_3   0.719818 0.728094 0.508255 -0.794696
H31   H     H_    0.775774 0.687207 0.482931 0.200705
H32   H     H_    0.561823 0.732278 0.501878 0.206861
H33   H     H_    0.788204 0.773216 0.493412 0.204757
O24   O     O_3   0.517774 0.855444 0.677447 -0.547040
C69   C     C_3   0.338166 0.826795 0.665672 -0.248930
H34   H     H_    0.284147 0.796831 0.699917 0.120946
H35   H     H_    0.344006 0.796800 0.627894 0.133505
H36   H     H_    0.230528 0.866236 0.658599 0.176690
O25   O     O_3   0.146533 0.623525 0.729131 -0.560880
C70   C     C_3   0.317310 0.649972 0.708084 -0.256715
H37   H     H_    0.407138 0.673027 0.740461 0.137824
H38   H     H_    0.283839 0.685278 0.675018 0.141031
H39   H     H_    0.404579 0.610029 0.689662 0.172522
C71   C     C_3   0.545741 0.840899 0.791460 -0.705813
H40   H     H_    0.553757 0.822469 0.833968 0.201418
H41   H     H_    0.568763 0.894208 0.790310 0.214745
H42   H     H_    0.395147 0.831682 0.779234 0.208816

loop_
_geom_bond_atom_site_label_1
_geom_bond_atom_site_label_2
_ccdc_geom_bond_type
C13   C19   A    
C70   H39   S    
O15   V3    S    
C48   C49   A    
C4    C6    S    
C69   H35   S    
C65   H22   S    
C1    O6    A    
C56   C57   A    
C70   H37   S    
C26   C27   A    
C52   C53   A    
V4    O20   S    
O11   V4    S    
C14   C15   A    
C17   C18   A    
C16   C17   A    
O5    C3    A    
C18   C19   A    
C71   H42   S    
O19   C64   A    
C35   C36   A    
O14   V3    S    
C58   H21   S    
C5    C8    A    
C47   H18   S    
C66   H25   S    
C36   C37   A    
C43   C61   S    
C67   H30   S    
C7    H3    S    
O21   C65   S    
O8    V2    S    
C17   O24   S    
C7    C8    A    
C45   O23   S    
H11   C38   S    
C45   C49   A    
C68   H33   S    
O17   V4    S    
C45   C46   A    
O1    V2    S    
C11   C15   A    
C18   C20   A    
O7    V1    S    
C53   H14   S    
O16   V4    S    
C25   C26   A    
O9    C4    A    
C48   C50   A    
C16   C71   S    
C23   C24   A    
C33   O21   S    
O18   C63   A    
C56   C58   A    
O12   V3    S    
C60   H15   S    
O15   C63   A    
C19   C22   A    
C39   C42   T    
C44   C59   A    
C12   C13   A    
C51   C57   A    
O4    C2    A    
C7    C11   A    
C55   C56   A    
C15   H1    S    
C35   H12   S    
C25   H9    S    
C5    C9    A    
C36   H13   S    
O2    C1    A    
C50   C51   A    
C2    C44   S    
C37   C38   A    
C14   O25   S    
C5    C63   S    
C8    H4    S    
C31   C64   S    
C58   C59   A    
C46   H17   S    
O11   C62   A    
C43   C47   A    
C27   C30   S    
C21   C68   S    
C54   H20   S    
C33   C38   A    
C65   H23   S    
C30   C31   T    
C51   C52   A    
C6    C22   A    
C67   H28   S    
O3    C4    A    
C42   C62   S    
C23   C28   A    
C24   C29   S    
O13   C64   A    
C27   C28   A    
C59   O22   S    
O14   C62   A    
O9    V2    S    
C49   C53   A    
C68   H31   S    
C10   C12   A    
C69   H36   S    
C33   C34   A    
O2    V1    S    
H7    C28   S    
O18   V4    S    
C44   C60   A    
O23   C67   S    
C34   C39   S    
O24   C69   S    
C70   H38   S    
C52   H19   S    
C37   C40   S    
O1    C2    A    
C9    H5    S    
C24   C25   A    
C12   C16   A    
C47   C48   A    
C26   H10   S    
O5    V1    S    
C71   H40   S    
O12   C61   A    
O25   C70   S    
O6    V2    S    
C57   C60   A    
C66   H27   S    
V3    O20   S    
C29   C32   T    
C20   C21   A    
C69   H34   S    
C13   C14   A    
O4    V1    S    
C55   H16   S    
O3    V1    S    
V1    O10   S    
C1    C41   S    
C71   H41   S    
C34   C35   A    
O19   V4    S    
C43   C46   A    
C66   H26   S    
C65   H24   S    
C22   H2    S    
C20   H6    S    
O7    V2    S    
O17   V3    S    
C6    C21   A    
C3    C32   S    
C67   H29   S    
C54   C55   A    
C40   C41   T    
C23   H8    S    
O13   V3    S    
C68   H32   S    
C10   C11   A    
O22   C66   S    
C9    C10   A    
C50   C54   A    
C61   O16   A    
V2    O10   S    
O8    C3    A    
