data_mof_unit_pretest_192.cif
_audit_creation_date              2012-10-26T21:00:43-0400
_audit_creation_method            fapswitch 2.2
_symmetry_space_group_name_H-M    P1
_symmetry_Int_Tables_number       1
_space_group_crystal_system       triclinic
_cell_length_a                    10.835223
_cell_length_b                    9.488361
_cell_length_c                    10.868486
_cell_angle_alpha                 89.957103
_cell_angle_beta                  90.108604
_cell_angle_gamma                 90.000724
_cell_volume                      1117.37050215

loop_
_atom_site_label
_atom_site_type_symbol
_atom_type_description
_atom_site_fract_x
_atom_site_fract_y
_atom_site_fract_z
_atom_type_partial_charge
C1    C     C_R   0.261970 0.499964 0.499877 0.552037
C2    C     C_R   0.490917 0.500950 0.737805 0.548059
C3    C     C_R   0.552404 0.766296 0.114750 -0.096410
C4    C     C_R   0.441990 0.764767 0.884362 -0.095890
C5    C     C_R   0.526437 0.893225 0.055599 -0.135109
C6    C     C_R   0.465653 0.892402 0.943124 -0.134604
C7    C     C_R   0.479681 0.635066 0.937695 0.028406
C8    C     C_R   0.516969 0.635583 0.061891 0.028483
C9    C     C_R   0.516157 0.505644 0.127596 -0.008661
C10   C     C_R   0.482880 0.505191 0.872270 -0.008721
C11   C     C_R   0.506016 0.378338 0.063360 -0.161131
C12   C     C_R   0.738030 0.499965 0.500128 0.552345
C13   C     C_R   0.494963 0.378164 0.936726 -0.161184
C14   C     C_R   0.063836 0.371905 0.499907 -0.139479
C15   C     C_R   0.936162 0.371905 0.500044 -0.139497
C16   C     C_R   0.871824 0.499985 0.500113 0.020095
C17   C     C_R   0.128176 0.499984 0.499902 0.020089
C18   C     C_R   0.936161 0.628071 0.500104 -0.140067
C19   C     C_R   0.063843 0.628071 0.499985 -0.140145
C20   C     C_R   0.427802 0.074581 0.419148 0.006012
C21   C     C_R   0.572190 0.074448 0.580858 0.006092
C22   C     C_R   0.427812 0.925536 0.419142 0.001621
C23   C     C_R   0.572179 0.925403 0.580866 0.002368
C24   C     C_R   0.508749 0.501094 0.262130 0.548240
Cu1   Cu    Cu3+1 0.500000 0.640660 0.500000 0.920504
Cu2   Cu    Cu3+1 0.500000 0.359340 0.500000 0.931651
H1    H     H_    0.507649 0.277952 0.110907 0.130523
H2    H     H_    0.111888 0.728195 0.499962 0.126948
H3    H     H_    0.369981 0.130991 0.354522 0.109597
H4    H     H_    0.630004 0.130754 0.645486 0.109472
H5    H     H_    0.370057 0.869206 0.354473 0.116980
H6    H     H_    0.629931 0.868966 0.645540 0.117134
H7    H     H_    0.495080 0.277734 0.889348 0.130661
H8    H     H_    0.603804 0.772939 0.199698 0.146320
H9    H     H_    0.390822 0.769871 0.799160 0.145871
H10   H     H_    0.551066 0.992294 0.098493 0.105613
H11   H     H_    0.439385 0.990789 0.899869 0.106529
H12   H     H_    0.111869 0.271775 0.499813 0.127617
H13   H     H_    0.888126 0.271776 0.500083 0.127625
H14   H     H_    0.888120 0.728197 0.500183 0.126992
N1    N     N_R   0.500000 0.852070 0.500000 -0.231826
N2    N     N_R   0.500000 0.147940 0.500000 -0.225024
O1    O     O_R   0.319640 0.618740 0.499990 -0.510247
O2    O     O_R   0.680360 0.618740 0.500010 -0.509944
O3    O     O_R   0.319620 0.381170 0.499990 -0.506949
O4    O     O_R   0.680380 0.381170 0.500010 -0.506885
O5    O     O_R   0.500000 0.618810 0.319650 -0.514908
O6    O     O_R   0.500000 0.618810 0.680350 -0.514617
O7    O     O_R   0.499970 0.381240 0.319640 -0.506250
O8    O     O_R   0.500030 0.381240 0.680360 -0.506335

loop_
_geom_bond_atom_site_label_1
_geom_bond_atom_site_label_2
_ccdc_geom_bond_type
C7    C10   A    
C20   N2    A    
C9    C24   S    
C13   H7    S    
C14   H12   S    
C11   C13   A    
C21   H4    S    
Cu1   O5    S    
C1    C17   S    
C3    H8    S    
C11   H1    S    
C15   H13   S    
C23   H6    S    
Cu1   O1    S    
C21   C23   A    
C6    H11   S    
C7    C8    A    
C12   O2    A    
C19   H2    S    
C9    C11   A    
C14   C17   A    
C1    O3    A    
C4    C7    A    
C15   C16   A    
Cu1   O2    S    
C12   O4    A    
C17   C19   A    
C20   C22   A    
C3    C8    A    
C20   H3    S    
Cu2   O8    S    
C5    C6    A    
C4    H9    S    
C22   N1    A    
C22   H5    S    
Cu2   O4    S    
C4    C6    A    
C21   N2    A    
C2    C10   S    
C5    H10   S    
Cu2   N2    S    
C16   C18   A    
C18   C19   A    
Cu2   O7    S    
Cu1   N1    S    
C24   O7    A    
C18   H14   S    
C14   C15   A    
C2    O8    A    
Cu2   O3    S    
C2    O6    A    
Cu1   Cu2   S    
C24   O5    A    
Cu1   O6    S    
C1    O1    A    
C12   C16   S    
C8    C9    A    
C3    C5    A    
C10   C13   A    
C23   N1    A    
