data_mof_unit_pretest_1355.cif
_audit_creation_date              2012-12-11T15:23:50-0500
_audit_creation_method            fapswitch 2.2
_symmetry_space_group_name_H-M    P1
_symmetry_Int_Tables_number       1
_space_group_crystal_system       triclinic
_cell_length_a                    17.35606
_cell_length_b                    24.269292
_cell_length_c                    15.129043
_cell_angle_alpha                 89.628759
_cell_angle_beta                  125.808442
_cell_angle_gamma                 90.435629
_cell_volume                      5167.9066796

loop_
_atom_site_label
_atom_site_type_symbol
_atom_type_description
_atom_site_fract_x
_atom_site_fract_y
_atom_site_fract_z
_atom_type_partial_charge
C1    C     C_R   0.353629 0.346856 0.911398 -0.138799
C2    C     C_R   0.456356 0.499005 0.647641 -0.101167
C3    C     C_R   0.053399 0.996994 0.358099 -0.092118
C4    C     C_R   0.956356 0.999006 0.647640 -0.101151
C5    C     C_R   0.175226 0.497235 0.721257 0.093782
C6    C     C_R   0.810640 0.498339 0.355237 0.103022
C7    C     C_R   0.675226 0.997235 0.721257 0.093741
C8    C     C_R   0.310644 0.998338 0.355232 0.103019
C9    C     C_2   0.923524 0.456223 0.532752 -0.106171
C10   C     C_2   0.021428 0.452351 0.630019 -0.101284
C11   C     C_2   0.423526 0.956223 0.532748 -0.106159
C12   C     C_R   0.648145 0.347826 0.090078 -0.118463
C13   C     C_2   0.521429 0.952351 0.630018 -0.101274
C14   C     C_2   0.896973 0.499037 0.464253 -0.145614
C15   C     C_2   0.074644 0.497778 0.673953 -0.184731
C16   C     C_2   0.396980 0.999036 0.464246 -0.145603
C17   C     C_2   0.574644 0.997778 0.673953 -0.184725
C18   C     C_R   0.160988 0.689605 0.900020 -0.153582
C19   C     C_R   0.845291 0.685444 0.103906 -0.145892
C20   C     C_R   0.660987 0.189604 0.900021 -0.153580
C21   C     C_R   0.345291 0.185444 0.103906 -0.145895
C22   C     C_R   0.610557 0.233357 0.900077 -0.158071
C23   C     C_R   0.853630 0.846856 0.911398 -0.138795
C24   C     C_R   0.392288 0.231640 0.103446 -0.159325
C25   C     C_R   0.110557 0.733357 0.900076 -0.158071
C26   C     C_R   0.892287 0.731641 0.103446 -0.159332
C27   C     C_R   0.642686 0.259068 0.998922 0.124719
C28   C     C_R   0.360166 0.257371 0.004211 0.123720
C29   C     C_R   0.142685 0.759068 0.998921 0.124720
C30   C     C_R   0.860166 0.757371 0.004211 0.123717
C31   C     C_R   0.711417 0.233245 0.097576 -0.150375
C32   C     C_R   0.294855 0.229848 0.906206 -0.149909
C33   C     C_R   0.211415 0.733245 0.097575 -0.150375
C34   C     C_R   0.148144 0.847826 0.090078 -0.118462
C35   C     C_R   0.794855 0.729848 0.906207 -0.149901
C36   C     C_R   0.261808 0.689582 0.097479 -0.141847
C37   C     C_R   0.748124 0.683525 0.906775 -0.148501
C38   C     C_R   0.761809 0.189582 0.097480 -0.141839
C39   C     C_R   0.248124 0.183525 0.906774 -0.148523
C40   C     C_R   0.401560 0.624657 0.089660 -0.054106
C41   C     C_R   0.601786 0.622596 0.911949 -0.081913
C42   C     C_R   0.901560 0.124656 0.089660 -0.054061
C43   C     C_R   0.101786 0.122596 0.911949 -0.082027
C44   C     C_R   0.243339 0.671987 0.998661 0.137094
C45   C     C_R   0.315970 0.642606 0.998527 -0.029707
C46   C     C_R   0.765669 0.665327 0.005203 0.135000
C47   C     C_R   0.743338 0.171987 0.998662 0.137098
C48   C     C_R   0.265669 0.165326 0.005203 0.135003
C49   C     C_R   0.565775 0.522822 0.605003 -0.149276
C50   C     C_R   0.593246 0.520073 0.536532 -0.057330
C51   C     C_R   0.065732 0.022879 0.604961 -0.149128
C52   C     C_R   0.093217 0.020124 0.536506 -0.057385
C53   C     C_R   0.532342 0.495217 0.435488 0.134002
C54   C     C_R   0.478699 0.499707 0.571958 0.195951
C55   C     C_R   0.032368 0.995211 0.435509 0.133916
C56   C     C_R   0.691308 0.635844 0.004097 -0.026251
C57   C     C_R   0.978698 0.999710 0.571955 0.195970
C58   C     C_R   0.445584 0.471523 0.403226 -0.200217
C59   C     C_R   0.419023 0.473285 0.472667 -0.125785
C60   C     C_R   0.945658 0.971460 0.403291 -0.200176
C61   C     C_R   0.919086 0.973225 0.472720 -0.125945
C62   C     C_R   0.540164 0.452127 0.296541 -0.235173
C63   C     C_R   0.465671 0.453037 0.706067 -0.230096
C64   C     C_R   0.040182 0.952128 0.296550 -0.235160
C65   C     C_R   0.965669 0.953038 0.706064 -0.230081
C66   C     C_R   0.229579 0.543702 0.741743 -0.073760
C67   C     C_R   0.815969 0.142605 0.998528 -0.029731
C68   C     C_R   0.760122 0.544643 0.297980 -0.088111
C69   C     C_R   0.729579 0.043702 0.741743 -0.073690
C70   C     C_R   0.260124 0.044643 0.297978 -0.088070
C71   C     C_R   0.546316 0.543918 0.301559 0.503288
C72   C     C_R   0.459471 0.544938 0.701845 0.483521
C73   C     C_R   0.046327 0.043919 0.301565 0.503265
C74   C     C_R   0.959468 0.044939 0.701844 0.483487
C75   C     C_R   0.233157 0.451962 0.751292 -0.107882
C76   C     C_R   0.758899 0.452670 0.295525 -0.115210
C77   C     C_R   0.733157 0.951962 0.751292 -0.107878
C78   C     C_R   0.191308 0.135844 0.004096 -0.026205
C79   C     C_R   0.258901 0.952670 0.295522 -0.115215
C80   C     C_R   0.316314 0.632178 0.908652 -0.094148
C81   C     C_R   0.691259 0.623906 0.093955 -0.078871
C82   C     C_R   0.816313 0.132178 0.908653 -0.094170
C83   C     C_R   0.191258 0.123907 0.093955 -0.078873
C84   C     C_R   0.442925 0.347912 0.092691 -0.116973
C85   C     C_R   0.557178 0.348125 0.908215 -0.115414
C86   C     C_R   0.942925 0.847912 0.092691 -0.116975
C87   C     C_R   0.057178 0.848125 0.908214 -0.115412
C88   C     C_R   0.382938 0.315319 0.002643 0.049012
C89   C     C_R   0.553379 0.496994 0.358088 -0.092180
C90   C     C_R   0.618126 0.316215 0.999186 0.043173
C91   C     C_R   0.882937 0.815319 0.002644 0.049018
C92   C     C_R   0.118125 0.816214 0.999186 0.043174
H1    H     H_    0.317160 0.332387 0.828650 0.093141
H2    H     H_    0.865326 0.669765 0.181690 0.111195
H3    H     H_    0.640491 0.173554 0.822485 0.108352
H4    H     H_    0.365326 0.169764 0.181690 0.111200
H5    H     H_    0.553150 0.249881 0.822277 0.112688
H6    H     H_    0.446914 0.249665 0.181056 0.112308
H7    H     H_    0.053150 0.749881 0.822276 0.112685
H8    H     H_    0.946913 0.749665 0.181056 0.112303
H9    H     H_    0.733774 0.249780 0.175403 0.123600
H10   H     H_    0.272585 0.246529 0.828242 0.123077
H11   H     H_    0.233771 0.749779 0.175402 0.123601
H12   H     H_    0.686796 0.334196 0.173751 0.090764
H13   H     H_    0.772585 0.746529 0.828242 0.123081
H14   H     H_    0.320755 0.674097 0.175387 0.143479
H15   H     H_    0.691770 0.666266 0.829142 0.139156
H16   H     H_    0.820756 0.174097 0.175388 0.143470
H17   H     H_    0.191769 0.166267 0.829142 0.139141
H18   H     H_    0.612816 0.541844 0.684377 0.113884
H19   H     H_    0.661139 0.537017 0.562264 0.176312
H20   H     H_    0.112733 0.041944 0.684300 0.113897
H21   H     H_    0.161080 0.037110 0.562216 0.176413
H22   H     H_    0.398077 0.452632 0.323844 0.137096
H23   H     H_    0.817160 0.832387 0.828650 0.093141
H24   H     H_    0.352558 0.454752 0.449275 0.131555
H25   H     H_    0.898190 0.952523 0.323946 0.137099
H26   H     H_    0.852659 0.954647 0.449362 0.131543
H27   H     H_    0.425484 0.626603 0.172996 0.154962
H28   H     H_    0.577610 0.626607 0.828868 0.155085
H29   H     H_    0.925484 0.126601 0.172997 0.154952
H30   H     H_    0.077611 0.126607 0.828868 0.155061
H31   H     H_    0.544643 0.409099 0.318130 0.137482
H32   H     H_    0.462875 0.410302 0.684453 0.136944
H33   H     H_    0.044669 0.909100 0.318141 0.137468
H34   H     H_    0.186795 0.834196 0.173751 0.090765
H35   H     H_    0.962873 0.910302 0.684449 0.136935
H36   H     H_    0.202493 0.584745 0.716098 0.098911
H37   H     H_    0.774582 0.586294 0.329004 0.147919
H38   H     H_    0.702494 0.084746 0.716097 0.098945
H39   H     H_    0.274587 0.086294 0.329001 0.147928
H40   H     H_    0.213957 0.409102 0.745608 0.100490
H41   H     H_    0.772266 0.410032 0.321248 0.096033
H42   H     H_    0.713957 0.909102 0.745608 0.100495
H43   H     H_    0.272270 0.910031 0.321245 0.096038
H44   H     H_    0.267559 0.648219 0.827627 0.104568
H45   H     H_    0.941824 0.534962 0.484281 0.129424
H46   H     H_    0.748172 0.630205 0.178591 0.093545
H47   H     H_    0.767558 0.148218 0.827628 0.104609
H48   H     H_    0.248172 0.130206 0.178590 0.093538
H49   H     H_    0.488476 0.335024 0.176885 0.085944
H50   H     H_    0.511725 0.334988 0.824282 0.087731
H51   H     H_    0.988476 0.835024 0.176885 0.085941
H52   H     H_    0.011725 0.834988 0.824281 0.087729
H53   H     H_    0.878473 0.420036 0.509334 0.124541
H54   H     H_    0.053167 0.411730 0.650368 0.127175
H55   H     H_    0.378473 0.920037 0.509332 0.124547
H56   H     H_    0.042005 0.537967 0.659140 0.136156
H57   H     H_    0.553168 0.911730 0.650370 0.127183
H58   H     H_    0.641090 0.681257 0.316972 0.371673
H59   H     H_    0.351700 0.678394 0.672116 0.368990
H60   H     H_    0.141098 0.181255 0.316945 0.371674
H61   H     H_    0.851914 0.178459 0.672244 0.368993
H62   H     H_    0.441834 0.034959 0.484273 0.129428
H63   H     H_    0.542004 0.037966 0.659137 0.136161
H64   H     H_    0.140492 0.673555 0.822483 0.108346
N1    N     N_R   0.395440 0.396300 0.944370 -0.042832
N2    N     N_R   0.474910 0.470990 0.794360 -0.066408
N3    N     N_R   0.025090 0.970990 0.205640 -0.067405
N4    N     N_R   0.974910 0.970990 0.794360 -0.066408
N5    N     N_R   0.320240 0.527820 0.794510 -0.032907
N6    N     N_R   0.679760 0.527820 0.205490 -0.047540
N7    N     N_R   0.820240 0.027820 0.794510 -0.032899
N8    N     N_R   0.179760 0.027820 0.205490 -0.047541
N9    N     N_R   0.524580 0.527810 0.205160 -0.103991
N10   N     N_R   0.475420 0.527810 0.794840 -0.103632
N11   N     N_R   0.024580 0.027810 0.205160 -0.103984
N12   N     N_R   0.604560 0.396300 0.055630 -0.042574
N13   N     N_R   0.975420 0.027810 0.794840 -0.103620
N14   N     N_R   0.320750 0.470990 0.794990 -0.051945
N15   N     N_R   0.679250 0.470990 0.205010 -0.051964
N16   N     N_R   0.820750 0.970990 0.794990 -0.051950
N17   N     N_R   0.179250 0.970990 0.205010 -0.051966
N18   N     N_R   0.393580 0.602500 0.942610 -0.035990
N19   N     N_R   0.606420 0.602500 0.057390 -0.033934
N20   N     N_R   0.893580 0.102500 0.942610 -0.035990
N21   N     N_R   0.106420 0.102500 0.057390 -0.033927
N22   N     N_R   0.451750 0.396300 0.057540 -0.038909
N23   N     N_R   0.895440 0.896300 0.944370 -0.042834
N24   N     N_R   0.548250 0.396300 0.942460 -0.039368
N25   N     N_R   0.951750 0.896300 0.057540 -0.038910
N26   N     N_R   0.048250 0.896300 0.942460 -0.039369
N27   N     N_R   0.104560 0.896300 0.055630 -0.042575
N28   N     N_R   0.449890 0.602500 0.055780 -0.030900
N29   N     N_R   0.550110 0.602500 0.944220 -0.030692
N30   N     N_R   0.949890 0.102500 0.055780 -0.030895
N31   N     N_R   0.050110 0.102500 0.944220 -0.030692
N32   N     N_R   0.525090 0.470990 0.205640 -0.067402
Ni1   Ni    Ni4+2 0.435420 0.434250 0.870220 0.202968
Ni2   Ni    Ni4+2 0.564580 0.434250 0.129780 0.196926
Ni3   Ni    Ni4+2 0.935420 0.934250 0.870220 0.202971
Ni4   Ni    Ni4+2 0.064580 0.934250 0.129780 0.196927
Ni5   Ni    Ni4+2 0.563400 0.564580 0.128670 0.301082
Ni6   Ni    Ni4+2 0.436600 0.564580 0.871330 0.309544
Ni7   Ni    Ni4+2 0.063400 0.064580 0.128670 0.301091
Ni8   Ni    Ni4+2 0.936600 0.064580 0.871330 0.309565
O1    O     O_2   0.549264 0.635937 0.399200 -0.287870
O2    O     O_2   0.967735 0.139918 0.617851 -0.300733
O3    O     O_2   0.811881 0.095730 0.528992 -0.281907
O4    O     O_3   0.883531 0.144475 0.714639 -0.575877
O5    O     O_2   0.702799 0.596410 0.460834 -0.331715
O6    O     O_3   0.607211 0.647459 0.275394 -0.582375
O7    O     O_2   0.467739 0.639915 0.617846 -0.300565
O8    O     O_2   0.311886 0.595727 0.528992 -0.282056
O9    O     O_3   0.383539 0.644476 0.714638 -0.575881
O10   O     O_2   0.049313 0.135938 0.399231 -0.287899
O11   O     O_2   0.202833 0.096410 0.460803 -0.331770
O12   O     O_3   0.107201 0.147460 0.275367 -0.582365
S1    S     S_3+6 0.602965 0.607166 0.363293 -0.090583
S2    S     S_3+6 0.404381 0.607689 0.636904 -0.062837
S3    S     S_3+6 0.102986 0.107167 0.363287 -0.090630
S4    S     S_3+6 0.904376 0.107690 0.636905 -0.062841

loop_
_geom_bond_atom_site_label_1
_geom_bond_atom_site_label_2
_ccdc_geom_bond_type
C12   N12   A    
C51   H20   S    
C53   C58   A    
C10   C15   D    
N31   Ni8   S    
C79   N17   A    
C6    C76   A    
N29   Ni6   S    
C73   N11   A    
N27   Ni4   S    
C87   N26   A    
C63   H32   S    
N8    Ni7   S    
C56   C81   A    
H61   O4    S    
C3    C64   A    
C75   H40   S    
C43   C78   A    
N14   Ni1   S    
O4    S4    S    
C30   C35   A    
C24   H6    S    
C81   N19   A    
C12   C90   A    
C35   C37   A    
C12   H12   S    
C86   C91   A    
C85   N24   A    
C15   H56   S    
N22   Ni2   S    
N25   Ni4   S    
C84   H49   S    
C6    C14   S    
C49   C54   A    
C62   C89   A    
C29   C33   A    
C33   C36   A    
N12   Ni2   S    
C64   N3    A    
C27   C90   S    
N32   Ni2   S    
O3    S4    D    
C32   C39   A    
C48   C78   S    
C57   C61   A    
C19   C26   A    
N26   N27   A    
C83   H48   S    
C74   N13   A    
C80   H44   S    
C3    C55   S    
C78   C83   A    
C25   H7    S    
C72   S2    S    
N6    N15   A    
C66   H36   S    
C69   H38   S    
C7    C17   S    
C4    C57   S    
C28   C88   S    
C86   N25   A    
N4    N13   A    
O7    S2    D    
C51   C57   A    
C87   H52   S    
O2    S4    D    
C9    C10   S    
C4    C74   A    
C52   C55   A    
C34   N27   A    
C7    C77   A    
C21   C48   A    
C42   N30   A    
C1    C88   A    
C6    C68   A    
C8    C16   S    
C22   H5    S    
C87   C92   A    
O11   S3    D    
C40   C45   A    
C18   C25   A    
N11   Ni7   S    
C65   N4    A    
C2    C72   A    
O10   S3    D    
C28   C32   A    
O5    S1    D    
C62   H31   S    
C73   S3    S    
C86   H51   S    
N13   Ni8   S    
N1    Ni1   S    
C54   C59   A    
N16   Ni3   S    
C25   C29   A    
C81   H46   S    
C70   H39   S    
C19   C46   A    
C50   C53   A    
C83   N21   A    
C36   H14   S    
C51   C52   A    
N9    N32   A    
C84   C88   A    
N30   Ni7   S    
N8    N17   A    
C2    C54   S    
N2    Ni1   S    
N18   N28   A    
C9    C14   D    
C59   H24   S    
C71   S1    S    
C58   C59   A    
N12   N24   A    
C27   C31   A    
H59   O9    S    
N15   Ni2   S    
C74   S4    S    
C60   C61   A    
C5    C75   A    
C76   N15   A    
C23   N23   A    
C41   C56   A    
C77   N16   A    
C82   H47   S    
C35   H13   S    
C18   C44   A    
N19   N29   A    
C11   C16   D    
C71   C89   A    
C14   H45   S    
C43   N31   A    
C34   H34   S    
C75   N14   A    
C41   N29   A    
C60   H25   S    
C47   C67   S    
N20   Ni8   S    
C84   N22   A    
N7    N16   A    
C43   H30   S    
C38   C47   A    
C19   H2    S    
C10   H54   S    
N5    N14   A    
C20   H3    S    
C82   N20   A    
C64   H33   S    
C22   C27   A    
C53   C89   S    
C42   C67   A    
C76   H41   S    
C32   H10   S    
C36   C44   A    
N10   Ni6   S    
N26   Ni3   S    
H58   O6    S    
O6    S1    S    
O8    S2    D    
C17   H63   S    
C31   H9    S    
C18   H64   S    
C2    C63   A    
N2    N10   A    
C24   C28   A    
C62   N32   A    
N7    Ni8   S    
C71   N9    A    
N21   Ni7   S    
N18   Ni6   S    
C70   N8    A    
C61   H26   S    
C33   H11   S    
C72   N10   A    
N3    Ni4   S    
H60   O12   S    
C44   C45   S    
C69   N7    A    
N4    Ni3   S    
C20   C22   A    
C30   C91   S    
N9    Ni5   S    
C85   H50   S    
C7    C69   A    
C85   C90   A    
C37   H15   S    
N20   N30   A    
C21   H4    S    
C68   N6    A    
C79   H43   S    
N17   Ni4   S    
C8    C70   A    
N21   N31   A    
C31   C38   A    
C13   C17   D    
N24   Ni1   S    
C1    N1    A    
C65   H35   S    
C13   H57   S    
C8    C79   A    
C5    C66   A    
C16   H62   S    
C11   C13   S    
C11   H55   S    
C4    C65   A    
O9    S2    S    
O12   S3    S    
C52   H21   S    
N6    Ni5   S    
C9    H53   S    
C50   H19   S    
C23   H23   S    
N3    N11   A    
N5    Ni6   S    
C45   C80   A    
C23   C91   A    
N1    N22   A    
C41   H28   S    
C38   H16   S    
C68   H37   S    
C3    C73   A    
C34   C92   A    
C5    C15   S    
C20   C47   A    
O1    S1    D    
C80   N18   A    
C39   H17   S    
C40   H27   S    
N23   Ni3   S    
C66   N5    A    
C67   C82   A    
C1    H1    S    
C49   C50   A    
C77   H42   S    
C21   C24   A    
C46   C56   S    
C58   H22   S    
C39   C48   A    
C63   N2    A    
C40   N28   A    
C37   C46   A    
C55   C60   A    
N19   Ni5   S    
C29   C92   S    
N28   Ni5   S    
C42   H29   S    
C26   H8    S    
C49   H18   S    
N23   N25   A    
C26   C30   A    
