data_mof_unit_pretest_453.cif
_audit_creation_date              2012-12-10T16:37:42-0500
_audit_creation_method            fapswitch 2.2
_symmetry_space_group_name_H-M    P1
_symmetry_Int_Tables_number       1
_space_group_crystal_system       triclinic
_cell_length_a                    10.850898
_cell_length_b                    10.84758
_cell_length_c                    15.420885
_cell_angle_alpha                 97.081459
_cell_angle_beta                  75.381178
_cell_angle_gamma                 98.689083
_cell_volume                      1729.31622127

loop_
_atom_site_label
_atom_site_type_symbol
_atom_type_description
_atom_site_fract_x
_atom_site_fract_y
_atom_site_fract_z
_atom_type_partial_charge
C1    C     C_R   0.157985 0.478118 0.519819 0.487888
C2    C     C_R   0.554411 0.493326 0.108349 -0.123756
C3    C     C_R   0.585589 0.284361 0.128347 -0.132459
C4    C     C_R   0.841878 0.522390 0.481010 0.506705
C5    C     C_R   0.418041 0.573321 0.842810 0.013287
C6    C     C_2   0.978287 0.536334 0.477164 -0.129424
C7    C     C_2   0.022434 0.468288 0.526357 -0.110635
C8    C     C_2   0.541064 0.967170 0.473745 -0.125573
C9    C     C_2   0.454407 0.034854 0.527252 -0.113668
C10   C     C_R   0.467804 0.167253 0.520416 0.494187
C11   C     C_R   0.529493 0.833521 0.480523 0.498736
C12   C     C_R   0.357188 0.711413 0.978915 -0.121887
C13   C     C_R   0.556082 0.442049 0.258477 0.506353
C14   C     C_R   0.443374 0.551921 0.742796 0.505896
C15   C     C_R   0.571923 0.244386 0.041732 -0.141730
C16   C     C_R   0.576748 0.409147 0.161826 0.026039
C17   C     C_R   0.367305 0.683131 0.887015 0.244615
C18   C     C_R   0.554661 0.164672 0.853518 0.025436
C19   C     C_R   0.469974 0.086140 0.808877 -0.083767
C20   C     C_R   0.510252 0.980781 0.753165 -0.050774
C21   C     C_R   0.633968 0.950662 0.743181 -0.079037
C22   C     C_R   0.718769 0.027499 0.787380 -0.119000
C23   C     C_R   0.397572 0.633780 0.029270 -0.049137
C24   C     C_R   0.680152 0.134908 0.841241 -0.100909
C25   C     C_3   0.195676 0.747436 0.853952 0.004076
C26   C     C_3   0.156553 0.825186 0.792034 -0.365186
C27   C     C_R   0.357288 0.658964 0.128587 0.015128
C28   C     C_R   0.283358 0.564909 0.181433 -0.088535
C29   C     C_R   0.254688 0.584841 0.275185 -0.105076
C30   C     C_R   0.296390 0.699764 0.317038 -0.098835
C31   C     C_R   0.366134 0.795364 0.265019 -0.105727
C32   C     C_R   0.396300 0.775435 0.171083 -0.110279
C33   C     C_R   0.456382 0.525795 0.985159 0.003415
C34   C     C_R   0.449888 0.488459 0.894734 -0.043496
C35   C     C_R   0.515440 0.449825 0.028267 0.021294
C36   C     C_R   0.537354 0.326123 0.990095 0.037588
C37   C     C_R   0.517543 0.285293 0.903704 -0.016430
C38   C     C_R   0.471241 0.365493 0.858970 -0.116621
H1    H     H_    0.600217 0.217227 0.170193 0.112028
H2    H     H_    0.373566 0.107795 0.815823 0.087590
H3    H     H_    0.445636 0.922641 0.717359 0.159873
H4    H     H_    0.664462 0.868483 0.700502 0.111170
H5    H     H_    0.815262 0.005044 0.778659 0.103422
H6    H     H_    0.748830 0.195981 0.872104 0.109075
H7    H     H_    0.148962 0.777816 0.924730 0.119851
H8    H     H_    0.160096 0.647254 0.838154 0.134879
H9    H     H_    0.201638 0.796808 0.720704 0.182886
H10   H     H_    0.050578 0.810559 0.801868 0.093475
H11   H     H_    0.187668 0.926100 0.807381 0.132730
H12   H     H_    0.959776 0.398899 0.567708 0.126646
H13   H     H_    0.251516 0.474921 0.149995 0.117727
H14   H     H_    0.201374 0.510369 0.315146 0.127229
H15   H     H_    0.274841 0.714738 0.389722 0.114819
H16   H     H_    0.398229 0.884376 0.297516 0.118045
H17   H     H_    0.453111 0.849235 0.131601 0.106221
H18   H     H_    0.621054 0.010934 0.424703 0.105178
H19   H     H_    0.372855 0.993376 0.576141 0.104079
H20   H     H_    0.579812 0.147055 0.018339 0.120477
H21   H     H_    0.559065 0.590687 0.133567 0.133255
H22   H     H_    0.314064 0.794111 0.011783 0.125592
H23   H     H_    0.448299 0.327794 0.796130 0.146159
H24   H     H_    0.042813 0.602685 0.434233 0.096664
O1    O     O_3   0.500000 0.500000 0.500000 -0.435382
O2    O     O_R   0.463530 0.379110 0.309170 -0.541173
O3    O     O_R   0.388210 0.611730 0.699360 -0.507882
O4    O     O_R   0.624720 0.532760 0.292120 -0.536743
O5    O     O_R   0.523540 0.476390 0.699360 -0.558295
O6    O     O_3   0.330688 0.766179 0.840008 -0.551695
O7    O     O_R   0.537910 0.240570 0.564270 -0.534641
O8    O     O_R   0.438950 0.782540 0.540270 -0.559796
O9    O     O_R   0.222350 0.398740 0.468260 -0.539324
O10   O     O_R   0.800790 0.578160 0.427210 -0.535878
O11   O     O_R   0.212140 0.566330 0.564260 -0.547099
O12   O     O_R   0.764730 0.456770 0.540270 -0.538721
O13   O     O_R   0.412790 0.208310 0.468260 -0.539556
O14   O     O_R   0.610350 0.768590 0.427210 -0.531641
Zn1   Zn    Zn3+2 0.580150 0.419820 0.574680 0.926614
Zn2   Zn    Zn3+2 0.401380 0.373730 0.437510 0.928390
Zn3   Zn    Zn3+2 0.631680 0.593260 0.413140 0.940967
Zn4   Zn    Zn3+2 0.386790 0.613180 0.574670 0.914085

loop_
_geom_bond_atom_site_label_1
_geom_bond_atom_site_label_2
_ccdc_geom_bond_type
C2    C35   A    
O7    Zn1   S    
C19   C20   A    
O5    Zn1   S    
O14   Zn3   S    
C8    H18   S    
C20   H3    S    
C11   O8    A    
O1    Zn3   S    
O4    Zn3   S    
C12   C23   A    
C1    O9    A    
C18   C24   A    
C36   C37   A    
C37   C38   A    
O10   Zn3   S    
C11   O14   A    
C30   C31   A    
C28   H13   S    
C5    C17   A    
C18   C19   A    
C14   O3    A    
C35   C36   A    
C8    C9    D    
C23   C33   A    
O12   Zn1   S    
C12   C17   A    
C14   O5    A    
C23   C27   S    
C2    C16   A    
C9    C10   S    
C32   H17   S    
C4    O12   A    
C26   H10   S    
C13   O4    A    
C38   H23   S    
C3    H1    S    
O3    Zn4   S    
C34   C38   A    
C21   C22   A    
C25   O6    S    
O1    Zn4   S    
C30   H15   S    
O8    Zn4   S    
C4    C6    S    
C26   H11   S    
C2    H21   S    
C25   C26   S    
C29   C30   A    
C10   O13   A    
C22   H5    S    
C5    C34   A    
C33   C34   A    
C5    C14   S    
C26   H9    S    
C24   H6    S    
C15   H20   S    
C22   C24   A    
C25   H7    S    
C15   C36   A    
C4    O10   A    
C3    C15   A    
O1    Zn1   S    
C28   C29   A    
C17   O6    S    
C27   C32   A    
C1    C7    S    
O2    Zn2   S    
C18   C37   S    
C31   C32   A    
C7    H12   S    
C6    C7    D    
C1    O11   A    
C6    H24   S    
C13   O2    A    
C8    C11   S    
C33   C35   A    
O11   Zn4   S    
C9    H19   S    
C31   H16   S    
O13   Zn2   S    
C19   H2    S    
C21   H4    S    
C12   H22   S    
C10   O7    A    
C20   C21   A    
C13   C16   S    
C27   C28   A    
C25   H8    S    
O1    Zn2   S    
O9    Zn2   S    
C3    C16   A    
C29   H14   S    
