data_mof_unit_pretest_1049.cif
_audit_creation_date              2012-12-11T13:59:59-0500
_audit_creation_method            fapswitch 2.2
_symmetry_space_group_name_H-M    P1
_symmetry_Int_Tables_number       1
_space_group_crystal_system       triclinic
_cell_length_a                    11.233604
_cell_length_b                    11.20525
_cell_length_c                    18.551158
_cell_angle_alpha                 90.20201
_cell_angle_beta                  89.722864
_cell_angle_gamma                 119.758464
_cell_volume                      2027.16338893

loop_
_atom_site_label
_atom_site_type_symbol
_atom_type_description
_atom_site_fract_x
_atom_site_fract_y
_atom_site_fract_z
_atom_type_partial_charge
C1    C     C_R   0.542178 0.479405 0.852715 0.571462
C2    C     C_R   0.482212 0.540607 0.349796 0.551288
C3    C     C_R   0.058134 0.517975 0.349921 0.549005
C4    C     C_R   0.418314 0.868648 0.359905 0.571674
C5    C     C_2   0.907485 0.445875 0.564882 -0.108564
C6    C     C_2   0.554998 0.456474 0.564529 -0.099018
C7    C     C_2   0.485538 0.966220 0.588788 -0.105652
C8    C     C_2   0.445324 0.904272 0.435225 -0.095184
C9    C     C_2   0.515765 0.482583 0.411045 -0.101314
C10   C     C_2   0.965894 0.485534 0.411078 -0.108639
C11   C     C_2   0.912212 0.362832 0.443568 -0.141098
C12   C     C_R   0.520769 0.062943 0.852708 0.562805
C13   C     C_2   0.636496 0.555676 0.444628 -0.149323
C14   C     C_2   0.341323 0.861548 0.482161 -0.163163
C15   C     C_2   0.363242 0.913389 0.556282 -0.145308
C16   C     C_2   0.658883 0.529375 0.519101 -0.165970
C17   C     C_2   0.860715 0.341756 0.517727 -0.162081
C18   C     C_2   0.004977 0.503524 0.921615 -0.109858
C19   C     C_2   0.496342 0.502275 0.921712 -0.109822
C20   C     C_2   0.497760 0.994238 0.921501 -0.109371
C21   C     C_2   0.503491 0.005203 0.078340 -0.110623
C22   C     C_2   0.502202 0.496123 0.078329 -0.110103
C23   C     C_R   0.937028 0.457906 0.852721 0.572809
C24   C     C_2   0.994464 0.497864 0.078548 -0.110317
C25   C     C_2   0.014026 0.605882 0.038712 -0.164941
C26   C     C_2   0.394234 0.408905 0.038481 -0.164579
C27   C     C_2   0.590193 0.983255 0.037961 -0.165840
C28   C     C_2   0.605481 0.013771 0.961231 -0.164817
C29   C     C_2   0.409242 0.393982 0.961654 -0.165669
C30   C     C_2   0.983308 0.590519 0.962016 -0.166125
C31   C     C_R   0.479315 0.542092 0.147284 0.559120
C32   C     C_R   0.062929 0.520769 0.147302 0.560883
C33   C     C_R   0.457819 0.937046 0.147278 0.569606
C34   C     C_R   0.581493 0.450152 0.640141 0.549681
C35   C     C_R   0.518146 0.058426 0.649994 0.541347
C36   C     C_R   0.869625 0.418674 0.639927 0.547129
Cr1   Cr    Cr6+3 0.464030 0.233680 0.750360 1.021801
Cr2   Cr    Cr6+3 0.766320 0.230350 0.750360 1.019536
Cr3   Cr    Cr6+3 0.769650 0.535970 0.750360 1.018703
Cr4   Cr    Cr6+3 0.233680 0.464030 0.249640 1.021430
Cr5   Cr    Cr6+3 0.230350 0.766320 0.249640 1.016992
Cr6   Cr    Cr6+3 0.535970 0.769650 0.249640 1.019961
H1    H     H_    0.917952 0.278204 0.418305 0.156608
H2    H     H_    0.707879 0.058045 0.938307 0.156574
H3    H     H_    0.351975 0.291347 0.938831 0.156699
H4    H     H_    0.937421 0.647697 0.939630 0.155761
H5    H     H_    0.945991 0.394825 0.055830 0.108494
H6    H     H_    0.604969 0.549735 0.055479 0.107904
H7    H     H_    0.450154 0.055172 0.055964 0.108040
H8    H     H_    0.394981 0.945780 0.944334 0.108906
H9    H     H_    0.549904 0.605246 0.944501 0.108267
H10   H     H_    0.054749 0.449940 0.943938 0.108845
H11   H     H_    0.952361 0.567830 0.433260 0.090407
H12   H     H_    0.718541 0.648061 0.420084 0.153575
H13   H     H_    0.435523 0.385450 0.432082 0.105547
H14   H     H_    0.551342 0.969244 0.451167 0.103878
H15   H     H_    0.567299 0.951922 0.566814 0.101682
H16   H     H_    0.449008 0.402395 0.547184 0.115442
H17   H     H_    0.976567 0.551579 0.549179 0.102626
H18   H     H_    0.236207 0.799998 0.463596 0.132844
H19   H     H_    0.279372 0.920264 0.581521 0.157572
H20   H     H_    0.763186 0.585261 0.539267 0.133067
H21   H     H_    0.795373 0.236719 0.536045 0.133111
H22   H     H_    0.058354 0.708541 0.061533 0.156203
H23   H     H_    0.291806 0.351536 0.061372 0.156984
H24   H     H_    0.647120 0.937171 0.060380 0.156154
O1    O     O_R   0.434100 0.092480 0.829780 -0.514890
O2    O     O_R   0.362730 0.477510 0.175360 -0.496664
O3    O     O_R   0.114780 0.637270 0.175360 -0.498111
O4    O     O_R   0.522490 0.885220 0.175360 -0.492858
O5    O     O_R   0.432250 0.092620 0.670380 -0.518363
O6    O     O_R   0.907380 0.339630 0.670380 -0.489192
O7    O     O_R   0.660370 0.567750 0.670380 -0.503639
O8    O     O_R   0.092620 0.432250 0.329620 -0.509832
O9    O     O_R   0.339630 0.907380 0.329620 -0.502982
O10   O     O_R   0.567750 0.660370 0.329620 -0.523256
O11   O     O_R   0.475790 0.362860 0.676880 -0.491210
O12   O     O_R   0.907520 0.341620 0.829780 -0.510350
O13   O     O_R   0.637140 0.112930 0.676880 -0.520830
O14   O     O_R   0.887070 0.524210 0.676880 -0.512947
O15   O     O_R   0.362860 0.475790 0.323120 -0.498391
O16   O     O_R   0.112930 0.637140 0.323120 -0.522103
O17   O     O_R   0.524210 0.887070 0.323120 -0.498433
O18   O     O_3   0.666667 0.333333 0.749450 -0.292510
O19   O     O_3   0.333333 0.666667 0.250550 -0.269143
O20   O     O_R   0.658380 0.565900 0.829780 -0.512129
O21   O     O_R   0.092480 0.434100 0.170220 -0.516222
O22   O     O_R   0.341620 0.907520 0.170220 -0.513034
O23   O     O_R   0.565900 0.658380 0.170220 -0.517612
O24   O     O_R   0.477510 0.362730 0.824640 -0.490405
O25   O     O_R   0.637270 0.114780 0.824640 -0.495635
O26   O     O_R   0.885220 0.522490 0.824640 -0.492300

loop_
_geom_bond_atom_site_label_1
_geom_bond_atom_site_label_2
_ccdc_geom_bond_type
C22   H6    S    
C1    O24   A    
C6    H16   S    
C12   O25   A    
C4    C8    S    
C8    H14   S    
C21   H7    S    
C18   H10   S    
Cr1   O24   S    
Cr4   O21   S    
C33   O22   A    
Cr3   O18   S    
C34   O11   A    
C5    C17   D    
Cr2   O13   S    
C5    C36   S    
Cr6   O4    S    
C10   H11   S    
C3    O8    A    
C9    C13   D    
C4    O9    A    
C20   H8    S    
C31   O23   A    
Cr1   O18   S    
C11   H1    S    
C9    H13   S    
C20   C28   D    
C7    C15   D    
C21   C27   D    
C35   O5    A    
C24   H5    S    
C16   H20   S    
C31   O2    A    
C12   O1    A    
Cr2   O6    S    
C1    C19   S    
C22   C31   S    
C5    H17   S    
C18   C23   S    
C24   C25   D    
C36   O14   A    
Cr2   O12   S    
C32   O21   A    
Cr1   O11   S    
Cr2   O25   S    
C28   H2    S    
C6    C34   S    
C29   H3    S    
C25   H22   S    
Cr4   O19   S    
C24   C32   S    
Cr5   O9    S    
C12   C20   S    
C3    O16   A    
C15   H19   S    
Cr6   O19   S    
C33   O4    A    
C18   C30   D    
Cr5   O19   S    
Cr1   O5    S    
C22   C26   D    
C19   C29   D    
Cr3   O26   S    
C2    O10   A    
Cr5   O3    S    
C13   H12   S    
C25   C30   S    
Cr5   O22   S    
C11   C17   S    
C8    C14   D    
Cr2   O18   S    
C14   C15   S    
C26   H23   S    
C7    C35   S    
Cr4   O15   S    
C30   H4    S    
Cr6   O17   S    
C32   O3    A    
C14   H18   S    
Cr6   O10   S    
Cr6   O23   S    
Cr3   O14   S    
C3    C10   S    
C17   H21   S    
C4    O17   A    
Cr5   O16   S    
Cr1   O1    S    
C35   O13   A    
Cr4   O8    S    
Cr3   O7    S    
C23   O12   A    
C10   C11   D    
C34   O7    A    
C6    C16   D    
C19   H9    S    
C1    O20   A    
C21   C33   S    
C26   C29   S    
Cr4   O2    S    
C13   C16   S    
C27   C28   S    
C27   H24   S    
C23   O26   A    
C2    O15   A    
Cr3   O20   S    
C2    C9    S    
C7    H15   S    
C36   O6    A    
