data_mof_unit_pretest_512.cif
_audit_creation_date              2012-12-11T15:54:58-0500
_audit_creation_method            fapswitch 2.2
_symmetry_space_group_name_H-M    P1
_symmetry_Int_Tables_number       1
_space_group_crystal_system       triclinic
_cell_length_a                    17.669967
_cell_length_b                    24.731486
_cell_length_c                    15.015134
_cell_angle_alpha                 90.115032
_cell_angle_beta                  126.27224
_cell_angle_gamma                 89.884063
_cell_volume                      5290.112879

loop_
_atom_site_label
_atom_site_type_symbol
_atom_type_description
_atom_site_fract_x
_atom_site_fract_y
_atom_site_fract_z
_atom_type_partial_charge
C1    C     C_R   0.943567 0.847791 0.088896 0.061537
C2    C     C_R   0.149806 0.849087 0.090880 0.081461
C3    C     C_R   0.364265 0.676262 0.997108 -0.014287
C4    C     C_R   0.679148 0.998156 0.739641 0.058251
C5    C     C_R   0.179148 0.498156 0.739641 0.058251
C6    C     C_R   0.949521 0.000311 0.272288 0.004316
C7    C     C_R   0.449521 0.500311 0.272288 0.004316
C8    C     C_R   0.254149 0.954978 0.306077 -0.094754
C9    C     C_R   0.254740 0.044429 0.307302 -0.112745
C10   C     C_R   0.754149 0.454978 0.306077 -0.094755
C11   C     C_R   0.754740 0.544429 0.307302 -0.112745
C12   C     C_R   0.954154 0.045207 0.696861 -0.145678
C13   C     C_R   0.671729 0.640845 0.091774 0.081279
C14   C     C_R   0.955226 0.954499 0.697420 -0.141769
C15   C     C_R   0.454153 0.545207 0.696861 -0.145677
C16   C     C_R   0.455226 0.454500 0.697419 -0.141770
C17   C     C_1   0.007371 0.827144 0.199527 -0.026430
C18   C     C_1   0.008106 0.175016 0.194283 -0.018608
C19   C     C_1   0.507371 0.327144 0.199527 -0.026430
C20   C     C_1   0.508106 0.675015 0.194283 -0.018608
C21   C     C_1   0.791240 0.059792 0.256247 0.067745
C22   C     C_1   0.795120 0.937482 0.255955 0.065449
C23   C     C_1   0.291240 0.559793 0.256246 0.067744
C24   C     C_R   0.649806 0.349087 0.090880 0.081461
C25   C     C_1   0.295119 0.437482 0.255955 0.065449
C26   C     C_1   0.657649 0.212493 0.102428 0.074777
C27   C     C_1   0.643275 0.772102 0.049159 0.078973
C28   C     C_1   0.157649 0.712493 0.102428 0.074778
C29   C     C_1   0.143275 0.272102 0.049158 0.078973
C30   C     C_1   0.316976 0.851357 0.092276 0.067386
C31   C     C_1   0.360856 0.143961 0.128409 0.068769
C32   C     C_1   0.816976 0.351357 0.092277 0.067386
C33   C     C_1   0.860855 0.643961 0.128409 0.068769
C34   C     C_1   0.368446 0.908846 0.539529 0.030741
C35   C     C_R   0.301629 0.999536 0.371752 -0.011327
C36   C     C_1   0.462574 0.082550 0.436328 0.055524
C37   C     C_1   0.868446 0.408847 0.539529 0.030742
C38   C     C_1   0.962574 0.582550 0.436327 0.055523
C39   C     C_1   0.445280 0.903201 0.454733 0.031808
C40   C     C_1   0.447074 0.002248 0.343631 0.083234
C41   C     C_1   0.945280 0.403201 0.454733 0.031808
C42   C     C_1   0.947074 0.502248 0.343630 0.083234
C43   C     C_1   0.369239 0.012418 0.624747 0.052198
C44   C     C_1   0.373430 0.090773 0.544935 0.019989
C45   C     C_1   0.869240 0.512419 0.624747 0.052198
C46   C     C_R   0.801629 0.499536 0.371752 -0.011327
C47   C     C_1   0.873430 0.590773 0.544934 0.019989
C48   C     C_1   0.222786 0.163837 0.200812 -0.005083
C49   C     C_1   0.194874 0.829494 0.201658 -0.007637
C50   C     C_1   0.722786 0.663837 0.200812 -0.005083
C51   C     C_1   0.694874 0.329494 0.201658 -0.007637
C52   C     C_R   0.940196 0.999809 0.634905 0.021470
C53   C     C_R   0.440196 0.499809 0.634905 0.021470
C54   C     C_R   0.124976 0.819709 0.998295 -0.045913
C55   C     C_R   0.158951 0.161838 0.997408 -0.043370
C56   C     C_R   0.624976 0.319709 0.998295 -0.045913
C57   C     C_R   0.937269 0.149944 0.090207 0.053704
C58   C     C_R   0.658950 0.661838 0.997408 -0.043370
C59   C     C_3   0.885526 0.052118 0.360633 -0.086057
C60   C     C_3   0.887457 0.947626 0.361622 -0.088647
C61   C     C_3   0.385525 0.552118 0.360633 -0.086055
C62   C     C_3   0.387456 0.447626 0.361621 -0.088646
C63   C     C_3   0.881944 0.050975 0.460911 -0.450413
C64   C     C_3   0.880322 0.949626 0.459179 -0.450493
C65   C     C_3   0.381943 0.550975 0.460911 -0.450413
C66   C     C_3   0.380322 0.449626 0.459179 -0.450492
C67   C     C_3   0.038210 0.000708 0.470145 -0.445342
C68   C     C_R   0.443567 0.347791 0.088896 0.061537
C69   C     C_3   0.538210 0.500708 0.470145 -0.445342
C70   C     C_3   0.936775 0.000188 0.361042 0.251491
C71   C     C_3   0.436775 0.500188 0.361042 0.251489
C72   C     C_3   0.933661 0.999928 0.532532 0.346673
C73   C     C_3   0.433660 0.499928 0.532532 0.346673
C74   C     C_R   0.843281 0.148436 0.906267 -0.179588
C75   C     C_R   0.852009 0.849070 0.905756 -0.185137
C76   C     C_R   0.343281 0.648436 0.906267 -0.179588
C77   C     C_R   0.352009 0.349070 0.905756 -0.185137
C78   C     C_3   0.036063 0.999435 0.569903 -0.391815
C79   C     C_R   0.437269 0.649944 0.090207 0.053704
C80   C     C_3   0.536063 0.499435 0.569903 -0.391814
C81   C     C_3   0.699303 0.210909 0.882768 -0.409007
C82   C     C_3   0.732805 0.763712 0.870667 -0.414809
C83   C     C_3   0.199303 0.710909 0.882768 -0.409007
C84   C     C_3   0.232805 0.263711 0.870667 -0.414810
C85   C     C_3   0.131067 0.746665 0.887509 -0.422772
C86   C     C_3   0.167763 0.224347 0.873302 -0.430364
C87   C     C_3   0.631067 0.246665 0.887509 -0.422771
C88   C     C_3   0.667762 0.724347 0.873302 -0.430363
C89   C     C_3   0.338545 0.770490 0.015517 -0.456490
C90   C     C_R   0.060895 0.850501 0.906874 -0.164919
C91   C     C_3   0.377377 0.224457 0.044792 -0.458537
C92   C     C_3   0.838544 0.270490 0.015516 -0.456490
C93   C     C_3   0.877377 0.724457 0.044792 -0.458537
C94   C     C_3   0.786625 0.196181 0.086023 -0.455950
C95   C     C_3   0.779477 0.798172 0.053172 -0.450491
C96   C     C_3   0.286625 0.696181 0.086022 -0.455951
C97   C     C_3   0.279477 0.298172 0.053172 -0.450491
C98   C     C_3   0.798808 0.213044 0.995348 0.357596
C99   C     C_3   0.819007 0.776551 0.991054 0.360366
C100  C     C_3   0.298808 0.713044 0.995348 0.357596
C101  C     C_R   0.080348 0.138395 0.905332 -0.157165
C102  C     C_3   0.319007 0.276551 0.991054 0.360367
C103  C     C_3   0.186272 0.779582 0.997454 0.260129
C104  C     C_3   0.216148 0.203371 0.993780 0.264890
C105  C     C_3   0.686271 0.279581 0.997454 0.260130
C106  C     C_3   0.716148 0.703371 0.993780 0.264889
C107  C     C_3   0.267051 0.810751 0.003485 -0.119555
C108  C     C_3   0.312356 0.178627 0.029787 -0.128423
C109  C     C_3   0.767051 0.310751 0.003485 -0.119554
C110  C     C_3   0.812356 0.678627 0.029787 -0.128423
C111  C     C_3   0.229165 0.738741 0.095454 -0.098472
C112  C     C_R   0.560895 0.350501 0.906874 -0.164919
C113  C     C_3   0.231214 0.252499 0.068646 -0.105715
C114  C     C_3   0.729165 0.238741 0.095454 -0.098472
C115  C     C_3   0.731214 0.752500 0.068647 -0.105714
C116  C     C_3   0.433771 0.938558 0.525939 0.089561
C117  C     C_3   0.467162 0.022905 0.448228 0.065737
C118  C     C_3   0.933771 0.438558 0.525939 0.089561
C119  C     C_3   0.967162 0.522905 0.448228 0.065737
C120  C     C_R   0.735396 0.953734 0.761339 -0.130928
C121  C     C_R   0.733597 0.044240 0.762427 -0.144033
C122  C     C_R   0.235396 0.453734 0.761339 -0.130927
C123  C     C_R   0.580348 0.638396 0.905332 -0.157165
C124  C     C_R   0.233597 0.544240 0.762427 -0.144033
C125  C     C_3   0.530258 0.942088 0.640312 -0.493258
C126  C     C_3   0.568227 0.008187 0.542762 -0.479524
C127  C     C_3   0.030258 0.442089 0.640312 -0.493258
C128  C     C_3   0.068227 0.508187 0.542761 -0.479525
C129  C     C_3   0.414162 0.035847 0.576223 0.096850
C130  C     C_3   0.914162 0.535847 0.576222 0.096850
C131  C     C_3   0.399734 0.999304 0.477675 0.054590
C132  C     C_3   0.899734 0.499304 0.477675 0.054590
C133  C     C_3   0.576924 0.997408 0.650743 0.299276
C134  C     C_R   0.171729 0.140845 0.091774 0.081279
C135  C     C_3   0.076924 0.497408 0.650742 0.299275
C136  C     C_3   0.522856 0.041139 0.667898 -0.499098
C137  C     C_3   0.022856 0.541139 0.667897 -0.499098
C138  C     C_R   0.979467 0.045628 0.246779 -0.134645
C139  C     C_R   0.978717 0.954828 0.245956 -0.131204
C140  C     C_R   0.479467 0.545628 0.246779 -0.134645
C141  C     C_R   0.478717 0.454828 0.245956 -0.131204
C142  C     C_R   0.877969 0.818726 0.995218 -0.015025
C143  C     C_R   0.864265 0.176262 0.997108 -0.014287
C144  C     C_R   0.377969 0.318726 0.995218 -0.015025
H1    H     H_    0.808449 0.051419 0.435132 0.166702
H2    H     H_    0.756837 0.745766 0.823224 0.160994
H3    H     H_    0.202656 0.725629 0.815140 0.157533
H4    H     H_    0.256837 0.245766 0.823224 0.160994
H5    H     H_    0.671968 0.168732 0.862552 0.163981
H6    H     H_    0.691741 0.800895 0.826778 0.160597
H7    H     H_    0.171969 0.668732 0.862552 0.163981
H8    H     H_    0.191741 0.300894 0.826777 0.160597
H9    H     H_    0.575803 0.221527 0.880923 0.176892
H10   H     H_    0.600055 0.744642 0.842339 0.176718
H11   H     H_    0.075803 0.721527 0.880923 0.176892
H12   H     H_    0.805968 0.951111 0.430333 0.168403
H13   H     H_    0.100055 0.244642 0.842339 0.176718
H14   H     H_    0.798028 0.160568 0.820602 0.103434
H15   H     H_    0.811320 0.836723 0.820108 0.103574
H16   H     H_    0.298028 0.660568 0.820602 0.103434
H17   H     H_    0.311320 0.336723 0.820108 0.103574
H18   H     H_    0.235259 0.833239 0.924643 0.128218
H19   H     H_    0.298890 0.151908 0.961982 0.130984
H20   H     H_    0.735259 0.333239 0.924643 0.128218
H21   H     H_    0.798890 0.651908 0.961982 0.130984
H22   H     H_    0.854430 0.192165 0.168875 0.150827
H23   H     H_    0.308447 0.551418 0.435130 0.166702
H24   H     H_    0.834466 0.814869 0.136195 0.151036
H25   H     H_    0.354430 0.692165 0.168874 0.150828
H26   H     H_    0.334466 0.314868 0.136194 0.151036
H27   H     H_    0.752855 0.155536 0.065012 0.176044
H28   H     H_    0.730370 0.832348 0.005224 0.175925
H29   H     H_    0.252855 0.655536 0.065012 0.176045
H30   H     H_    0.230370 0.332348 0.005223 0.175924
H31   H     H_    0.406814 0.772469 0.099219 0.179865
H32   H     H_    0.433365 0.231548 0.133919 0.184033
H33   H     H_    0.906814 0.272469 0.099218 0.179865
H34   H     H_    0.305969 0.451111 0.430334 0.168402
H35   H     H_    0.933364 0.731548 0.133919 0.184033
H36   H     H_    0.572661 0.906483 0.650590 0.149126
H37   H     H_    0.591830 0.971135 0.523046 0.170755
H38   H     H_    0.072661 0.406483 0.650591 0.149126
H39   H     H_    0.091830 0.471135 0.523045 0.170755
H40   H     H_    0.717282 0.911671 0.749996 0.094760
H41   H     H_    0.708961 0.085441 0.745994 0.097215
H42   H     H_    0.217282 0.411671 0.749995 0.094760
H43   H     H_    0.208961 0.585441 0.745993 0.097215
H44   H     H_    0.973370 0.087264 0.262549 0.100647
H45   H     H_    0.076629 0.037566 0.474914 0.175070
H46   H     H_    0.971016 0.913392 0.260364 0.104168
H47   H     H_    0.473370 0.587264 0.262549 0.100647
H48   H     H_    0.471016 0.413392 0.260364 0.104168
H49   H     H_    0.941918 0.086949 0.671063 0.090156
H50   H     H_    0.945117 0.912561 0.672829 0.090221
H51   H     H_    0.441918 0.586949 0.671063 0.090156
H52   H     H_    0.445117 0.412561 0.672829 0.090222
H53   H     H_    0.926789 0.088478 0.370708 0.100345
H54   H     H_    0.931860 0.912010 0.375970 0.104556
H55   H     H_    0.426790 0.588478 0.370708 0.100345
H56   H     H_    0.079097 0.965246 0.474075 0.178299
H57   H     H_    0.431859 0.412009 0.375969 0.104556
H58   H     H_    0.916182 0.088503 0.509178 0.142988
H59   H     H_    0.911021 0.911542 0.506629 0.142619
H60   H     H_    0.416180 0.588503 0.509177 0.142988
H61   H     H_    0.411022 0.411541 0.506629 0.142619
H62   H     H_    0.075081 0.035037 0.623526 0.164574
H63   H     H_    0.072999 0.962451 0.619420 0.166376
H64   H     H_    0.575080 0.535038 0.623525 0.164574
H65   H     H_    0.573000 0.462452 0.619421 0.166376
H66   H     H_    0.095792 0.773153 0.813711 0.153756
H67   H     H_    0.576629 0.537566 0.474914 0.175070
H68   H     H_    0.152717 0.190644 0.815763 0.154677
H69   H     H_    0.595792 0.273153 0.813712 0.153757
H70   H     H_    0.652716 0.690644 0.815763 0.154676
H71   H     H_    0.353075 0.780613 0.954684 0.160891
H72   H     H_    0.412163 0.212781 0.005434 0.164611
H73   H     H_    0.853075 0.280614 0.954683 0.160891
H74   H     H_    0.912162 0.712781 0.005434 0.164611
H75   H     H_    0.279647 0.760038 0.174400 0.128162
H76   H     H_    0.280657 0.241031 0.156500 0.131835
H77   H     H_    0.779646 0.260038 0.174400 0.128162
H78   H     H_    0.579097 0.465245 0.474075 0.178299
H79   H     H_    0.780658 0.741031 0.156500 0.131835
H80   H     H_    0.523395 0.938728 0.709296 0.172295
H81   H     H_    0.617069 0.040282 0.552951 0.160861
H82   H     H_    0.023394 0.438729 0.709296 0.172295
H83   H     H_    0.117070 0.540282 0.552951 0.160861
H84   H     H_    0.540675 0.037253 0.752273 0.163738
H85   H     H_    0.548233 0.081845 0.665246 0.163911
H86   H     H_    0.040676 0.537254 0.752272 0.163738
H87   H     H_    0.048233 0.581845 0.665244 0.163911
H88   H     H_    0.264925 0.913570 0.330773 0.123300
H89   H     H_    0.702656 0.225629 0.815140 0.157533
H90   H     H_    0.267651 0.085396 0.334657 0.132038
H91   H     H_    0.764925 0.413570 0.330773 0.123300
H92   H     H_    0.767651 0.585396 0.334657 0.132038
H93   H     H_    0.021400 0.840018 0.820528 0.101190
H94   H     H_    0.044789 0.147407 0.818918 0.102816
H95   H     H_    0.521400 0.340018 0.820528 0.101190
H96   H     H_    0.544789 0.647407 0.818918 0.102816
N1    N     N_R   0.950530 0.896220 0.057200 -0.057259
N2    N     N_R   0.818150 0.028600 0.792440 -0.039653
N3    N     N_R   0.318150 0.471400 0.792440 -0.040470
N4    N     N_R   0.318150 0.528600 0.792440 -0.039653
N5    N     N_R   0.025710 0.028600 0.207560 -0.039720
N6    N     N_R   0.025710 0.971400 0.207560 -0.039974
N7    N     N_R   0.525710 0.528600 0.207560 -0.039720
N8    N     N_R   0.525710 0.471400 0.207560 -0.039974
N9    N     N_R   0.181850 0.971400 0.207560 -0.048148
N10   N     N_R   0.181850 0.028600 0.207560 -0.047872
N11   N     N_R   0.681850 0.471400 0.207560 -0.048148
N12   N     N_R   0.950530 0.103780 0.057200 -0.056099
N13   N     N_R   0.681850 0.528600 0.207560 -0.047872
N14   N     N_R   0.974290 0.028600 0.792440 -0.035459
N15   N     N_R   0.974290 0.971400 0.792440 -0.035897
N16   N     N_R   0.474290 0.528600 0.792440 -0.035459
N17   N     N_R   0.474290 0.471400 0.792440 -0.035897
N18   N     N_R   0.049470 0.896220 0.942800 -0.043930
N19   N     N_R   0.049470 0.103780 0.942800 -0.044523
N20   N     N_R   0.549470 0.396220 0.942800 -0.043930
N21   N     N_R   0.549470 0.603780 0.942800 -0.044523
N22   N     N_R   0.106670 0.103780 0.057200 -0.060097
N23   N     N_R   0.450530 0.396220 0.057200 -0.057259
N24   N     N_R   0.106670 0.896220 0.057200 -0.059631
N25   N     N_R   0.606670 0.603780 0.057200 -0.060097
N26   N     N_R   0.606670 0.396220 0.057200 -0.059632
N27   N     N_1   0.058023 0.810601 0.288508 -0.082167
N28   N     N_1   0.064988 0.195126 0.277830 -0.082545
N29   N     N_1   0.558023 0.310601 0.288508 -0.082167
N30   N     N_1   0.564988 0.695126 0.277830 -0.082545
N31   N     N_1   0.717391 0.065990 0.174375 -0.082765
N32   N     N_1   0.722883 0.929288 0.173079 -0.081000
N33   N     N_1   0.217392 0.565991 0.174375 -0.082765
N34   N     N_R   0.450530 0.603780 0.057200 -0.056098
N35   N     N_1   0.222881 0.429288 0.173079 -0.081000
N36   N     N_1   0.601899 0.191927 0.108139 -0.091292
N37   N     N_1   0.574537 0.787294 0.033987 -0.088886
N38   N     N_1   0.101899 0.691927 0.108139 -0.091292
N39   N     N_1   0.074537 0.287294 0.033986 -0.088886
N40   N     N_1   0.356264 0.883348 0.161507 -0.066762
N41   N     N_1   0.399632 0.116023 0.204770 -0.073622
N42   N     N_1   0.856264 0.383348 0.161507 -0.066762
N43   N     N_1   0.899632 0.616022 0.204769 -0.073622
N44   N     N_1   0.317486 0.885278 0.549782 -0.082450
N45   N     N_R   0.893330 0.103780 0.942800 -0.041165
N46   N     N_1   0.460947 0.129194 0.428871 -0.082148
N47   N     N_1   0.817486 0.385279 0.549782 -0.082450
N48   N     N_1   0.960948 0.629194 0.428870 -0.082148
N49   N     N_1   0.455152 0.874981 0.400762 -0.082500
N50   N     N_1   0.431870 0.986934 0.261665 -0.069329
N51   N     N_1   0.955152 0.374981 0.400762 -0.082500
N52   N     N_1   0.931871 0.486934 0.261665 -0.069329
N53   N     N_1   0.334017 0.994802 0.663311 -0.090479
N54   N     N_1   0.342048 0.133987 0.522734 -0.084086
N55   N     N_1   0.834017 0.494803 0.663311 -0.090479
N56   N     N_R   0.893330 0.896220 0.942800 -0.041787
N57   N     N_1   0.842049 0.633987 0.522733 -0.084086
N58   N     N_1   0.262879 0.183284 0.287688 -0.080839
N59   N     N_1   0.231238 0.813154 0.290431 -0.083302
N60   N     N_1   0.762879 0.683284 0.287688 -0.080839
N61   N     N_1   0.731238 0.313154 0.290431 -0.083302
N62   N     N_R   0.393330 0.603780 0.942800 -0.041165
N63   N     N_R   0.393330 0.396220 0.942800 -0.041787
N64   N     N_R   0.818150 0.971400 0.792440 -0.040470
Ni1   Ni    Ni4+2 0.065600 0.934400 0.131190 0.231470
Ni2   Ni    Ni4+2 0.065600 0.065600 0.131190 0.230772
Ni3   Ni    Ni4+2 0.565600 0.434400 0.131190 0.231470
Ni4   Ni    Ni4+2 0.565600 0.565600 0.131190 0.230772
Ni5   Ni    Ni4+2 0.934400 0.065600 0.868810 0.207332
Ni6   Ni    Ni4+2 0.934400 0.934400 0.868810 0.204275
Ni7   Ni    Ni4+2 0.434400 0.565600 0.868810 0.207332
Ni8   Ni    Ni4+2 0.434400 0.434400 0.868810 0.204275

loop_
_geom_bond_atom_site_label_1
_geom_bond_atom_site_label_2
_ccdc_geom_bond_type
N1    Ni1   S    
C33   N43   T    
C63   H58   S    
C34   N44   T    
C140  N7    A    
C36   N46   T    
C3    C79   A    
C95   H24   S    
C76   N62   A    
N34   Ni4   S    
C77   N63   A    
N64   Ni6   S    
C128  H39   S    
C10   H91   S    
C111  H75   S    
C84   C86   S    
C21   C59   S    
C22   C60   S    
C95   C99   S    
C42   C119  S    
C141  N8    A    
C6    C70   S    
C85   H11   S    
C78   H63   S    
C50   N60   T    
C3    C100  S    
C2    N24   A    
C87   H9    S    
C12   H49   S    
C69   H67   S    
C41   C118  S    
C124  N4    A    
C117  C126  S    
C85   C103  S    
C60   H54   S    
C93   C110  S    
C119  C128  S    
C61   C71   S    
C24   C51   S    
N2    N64   A    
C40   C117  S    
C14   H50   S    
C45   C130  S    
C44   N54   T    
N5    N6    A    
C45   N55   T    
C48   N58   T    
N34   N62   A    
C41   N51   T    
C28   C111  S    
C32   C109  S    
C54   C103  S    
C27   N37   T    
C67   H56   S    
N18   Ni6   S    
C128  C135  S    
N15   Ni6   S    
C57   C143  A    
C8    C35   A    
C26   C114  S    
C62   H57   S    
C75   N56   A    
C52   C72   S    
C107  H18   S    
N3    Ni8   S    
C19   C68   S    
C36   C117  S    
C38   C119  S    
C79   N34   A    
C83   C100  S    
C43   N53   T    
C81   H89   S    
C24   C56   A    
N20   N26   A    
C90   N18   A    
C125  H80   S    
C135  C137  S    
C29   C113  S    
C59   C63   S    
N21   Ni7   S    
N18   N24   A    
C127  C135  S    
C137  H86   S    
C122  N3    A    
C29   N39   T    
N2    Ni5   S    
C136  H85   S    
C30   N40   T    
C106  C115  S    
C60   C64   S    
C91   H32   S    
C23   N33   T    
N45   Ni5   S    
C81   H5    S    
C101  N19   A    
C25   C62   S    
C114  H77   S    
C92   H73   S    
C92   C109  S    
N6    Ni1   S    
C61   C65   S    
N11   Ni3   S    
C20   N30   T    
C11   C46   A    
C103  C107  S    
C96   H29   S    
N24   Ni1   S    
C27   C115  S    
C74   C143  A    
C30   C107  S    
C39   N49   T    
C84   C102  S    
C139  H46   S    
C86   C104  S    
C37   N47   T    
N1    N56   A    
C38   N48   T    
C19   N29   T    
N9    N10   A    
C48   C134  S    
C31   N41   T    
C54   C90   A    
C46   C132  S    
C122  H42   S    
N7    Ni4   S    
C6    C139  A    
C49   N59   T    
C72   C78   S    
C1    C142  A    
N62   Ni7   S    
C127  H82   S    
C95   H28   S    
N20   Ni8   S    
C141  H48   S    
C102  C144  S    
C96   C111  S    
C14   C52   A    
C62   C66   S    
C43   C129  S    
C51   N61   T    
C66   H61   S    
N9    Ni1   S    
C55   C104  S    
C97   H26   S    
C88   H10   S    
C138  H44   S    
N16   Ni7   S    
C87   C105  S    
C120  H40   S    
C80   H64   S    
C96   H25   S    
C118  C127  S    
C7    C141  A    
C5    C135  S    
C105  C109  S    
C24   N26   A    
C1    C17   S    
C116  C125  S    
C67   C70   S    
C9    N10   A    
C112  N20   A    
C130  C137  S    
C82   C88   S    
C96   C100  S    
C62   C71   S    
C68   C144  A    
C136  H84   S    
C117  C131  S    
C86   H13   S    
C118  C132  S    
C92   H33   S    
C13   C50   S    
C140  H47   S    
N63   Ni8   S    
C126  H37   S    
C33   C110  S    
C5    C122  A    
C63   H1    S    
C82   C99   S    
N12   N45   A    
C94   H22   S    
C93   H35   S    
C5    C124  A    
C58   C123  A    
C15   C53   A    
C115  H79   S    
N17   Ni8   S    
C86   H68   S    
C7    C140  A    
C110  H21   S    
C81   C98   S    
C94   C98   S    
C125  C133  S    
N3    N4    A    
C103  C111  S    
C12   C52   A    
C40   N50   T    
C93   C99   S    
C113  H76   S    
C97   C102  S    
C15   H51   S    
C61   H55   S    
N25   Ni4   S    
C32   N42   T    
N26   Ni3   S    
C82   H2    S    
C83   H7    S    
C84   H4    S    
C77   H17   S    
C108  H19   S    
C74   H14   S    
C89   C100  S    
C2    C54   A    
C74   N45   A    
C44   C129  S    
C130  C132  S    
C78   H62   S    
N21   N25   A    
C91   H72   S    
C16   H52   S    
C94   H27   S    
C18   C57   S    
C89   C107  S    
C125  H36   S    
N22   Ni2   S    
C81   C87   S    
C83   C85   S    
C64   H59   S    
N56   Ni6   S    
C126  H81   S    
C89   H31   S    
C20   C79   S    
C35   C131  S    
C104  C108  S    
C21   N31   T    
C22   N32   T    
C11   H92   S    
N10   Ni2   S    
C55   C101  A    
C97   H30   S    
C90   H93   S    
C9    H90   S    
C91   C108  S    
C109  H20   S    
C13   N25   A    
C55   C134  A    
C65   H23   S    
N12   Ni2   S    
C25   N35   T    
C138  N5    A    
C75   C142  A    
C26   N36   T    
C16   N17   A    
C65   H60   S    
C11   N13   A    
C4    C121  A    
C56   C105  S    
C59   C70   S    
C23   C61   S    
C63   C72   S    
C39   C116  S    
C9    C35   A    
N14   Ni5   S    
C139  N6    A    
C120  N64   A    
C80   H65   S    
C98   C143  S    
C8    H88   S    
C31   C108  S    
C99   C142  S    
C137  H87   S    
N19   N22   A    
C85   H66   S    
C94   C114  S    
C92   C98   S    
C66   H34   S    
N14   N15   A    
C88   H70   S    
C47   N57   T    
C123  N21   A    
C10   N11   A    
C7    C71   S    
N11   N13   A    
C34   C116  S    
C65   C73   S    
C69   H78   S    
C69   C71   S    
C16   C53   A    
C37   C118  S    
C126  C133  S    
C95   C115  S    
C10   C46   A    
C133  C136  S    
C89   H71   S    
C134  N22   A    
C67   C78   S    
C15   N16   A    
C121  N2    A    
C42   N52   T    
C8    N9    A    
C12   N14   A    
C14   N15   A    
C47   C130  S    
C105  C114  S    
C13   C58   A    
C66   C73   S    
C104  C113  S    
C93   H74   S    
C58   C106  S    
N23   N63   A    
C6    C138  A    
C2    C49   S    
C129  C136  S    
C88   C106  S    
C60   C70   S    
C112  H95   S    
N16   N17   A    
N13   Ni4   S    
C119  C132  S    
C87   H69   S    
C57   N12   A    
C3    C76   A    
C82   H6    S    
C1    N1    A    
C83   H3    S    
C84   H8    S    
N8    Ni3   S    
C91   C102  S    
C97   C113  S    
N4    Ni7   S    
N5    Ni2   S    
C123  H96   S    
C106  C110  S    
C75   H15   S    
C127  H38   S    
C76   H16   S    
C101  H94   S    
C53   C73   S    
C124  H43   S    
N7    N8    A    
C67   H45   S    
C28   N38   T    
C64   H12   S    
C77   C144  A    
N23   Ni3   S    
C17   N27   T    
C18   N28   T    
N19   Ni5   S    
C116  C131  S    
C59   H53   S    
C128  H83   S    
C73   C80   S    
C64   C72   S    
C121  H41   S    
C4    C120  A    
C69   C80   S    
C56   C112  A    
C68   N23   A    
C4    C133  S    
C129  C131  S    
