data_mof_unit_pretest_950.cif
_audit_creation_date              2013-03-05T16:03:25-0500
_audit_creation_method            fapswitch 2.2
_symmetry_space_group_name_H-M    P1
_symmetry_Int_Tables_number       1
_space_group_crystal_system       triclinic
_cell_length_a                    6.963404
_cell_length_b                    18.362207
_cell_length_c                    20.163763
_cell_angle_alpha                 68.725103
_cell_angle_beta                  90.949637
_cell_angle_gamma                 90.334547
_cell_volume                      2402.17441978

loop_
_atom_site_label
_atom_site_type_symbol
_atom_site_description
_atom_site_fract_x
_atom_site_fract_y
_atom_site_fract_z
_atom_type_partial_charge
O1    O     O_R   0.488960 0.443750 0.941980 -0.537892
O2    O     O_R   0.823890 0.406510 0.087590 -0.539229
O3    O     O_R   0.999680 0.556250 0.058020 -0.544826
C1    C     C_R   0.656432 0.383142 0.115799 1.028014
O4    O     O_R   0.818360 0.434410 0.944340 -0.554454
O5    O     O_R   0.994110 0.584350 0.913750 -0.604770
C2    C     C_R   0.650324 0.426048 0.919398 1.053359
O6    O     O_R   0.494530 0.415650 0.086250 -0.583853
O7    O     O_3   0.662590 0.549160 0.990130 -0.289578
V1    V     V_3+5 0.935320 0.490880 0.001830 1.349015
O8    O     O_R   0.324180 0.593490 0.912410 -0.595816
C3    C     C_R   0.153998 0.615831 0.884720 0.985926
O9    O     O_R   0.329720 0.565590 0.055660 -0.590812
C4    C     C_R   0.161932 0.581254 0.074612 1.010911
V2    V     V_3+5 0.435990 0.509120 0.998170 1.307954
O10   O     O_3   0.158850 0.450840 0.009870 -0.225206
C5    C     C_3   0.046264 0.706015 0.310702 0.188315
C6    C     C_3   0.231393 0.684459 0.282278 0.182495
C7    C     C_1   0.155551 0.626714 0.120191 -0.150750
C8    C     C_1   0.108310 0.874580 0.378404 -0.129367
C9    C     C_3   0.950054 0.729305 0.235979 -0.216383
C10   C     C_3   0.139745 0.708135 0.207516 -0.179142
C11   C     C_3   0.028420 0.813641 0.218761 0.552269
C12   C     C_3   0.120340 0.789681 0.293940 -0.290626
C13   C     C_3   0.216265 0.792647 0.189312 -0.275406
C14   C     C_3   0.306880 0.767939 0.265212 0.419386
C15   C     C_1   0.148958 0.663723 0.159241 0.312599
C16   C     C_1   0.112120 0.835654 0.340956 0.398958
H1    H     H_    0.286630 0.829064 0.139142 0.246831
H2    H     H_    0.803695 0.712723 0.223972 0.227938
C17   C     C_R   0.036534 0.766732 0.878155 -0.383562
C18   C     C_R   0.996512 0.839894 0.880870 0.258233
C19   C     C_R   0.019245 0.906668 0.819416 0.373732
C20   C     C_R   0.078481 0.899432 0.755576 0.130417
C21   C     C_R   0.096931 0.824062 0.750387 -0.085391
C22   C     C_R   0.089200 0.757130 0.814360 0.070332
C23   C     C_R   0.120321 0.813654 0.683927 -0.159825
C24   C     C_R   0.150753 0.736464 0.683867 -0.064391
C25   C     C_R   0.174600 0.671195 0.749429 -0.106997
C26   C     C_R   0.139230 0.681956 0.814923 -0.124508
C27   C     C_R   0.155711 0.721650 0.619464 0.221227
C28   C     C_R   0.243892 0.654369 0.617188 0.168742
C29   C     C_R   0.283309 0.592499 0.680913 0.355030
C30   C     C_R   0.226850 0.597075 0.745759 0.240511
H3    H     H_    0.026622 0.717175 0.927529 0.159924
C31   C     C_R   0.523364 0.098604 0.253647 -0.324234
C32   C     C_R   0.483878 0.084616 0.191486 0.361708
C33   C     C_R   0.508010 0.144922 0.126800 -0.184831
C34   C     C_R   0.568203 0.219125 0.122898 0.280528
C35   C     C_R   0.600229 0.236768 0.185809 -0.046157
C36   C     C_R   0.580075 0.173319 0.252319 0.052429
C37   C     C_R   0.650815 0.313515 0.185173 -0.217990
C38   C     C_R   0.682254 0.323663 0.252500 -0.056528
C39   C     C_R   0.651875 0.259394 0.317398 0.055302
C40   C     C_R   0.613518 0.184254 0.317136 -0.139674
C41   C     C_R   0.744268 0.395586 0.258544 0.139120
C42   C     C_R   0.751700 0.405045 0.325189 0.208821
C43   C     C_R   0.703985 0.342537 0.386901 0.425481
C44   C     C_R   0.659504 0.270766 0.382974 -0.344870
H4    H     H_    0.506740 0.050127 0.303433 0.172995
H5    H     H_    0.484554 0.133980 0.077972 0.237209
H6    H     H_    0.630397 0.223611 0.432711 0.147438
O11   O     O_R   0.770540 0.084530 0.414050 -0.600448
O12   O     O_R   0.445710 0.065660 0.555720 -0.558774
O13   O     O_R   0.270420 0.915650 0.586190 -0.569104
C45   C     C_R   0.614895 0.080242 0.575846 1.005621
O14   O     O_R   0.441140 0.093540 0.412470 -0.606999
O15   O     O_R   0.265820 0.943740 0.441930 -0.587881
C46   C     C_R   0.608452 0.116193 0.385441 0.893540
O16   O     O_R   0.775150 0.056440 0.558310 -0.567985
O17   O     O_3   0.602370 0.950960 0.510050 -0.253465
V3    V     V_3+5 0.329450 0.009140 0.498150 1.278157
O18   O     O_R   0.935790 0.934280 0.444060 -0.560704
C47   C     C_R   0.103186 0.921633 0.422617 1.006460
O19   O     O_R   0.940370 0.906390 0.587310 -0.559650
C48   C     C_R   0.110134 0.882775 0.614855 1.056782
V4    V     V_3+5 0.828810 0.990710 0.501460 1.290197
O20   O     O_3   0.105780 0.049100 0.489960 -0.273111
C49   C     C_3   0.718067 0.323510 0.709887 0.579112
C50   C     C_3   0.530228 0.293256 0.686330 -0.249898
H7    H     H_    0.442140 0.324769 0.638110 0.246432
C51   C     C_1   0.622758 0.126528 0.620694 -0.154585
C52   C     C_1   0.644940 0.382686 0.871953 -0.064220
C53   C     C_3   0.815567 0.242427 0.727325 -0.262953
C54   C     C_3   0.626782 0.211908 0.704767 -0.177616
C55   C     C_3   0.740322 0.217085 0.804825 0.430059
C56   C     C_3   0.646712 0.298209 0.787115 -0.308573
C57   C     C_3   0.554615 0.186965 0.781613 0.173511
C58   C     C_3   0.462626 0.267211 0.764240 0.178121
C59   C     C_1   0.624410 0.164991 0.658555 0.308989
C60   C     C_1   0.646636 0.345282 0.833215 0.363017
H8    H     H_    0.961725 0.231635 0.711750 0.220744
N1    N     N_R   0.345870 0.614788 0.318391 0.297200
O21   O     O_R   0.419353 0.603223 0.381102 -0.183751
O22   O     O_R   0.379938 0.565248 0.287496 -0.313868
Cl1   Cl    Cl    0.975124 0.000550 0.821600 -0.387453
N2    N     N_R   0.152103 0.967735 0.701429 0.246345
O23   O     O_R   0.337169 0.976298 0.695340 -0.370559
O24   O     O_R   0.041029 0.027303 0.669665 -0.361387
Cl2   Cl    Cl    0.993452 0.767592 0.548996 -0.564001
N3    N     N_R   0.278605 0.647194 0.549663 0.309267
O25   O     O_R   0.232569 0.583585 0.538878 -0.173294
O26   O     O_R   0.344558 0.706460 0.497024 -0.296266
Cl3   Cl    Cl    0.204261 0.505711 0.816470 -0.550455
Cl4   Cl    Cl    0.718206 0.349085 0.471982 -0.485889
N4    N     N_R   0.421562 0.008815 0.194191 0.274164
O27   O     O_R   0.394549 0.994342 0.136130 -0.279618
O28   O     O_R   0.387303 0.953933 0.254989 -0.390329
N5    N     N_R   0.607334 0.272507 0.053477 0.195429
O29   O     O_R   0.473048 0.283436 0.005194 -0.380136
O30   O     O_R   0.785688 0.281147 0.033924 -0.378896
N6    N     N_R   0.955448 0.659046 0.377271 0.304314
O31   O     O_R   0.018861 0.589402 0.414107 -0.186745
O32   O     O_R   0.815939 0.688034 0.401959 -0.222919
N7    N     N_R   0.829310 0.455181 0.200179 0.236100
O33   O     O_R   0.745289 0.522891 0.172509 -0.372429
O34   O     O_R   0.011472 0.448844 0.190115 -0.388279
N8    N     N_R   0.817492 0.477181 0.330395 0.288115
O35   O     O_R   0.724643 0.508707 0.368530 -0.199302
O36   O     O_R   0.978262 0.508513 0.301747 -0.302697
Cl5   Cl    Cl    0.821151 0.415669 0.659435 -0.348114
N9    N     N_R   0.275346 0.282369 0.787071 0.269717
O37   O     O_R   0.169233 0.337213 0.743211 -0.302789
O38   O     O_R   0.239905 0.258041 0.854729 -0.259986
N10   N     N_R   0.462639 0.113009 0.822186 0.295333
O39   O     O_R   0.408185 0.099439 0.886955 -0.210795
O40   O     O_R   0.441071 0.059134 0.795042 -0.283236
Cl6   Cl    Cl    0.870389 0.163815 0.884278 -0.335492
Cl7   Cl    Cl    0.541638 0.791618 0.286325 -0.471401
Cl8   Cl    Cl    0.896935 0.901296 0.174595 -0.417405
Cl9   Cl    Cl    0.395110 0.506781 0.679567 -0.409791
N11   N     N_R   0.941491 0.845113 0.947536 0.270199
O41   O     O_R   0.013434 0.899044 0.968231 -0.231919
O42   O     O_R   0.840590 0.789500 0.992273 -0.377836

loop_
_geom_bond_atom_site_label_1
_geom_bond_atom_site_label_2
_geom_bond_distance
_ccdc_geom_bond_type
C2    C52   1.449781 S    
C28   N3    1.439108 S    
N3    O25   1.300745 A    
C56   C60   1.481310 S    
O18   C47   1.300904 A    
C21   C22   1.424208 A    
C6    C14   1.535654 S    
C18   N11   1.440121 S    
C1    O6    1.307605 A    
C49   C56   1.544533 S    
N2    O23   1.299770 A    
C30   Cl3   1.772200 S    
C45   O16   1.300868 A    
C38   C39   1.426687 A    
C49   Cl5   1.781742 S    
C23   C24   1.434795 A    
O13   C48   1.305583 A    
C1    C37   1.515327 S    
C21   C23   1.432575 A    
C53   C55   1.558747 S    
O14   V3    2.019622 S    
N5    O30   1.300608 A    
O5    C3    1.298040 A    
C49   C53   1.557338 S    
C55   C57   1.535132 S    
C54   C57   1.539921 S    
C58   N9    1.451621 S    
O15   C47   1.301423 A    
V2    O10   2.175527 S    
C20   N2    1.430102 S    
C41   C42   1.416208 A    
C20   C21   1.431933 A    
C27   C28   1.398698 A    
C50   C58   1.547550 S    
N8    O35   1.299334 A    
V3    O20   1.705396 S    
C31   C32   1.390678 A    
O8    V2    2.005470 S    
C17   C18   1.394159 A    
N11   O41   1.301132 A    
N7    O34   1.300429 A    
C10   C13   1.552515 S    
C35   C37   1.446194 A    
C11   C12   1.545421 S    
O1    V2    1.966340 S    
C7    C15   1.213994 T    
O7    V1    2.152496 S    
O12   V3    1.978213 S    
N1    O22   1.300178 A    
O1    C2    1.305442 A    
O9    C4    1.300903 A    
O16   V4    1.983392 S    
N6    O32   1.299693 A    
N6    O31   1.299419 A    
N2    O24   1.299977 A    
C5    C6    1.530388 S    
C39   C44   1.411637 A    
C13   H1    1.110101 S    
C5    C12   1.536301 S    
C55   Cl6   1.780108 S    
O11   C46   1.299008 A    
C22   C26   1.421630 A    
C53   C54   1.550996 S    
C24   C27   1.421085 A    
C25   C26   1.429808 A    
O4    C2    1.296172 A    
C55   C56   1.545620 S    
C8    C16   1.214200 T    
C13   C14   1.553587 S    
V4    O20   2.175609 S    
C31   C36   1.416414 A    
C5    C9    1.550521 S    
C11   Cl8   1.781018 S    
O14   C46   1.295489 A    
O12   C45   1.297550 A    
C3    C26   1.490690 S    
O2    C1    1.306300 A    
O19   C48   1.305149 A    
C50   C54   1.556245 S    
C45   C51   1.448684 S    
C32   C33   1.382989 A    
O15   V3    1.971941 S    
C32   N4    1.437780 S    
C35   C36   1.430412 A    
C27   Cl2   1.759343 S    
C8    C47   1.450127 S    
N1    O21   1.300298 A    
O19   V4    2.005436 S    
C40   C46   1.487298 S    
C14   Cl7   1.773571 S    
N11   O42   1.301670 A    
C33   C34   1.398203 A    
C23   C48   1.506879 S    
O6    V2    2.009550 S    
C10   C15   1.481677 S    
O9    V2    1.968818 S    
C29   C30   1.403014 A    
C17   H3    1.080777 S    
N10   O39   1.300243 A    
C28   C29   1.396313 A    
N9    O38   1.299719 A    
C5    N6    1.458477 S    
O2    V1    2.019599 S    
C19   Cl1   1.769125 S    
O17   V4    1.718400 S    
C37   C38   1.448746 A    
C34   N5    1.417139 S    
O11   V4    2.004981 S    
C38   C41   1.433150 A    
C39   C40   1.405698 A    
C44   H6    1.082181 S    
C31   H4    1.080611 S    
C6    C10   1.537706 S    
C4    C7    1.449808 S    
C12   C16   1.482489 S    
C12   C14   1.543068 S    
C50   H7    1.110192 S    
O5    V1    2.017780 S    
C54   C59   1.480752 S    
C25   C30   1.438743 A    
O3    C4    1.300818 A    
O13   V3    2.017868 S    
C52   C60   1.213133 T    
C9    H2    1.109825 S    
C51   C59   1.213517 T    
C43   Cl4   1.763880 S    
C18   C19   1.401992 A    
C9    C11   1.556502 S    
C43   C44   1.381722 A    
O17   V3    2.152477 S    
O3    V1    1.972095 S    
V1    O10   1.705323 S    
N5    O29   1.301046 A    
C42   C43   1.396065 A    
C24   C25   1.434184 A    
N4    O28   1.298337 A    
C29   Cl9   1.769245 S    
C56   C58   1.530455 S    
C41   N7    1.419196 S    
C19   C20   1.409671 A    
C36   C40   1.407988 A    
C11   C13   1.552389 S    
O7    V2    1.721935 S    
N8    O36   1.300277 A    
C57   N10   1.457615 S    
C49   C50   1.551617 S    
O4    V1    1.978233 S    
C57   C58   1.527493 S    
N3    O26   1.301501 A    
C34   C35   1.432426 A    
N4    O27   1.301739 A    
C33   H5    1.083635 S    
N10   O40   1.299708 A    
C6    N1    1.455671 S    
O18   V4    1.968775 S    
C17   C22   1.414647 A    
C53   H8    1.109881 S    
N9    O37   1.297293 A    
C9    C10   1.555089 S    
N7    O33   1.301416 A    
O8    C3    1.304564 A    
C42   N8    1.437929 S    
