data_mof_unit_pretest_1950.cif
_audit_creation_date              2013-03-05T16:25:39-0500
_audit_creation_method            fapswitch 2.2
_symmetry_space_group_name_H-M    P1
_symmetry_Int_Tables_number       1
_space_group_crystal_system       triclinic
_cell_length_a                    18.251709
_cell_length_b                    30.584467
_cell_length_c                    30.621984
_cell_angle_alpha                 90.01619
_cell_angle_beta                  90.09005
_cell_angle_gamma                 90.03756
_cell_volume                      17093.7414326

loop_
_atom_site_label
_atom_site_type_symbol
_atom_site_description
_atom_site_fract_x
_atom_site_fract_y
_atom_site_fract_z
_atom_type_partial_charge
O1    O     O_R   0.500000 0.730040 0.321660 -0.570604
O2    O     O_R   0.500000 0.730040 0.678340 -0.570451
O3    O     O_R   0.000000 0.230040 0.321660 -0.570443
O4    O     O_R   0.000000 0.230040 0.678340 -0.570445
O5    O     O_R   0.000000 0.730040 0.821660 -0.570490
O6    O     O_R   0.000000 0.730040 0.178340 -0.570631
O7    O     O_R   0.500000 0.230040 0.821660 -0.570498
O8    O     O_R   0.500000 0.230040 0.178340 -0.570521
O9    O     O_R   0.500000 0.678320 0.269940 -0.592667
O10   O     O_R   0.500000 0.678320 0.730060 -0.592715
O11   O     O_R   0.000000 0.178320 0.269940 -0.592684
O12   O     O_R   0.000000 0.178320 0.730060 -0.592735
O13   O     O_R   0.000000 0.678320 0.769940 -0.592746
O14   O     O_R   0.000000 0.678320 0.230060 -0.592632
O15   O     O_R   0.500000 0.178320 0.769940 -0.592635
O16   O     O_R   0.500000 0.178320 0.230060 -0.592678
C1    C     C_R   0.502771 0.689909 0.309959 0.960468
C2    C     C_R   0.497231 0.689910 0.690044 0.960337
C3    C     C_R   0.002770 0.189909 0.309959 0.960535
C4    C     C_R   0.997231 0.189910 0.690044 0.960365
C5    C     C_R   0.002766 0.689909 0.809959 0.960559
C6    C     C_R   0.997221 0.689909 0.190044 0.960309
C7    C     C_R   0.502787 0.189908 0.809960 0.960337
C8    C     C_R   0.497280 0.189914 0.190044 0.960815
O17   O     O_R   0.392670 0.775850 0.275850 -0.588710
O18   O     O_R   0.392670 0.775850 0.724150 -0.627416
O19   O     O_R   0.607330 0.775850 0.275850 -0.627368
O20   O     O_R   0.607330 0.775850 0.724150 -0.588490
O21   O     O_R   0.892670 0.275850 0.275850 -0.589048
O22   O     O_R   0.892670 0.275850 0.724150 -0.627405
O23   O     O_R   0.107330 0.275850 0.275850 -0.627440
O24   O     O_R   0.107330 0.275850 0.724150 -0.588442
O25   O     O_R   0.892670 0.775850 0.775850 -0.588603
O26   O     O_R   0.892670 0.775850 0.224150 -0.628134
O27   O     O_R   0.107330 0.775850 0.775850 -0.627505
O28   O     O_R   0.107330 0.775850 0.224150 -0.588945
O29   O     O_R   0.392670 0.275850 0.775850 -0.588569
O30   O     O_R   0.392670 0.275850 0.224150 -0.627361
O31   O     O_R   0.607330 0.275850 0.775850 -0.627407
O32   O     O_R   0.607330 0.275850 0.224150 -0.589030
O33   O     O_R   0.392690 0.724130 0.224130 -0.605349
O34   O     O_R   0.392690 0.724130 0.775870 -0.587423
O35   O     O_R   0.607310 0.724130 0.224130 -0.588211
O36   O     O_R   0.607310 0.724130 0.775870 -0.605905
O37   O     O_R   0.892690 0.224130 0.224130 -0.605429
O38   O     O_R   0.892690 0.224130 0.775870 -0.587465
O39   O     O_R   0.107310 0.224130 0.224130 -0.587334
O40   O     O_R   0.107310 0.224130 0.775870 -0.606044
O41   O     O_R   0.892690 0.724130 0.724130 -0.606007
O42   O     O_R   0.892690 0.724130 0.275870 -0.587159
O43   O     O_R   0.107310 0.724130 0.724130 -0.587461
O44   O     O_R   0.107310 0.724130 0.275870 -0.605760
O45   O     O_R   0.392690 0.224130 0.724130 -0.605989
O46   O     O_R   0.392690 0.224130 0.275870 -0.587405
O47   O     O_R   0.607310 0.224130 0.724130 -0.587479
O48   O     O_R   0.607310 0.224130 0.275870 -0.605700
C9    C     C_R   0.358969 0.749939 0.249999 0.939831
C10   C     C_R   0.358976 0.750008 0.750017 0.919153
C11   C     C_R   0.641031 0.750017 0.249998 0.916406
C12   C     C_R   0.641024 0.749939 0.749977 0.940282
C13   C     C_R   0.858969 0.249938 0.250000 0.939581
C14   C     C_R   0.858976 0.250008 0.750017 0.919185
C15   C     C_R   0.141031 0.250011 0.250004 0.919564
C16   C     C_R   0.141024 0.249939 0.749977 0.940306
C17   C     C_R   0.858969 0.749935 0.750003 0.940544
C18   C     C_R   0.858976 0.750009 0.250016 0.919343
C19   C     C_R   0.141031 0.750012 0.750003 0.919372
C20   C     C_R   0.141024 0.749939 0.249977 0.940394
C21   C     C_R   0.358969 0.249935 0.750003 0.940411
C22   C     C_R   0.358976 0.250007 0.250016 0.919441
C23   C     C_R   0.641031 0.250012 0.750003 0.919216
C24   C     C_R   0.641024 0.249939 0.249977 0.940210
Zn1   Zn    Zn3+2 0.500000 0.784520 0.284530 1.093075
Zn2   Zn    Zn3+2 0.500000 0.784520 0.715470 1.090169
Zn3   Zn    Zn3+2 0.000000 0.284520 0.284530 1.089322
Zn4   Zn    Zn3+2 0.000000 0.284520 0.715470 1.090142
Zn5   Zn    Zn3+2 1.000000 0.784520 0.784530 1.089930
Zn6   Zn    Zn3+2 0.000000 0.784520 0.215470 1.088931
Zn7   Zn    Zn3+2 0.500000 0.284520 0.784530 1.090235
Zn8   Zn    Zn3+2 0.500000 0.284520 0.215470 1.089582
Zn9   Zn    Zn3+2 0.500000 0.715450 0.215460 1.097198
Zn10  Zn    Zn3+2 0.500000 0.715450 0.784540 1.097466
Zn11  Zn    Zn3+2 0.000000 0.215450 0.215460 1.098242
Zn12  Zn    Zn3+2 0.000000 0.215450 0.784540 1.097261
Zn13  Zn    Zn3+2 0.000000 0.715450 0.715460 1.097274
Zn14  Zn    Zn3+2 0.000000 0.715450 0.284540 1.097478
Zn15  Zn    Zn3+2 0.500000 0.215450 0.715460 1.097393
Zn16  Zn    Zn3+2 0.500000 0.215450 0.284540 1.097746
O49   O     O_R   0.500000 0.821650 0.230050 -0.621838
O50   O     O_R   0.500000 0.821650 0.769950 -0.626606
O51   O     O_R   0.000000 0.321650 0.230050 -0.627378
O52   O     O_R   0.000000 0.321650 0.769950 -0.626606
O53   O     O_R   0.000000 0.821650 0.730050 -0.626621
O54   O     O_R   0.000000 0.821650 0.269950 -0.626573
O55   O     O_R   0.500000 0.321650 0.730050 -0.626577
O56   O     O_R   0.500000 0.321650 0.269950 -0.626858
O57   O     O_R   0.500000 0.769930 0.178330 -0.597388
O58   O     O_R   0.500000 0.769930 0.821670 -0.597218
O59   O     O_R   0.000000 0.269930 0.178330 -0.596460
O60   O     O_R   0.000000 0.269930 0.821670 -0.597234
O61   O     O_R   0.000000 0.769930 0.678330 -0.597328
O62   O     O_R   0.000000 0.769930 0.321670 -0.597180
O63   O     O_R   0.500000 0.269930 0.678330 -0.597330
O64   O     O_R   0.500000 0.269930 0.321670 -0.597033
C25   C     C_R   0.499416 0.809871 0.190110 0.902806
C26   C     C_R   0.501211 0.809914 0.810003 0.903998
C27   C     C_R   0.998662 0.309922 0.189987 0.903562
C28   C     C_R   0.001208 0.309914 0.810003 0.904042
C29   C     C_R   0.998788 0.809916 0.689994 0.904175
C30   C     C_R   0.001214 0.809914 0.310003 0.904192
C31   C     C_R   0.498790 0.309916 0.689994 0.904160
C32   C     C_R   0.501239 0.309915 0.310005 0.903852
C33   C     C_1   0.282419 0.749896 0.249968 -0.086949
C34   C     C_1   0.282426 0.750035 0.750027 -0.127976
C35   C     C_1   0.717580 0.750048 0.250026 -0.129214
C36   C     C_1   0.717574 0.749899 0.749971 -0.086039
C37   C     C_1   0.782419 0.249895 0.249968 -0.086907
C38   C     C_1   0.782426 0.250036 0.750027 -0.128017
C39   C     C_1   0.217580 0.250040 0.250033 -0.127869
C40   C     C_1   0.217574 0.249899 0.749970 -0.086170
C41   C     C_1   0.782419 0.749893 0.749971 -0.086151
C42   C     C_1   0.782426 0.750040 0.250023 -0.128850
C43   C     C_1   0.217580 0.750041 0.750032 -0.128058
C44   C     C_1   0.217574 0.749899 0.249969 -0.086716
C45   C     C_1   0.282419 0.249893 0.749970 -0.086330
C46   C     C_1   0.282426 0.250034 0.250027 -0.127686
C47   C     C_1   0.717580 0.250041 0.750032 -0.128121
C48   C     C_1   0.717574 0.249899 0.249970 -0.086433
C49   C     C_R   0.450426 0.655753 0.373952 -0.048275
C50   C     C_R   0.549680 0.655745 0.626108 -0.048318
C51   C     C_R   0.950416 0.155748 0.373947 -0.048128
C52   C     C_R   0.049675 0.155748 0.626105 -0.048313
C53   C     C_R   0.950377 0.655726 0.873923 -0.048108
C54   C     C_R   0.049608 0.655785 0.126066 -0.048139
C55   C     C_R   0.450583 0.155840 0.874045 -0.047991
C56   C     C_R   0.549966 0.155593 0.126270 -0.048474
C57   C     C_R   0.504717 0.656236 0.342210 -0.222778
C58   C     C_R   0.495301 0.656232 0.657794 -0.222661
C59   C     C_R   0.004716 0.156237 0.342210 -0.222827
C60   C     C_R   0.995300 0.156232 0.657794 -0.222664
C61   C     C_R   0.004712 0.656237 0.842209 -0.222745
C62   C     C_R   0.995296 0.656228 0.157794 -0.222836
C63   C     C_R   0.504734 0.156235 0.842215 -0.222971
C64   C     C_R   0.495328 0.156251 0.157791 -0.222415
C65   C     C_R   0.551621 0.619817 0.337393 0.343236
C66   C     C_R   0.448353 0.619799 0.662591 0.343072
C67   C     C_R   0.051633 0.119823 0.337398 0.343085
C68   C     C_R   0.948358 0.119797 0.662593 0.343078
C69   C     C_R   0.051668 0.619840 0.837411 0.343066
C70   C     C_R   0.948437 0.619757 0.162624 0.343225
C71   C     C_R   0.551495 0.119755 0.837347 0.343285
C72   C     C_R   0.448027 0.119972 0.162459 0.341588
C73   C     C_R   0.548565 0.585892 0.368171 0.206746
C74   C     C_R   0.451444 0.585854 0.631827 0.206898
C75   C     C_R   0.048579 0.085898 0.368176 0.206887
C76   C     C_R   0.951449 0.085852 0.631829 0.206897
C77   C     C_R   0.048618 0.585913 0.868187 0.206945
C78   C     C_R   0.951543 0.585814 0.131858 0.206394
C79   C     C_R   0.548427 0.085841 0.868135 0.206773
C80   C     C_R   0.451052 0.086018 0.131703 0.209866
C81   C     C_R   0.498946 0.589320 0.403293 -0.200824
C82   C     C_R   0.501134 0.589286 0.596741 -0.200915
C83   C     C_R   0.998947 0.089320 0.403292 -0.200902
C84   C     C_R   0.001134 0.089287 0.596741 -0.200907
C85   C     C_R   0.998948 0.589316 0.903286 -0.200941
C86   C     C_R   0.001145 0.589289 0.096734 -0.200740
C87   C     C_R   0.498947 0.089337 0.903316 -0.200700
C88   C     C_R   0.501089 0.089277 0.096766 -0.201354
C89   C     C_R   0.446542 0.622269 0.403445 -0.025841
C90   C     C_R   0.553591 0.622244 0.596625 -0.025853
C91   C     C_R   0.946534 0.122264 0.403439 -0.025809
C92   C     C_R   0.053587 0.122247 0.596621 -0.025849
C93   C     C_R   0.946497 0.622239 0.903412 -0.025732
C94   C     C_R   0.053528 0.622288 0.096578 -0.025905
C95   C     C_R   0.446687 0.122365 0.903549 -0.025960
C96   C     C_R   0.553829 0.122077 0.096802 -0.026117
C97   C     C_3   0.421361 0.651208 0.439713 -0.467513
C98   C     C_3   0.578902 0.651164 0.560374 -0.467517
C99   C     C_3   0.921333 0.151200 0.439705 -0.467499
C100  C     C_3   0.078887 0.151168 0.560369 -0.467516
C101  C     C_3   0.921214 0.651164 0.939666 -0.467587
C102  C     C_3   0.078693 0.651228 0.060308 -0.467443
C103  C     C_3   0.421828 0.151347 0.939861 -0.467969
C104  C     C_3   0.579686 0.150919 0.060624 -0.467220
C105  C     C_3   0.427468 0.688817 0.407376 0.717269
C106  C     C_3   0.572766 0.688794 0.592700 0.717265
C107  C     C_3   0.927437 0.188810 0.407368 0.717268
C108  C     C_3   0.072750 0.188798 0.592696 0.717267
C109  C     C_3   0.927315 0.688777 0.907333 0.717193
C110  C     C_3   0.072544 0.688852 0.092640 0.717383
C111  C     C_3   0.427950 0.188943 0.907511 0.717536
C112  C     C_3   0.573614 0.188569 0.092931 0.716879
H1    H     H_    0.364261 0.643531 0.449705 0.228527
H2    H     H_    0.539014 0.652520 0.532950 0.198123
H3    H     H_    0.461319 0.652595 0.467102 0.198220
H4    H     H_    0.636016 0.643497 0.550434 0.228515
H5    H     H_    0.864232 0.143517 0.449691 0.228565
H6    H     H_    0.038994 0.152522 0.532947 0.198127
H7    H     H_    0.961283 0.152592 0.467098 0.198220
H8    H     H_    0.136001 0.143505 0.550426 0.228527
H9    H     H_    0.864110 0.643457 0.949626 0.228483
H10   H     H_    0.038740 0.652552 0.032916 0.198092
H11   H     H_    0.961127 0.652573 0.967077 0.198215
H12   H     H_    0.135801 0.643607 0.050322 0.228609
H13   H     H_    0.364743 0.143767 0.949957 0.228549
H14   H     H_    0.540035 0.152396 0.033082 0.198128
H15   H     H_    0.461932 0.152668 0.967180 0.198311
H16   H     H_    0.636815 0.143076 0.050850 0.228573
C113  C     C_R   0.553649 0.871874 0.153672 0.078235
C114  C     C_R   0.439237 0.866616 0.850489 0.059513
C115  C     C_R   0.059980 0.367559 0.150348 0.059533
C116  C     C_R   0.939220 0.366594 0.850510 0.059650
C117  C     C_R   0.060776 0.866607 0.649442 0.059682
C118  C     C_R   0.939259 0.866644 0.350462 0.059487
C119  C     C_R   0.560788 0.366592 0.649428 0.059676
C120  C     C_R   0.439403 0.366820 0.350295 0.059621
C121  C     C_R   0.496794 0.842345 0.157378 -0.148774
C122  C     C_R   0.502163 0.842085 0.843431 -0.144427
C123  C     C_R   0.997744 0.342111 0.156552 -0.145944
C124  C     C_R   0.002161 0.342085 0.843431 -0.144576
C125  C     C_R   0.997811 0.842088 0.656570 -0.144645
C126  C     C_R   0.002164 0.842086 0.343432 -0.144724
C127  C     C_R   0.497812 0.342088 0.656570 -0.144613
C128  C     C_R   0.502178 0.342090 0.343436 -0.144876
C129  C     C_R   0.437985 0.844809 0.127491 0.253151
C130  C     C_R   0.561177 0.844640 0.872934 0.254013
C131  C     C_R   0.939652 0.343942 0.126327 0.254692
C132  C     C_R   0.061196 0.344654 0.872917 0.253918
C133  C     C_R   0.938690 0.844675 0.627149 0.253870
C134  C     C_R   0.061147 0.844616 0.372960 0.253929
C135  C     C_R   0.438676 0.344686 0.627162 0.253872
C136  C     C_R   0.560972 0.344478 0.373114 0.254033
C137  C     C_R   0.438942 0.877198 0.095132 -0.206087
C138  C     C_R   0.559825 0.876371 0.905526 -0.204282
C139  C     C_R   0.941025 0.375725 0.093793 -0.205152
C140  C     C_R   0.059845 0.376383 0.905512 -0.203675
C141  C     C_R   0.940013 0.876416 0.594573 -0.203595
C142  C     C_R   0.059794 0.876348 0.405552 -0.203761
C143  C     C_R   0.439998 0.376427 0.594585 -0.203574
C144  C     C_R   0.559608 0.376218 0.405699 -0.204140
H17   H     H_    0.393581 0.879414 0.072377 0.202274
H18   H     H_    0.606619 0.879903 0.927055 0.202537
H19   H     H_    0.894893 0.378673 0.071675 0.202088
H20   H     H_    0.106653 0.379928 0.927028 0.203085
H21   H     H_    0.893152 0.879963 0.573106 0.203080
H22   H     H_    0.106565 0.879861 0.427102 0.203005
H23   H     H_    0.393127 0.379983 0.573129 0.203087
H24   H     H_    0.606247 0.379619 0.427370 0.202796
C145  C     C_R   0.498794 0.906235 0.092220 -0.148897
C146  C     C_R   0.499460 0.904562 0.908890 -0.152337
C147  C     C_R   0.000530 0.404676 0.091184 -0.151050
C148  C     C_R   0.999460 0.404558 0.908894 -0.152889
C149  C     C_R   0.000457 0.904585 0.591136 -0.152917
C150  C     C_R   0.999456 0.904563 0.408891 -0.152735
C151  C     C_R   0.500456 0.404584 0.591135 -0.152940
C152  C     C_R   0.499443 0.404579 0.408883 -0.152410
C153  C     C_R   0.555262 0.902032 0.122019 0.139245
C154  C     C_R   0.437762 0.897472 0.883025 0.153282
C155  C     C_R   0.061526 0.398430 0.117835 0.152866
C156  C     C_R   0.937746 0.397449 0.883047 0.153389
C157  C     C_R   0.062223 0.897468 0.616923 0.153493
C158  C     C_R   0.937780 0.897500 0.382999 0.153345
C159  C     C_R   0.562233 0.397453 0.616909 0.153481
C160  C     C_R   0.437905 0.397677 0.382831 0.153267
C161  C     C_3   0.626848 0.920497 0.136471 -0.421531
C162  C     C_3   0.395679 0.929102 0.855579 -0.435912
C163  C     C_3   0.101322 0.430670 0.145851 -0.438539
C164  C     C_3   0.895608 0.429066 0.855615 -0.435986
C165  C     C_3   0.104512 0.929079 0.644336 -0.435860
C166  C     C_3   0.895768 0.929149 0.355534 -0.436275
C167  C     C_3   0.604560 0.429053 0.644311 -0.435829
C168  C     C_3   0.396350 0.429445 0.355254 -0.436704
C169  C     C_3   0.625286 0.885460 0.172619 -0.478022
C170  C     C_3   0.397415 0.894975 0.819587 -0.462725
C171  C     C_3   0.099494 0.396539 0.181816 -0.458918
C172  C     C_3   0.897343 0.394940 0.819622 -0.462816
C173  C     C_3   0.102808 0.894947 0.680306 -0.463065
C174  C     C_3   0.897508 0.895023 0.319542 -0.462086
C175  C     C_3   0.602858 0.394922 0.680282 -0.463096
C176  C     C_3   0.398114 0.395320 0.319262 -0.461924
H25   H     H_    0.670821 0.915315 0.111939 0.217677
H26   H     H_    0.427597 0.959085 0.847743 0.215768
H27   H     H_    0.621458 0.954463 0.148996 0.212238
H28   H     H_    0.339768 0.935049 0.868627 0.215475
H29   H     H_    0.157497 0.437420 0.133577 0.215378
H30   H     H_    0.927492 0.459059 0.847769 0.215588
H31   H     H_    0.067961 0.460192 0.153239 0.216630
H32   H     H_    0.839704 0.434995 0.868681 0.215566
H33   H     H_    0.160391 0.935009 0.631216 0.215569
H34   H     H_    0.927733 0.959119 0.347713 0.215678
H35   H     H_    0.072718 0.959071 0.652238 0.215566
H36   H     H_    0.839847 0.935120 0.368557 0.215588
H37   H     H_    0.660433 0.434971 0.631179 0.215554
H38   H     H_    0.428605 0.459330 0.347527 0.215844
H39   H     H_    0.572791 0.459053 0.652221 0.215564
H40   H     H_    0.340371 0.435566 0.368121 0.215484
H41   H     H_    0.668002 0.859852 0.168802 0.207524
H42   H     H_    0.430367 0.905093 0.790785 0.231213
H43   H     H_    0.619449 0.899185 0.206047 0.222684
H44   H     H_    0.342508 0.881236 0.811844 0.207051
H45   H     H_    0.154613 0.383608 0.190328 0.206611
H46   H     H_    0.930260 0.405069 0.790809 0.231146
H47   H     H_    0.065032 0.406196 0.210151 0.231625
H48   H     H_    0.842442 0.381184 0.811896 0.207104
H49   H     H_    0.157701 0.881188 0.687964 0.207124
H50   H     H_    0.930511 0.905128 0.290754 0.231249
H51   H     H_    0.069998 0.905071 0.709162 0.231091
H52   H     H_    0.842594 0.881308 0.311773 0.207250
H53   H     H_    0.657746 0.381150 0.687926 0.207131
H54   H     H_    0.431423 0.405342 0.290569 0.231267
H55   H     H_    0.570074 0.405053 0.709145 0.231107
H56   H     H_    0.343155 0.381757 0.311336 0.206918
O65   O     O_R   0.439370 0.954170 0.954170 -0.627130
O66   O     O_R   0.439370 0.954170 0.045830 -0.603575
O67   O     O_R   0.560630 0.954170 0.954170 -0.602991
O68   O     O_R   0.560630 0.954170 0.045830 -0.630408
O69   O     O_R   0.939370 0.454170 0.954170 -0.626911
O70   O     O_R   0.939370 0.454170 0.045830 -0.602017
O71   O     O_R   0.060630 0.454170 0.954170 -0.602427
O72   O     O_R   0.060630 0.454170 0.045830 -0.626576
O73   O     O_R   0.939370 0.954170 0.454170 -0.626807
O74   O     O_R   0.939370 0.954170 0.545830 -0.602447
O75   O     O_R   0.060630 0.954170 0.454170 -0.602424
O76   O     O_R   0.060630 0.954170 0.545830 -0.626845
O77   O     O_R   0.439370 0.454170 0.454170 -0.626781
O78   O     O_R   0.439370 0.454170 0.545830 -0.602454
O79   O     O_R   0.560630 0.454170 0.454170 -0.602377
O80   O     O_R   0.560630 0.454170 0.545830 -0.626873
C177  C     C_R   0.499937 0.939632 0.939846 0.904048
C178  C     C_R   0.499886 0.939700 0.060009 0.910389
C179  C     C_R   0.999937 0.439629 0.939848 0.904400
C180  C     C_R   0.000042 0.439661 0.060167 0.904066
C181  C     C_R   0.999937 0.939631 0.439847 0.904524
C182  C     C_R   0.000034 0.939636 0.560159 0.904410
C183  C     C_R   0.499935 0.439636 0.439846 0.904486
C184  C     C_R   0.500034 0.439636 0.560159 0.904419
O81   O     O_R   0.439410 0.545780 0.454170 -0.620864
O82   O     O_R   0.439410 0.545780 0.545830 -0.584851
O83   O     O_R   0.560590 0.545780 0.454170 -0.584826
O84   O     O_R   0.560590 0.545780 0.545830 -0.620908
O85   O     O_R   0.939410 0.045780 0.454170 -0.620830
O86   O     O_R   0.939410 0.045780 0.545830 -0.584839
O87   O     O_R   0.060590 0.045780 0.454170 -0.584835
O88   O     O_R   0.060590 0.045780 0.545830 -0.620902
O89   O     O_R   0.939410 0.545780 0.954170 -0.620882
O90   O     O_R   0.939410 0.545780 0.045830 -0.584831
O91   O     O_R   0.060590 0.545780 0.954170 -0.584824
O92   O     O_R   0.060590 0.545780 0.045830 -0.620895
O93   O     O_R   0.439410 0.045780 0.954170 -0.620796
O94   O     O_R   0.439410 0.045780 0.045830 -0.585514
O95   O     O_R   0.560590 0.045780 0.954170 -0.584858
O96   O     O_R   0.560590 0.045780 0.045830 -0.620649
C185  C     C_R   0.499912 0.559106 0.438837 0.937078
C186  C     C_R   0.500115 0.559095 0.561173 0.937183
C187  C     C_R   0.999913 0.059106 0.438837 0.937066
C188  C     C_R   0.000115 0.059096 0.561173 0.937157
C189  C     C_R   0.999913 0.559105 0.938835 0.937047
C190  C     C_R   0.000117 0.559097 0.061170 0.936979
C191  C     C_R   0.499912 0.059112 0.938845 0.937522
C192  C     C_R   0.500106 0.059089 0.061184 0.938996
Zn17  Zn    Zn3+2 0.419100 0.999980 0.000000 1.044037
Zn18  Zn    Zn3+2 0.580900 0.999980 0.000000 1.041330
Zn19  Zn    Zn3+2 0.919100 0.499980 0.000000 1.044286
Zn20  Zn    Zn3+2 0.080900 0.499980 0.000000 1.044551
Zn21  Zn    Zn3+2 0.919100 0.999980 0.500000 1.044340
Zn22  Zn    Zn3+2 0.080900 0.999980 0.500000 1.044275
Zn23  Zn    Zn3+2 0.419100 0.499980 0.500000 1.044260
Zn24  Zn    Zn3+2 0.580900 0.499980 0.500000 1.044136
Cl1   Cl    Cl    0.618332 0.618273 0.295524 -0.468544
Cl2   Cl    Cl    0.381553 0.618263 0.704411 -0.468604
Cl3   Cl    Cl    0.118353 0.118287 0.295534 -0.468510
Cl4   Cl    Cl    0.881562 0.118258 0.704415 -0.468698
Cl5   Cl    Cl    0.118425 0.618329 0.795567 -0.468676
Cl6   Cl    Cl    0.881715 0.618165 0.204485 -0.468832
Cl7   Cl    Cl    0.618067 0.118118 0.795403 -0.468490
Cl8   Cl    Cl    0.380916 0.118662 0.204111 -0.468592
Br1   Br    Br    0.611342 0.535508 0.361629 -0.359347
Br2   Br    Br    0.388602 0.535448 0.638333 -0.358781
Br3   Br    Br    0.111379 0.035523 0.361641 -0.358628
Br4   Br    Br    0.888614 0.035443 0.638336 -0.358778
Br5   Br    Br    0.111474 0.535560 0.861668 -0.358715
Br6   Br    Br    0.888852 0.535348 0.138408 -0.360347
Br7   Br    Br    0.611009 0.035378 0.861536 -0.359221
Br8   Br    Br    0.387607 0.035856 0.138031 -0.350977
Cl9   Cl    Cl    0.341949 0.713815 0.394193 -0.503515
Cl10  Cl    Cl    0.503246 0.727287 0.577943 -0.489173
Cl11  Cl    Cl    0.497076 0.727341 0.422065 -0.489090
Cl12  Cl    Cl    0.658285 0.713827 0.605957 -0.503644
Cl13  Cl    Cl    0.841914 0.213798 0.394175 -0.503424
Cl14  Cl    Cl    0.003223 0.227287 0.577943 -0.489226
Cl15  Cl    Cl    0.997029 0.227342 0.422064 -0.489254
Cl16  Cl    Cl    0.158267 0.213835 0.605947 -0.503637
Cl17  Cl    Cl    0.841781 0.713729 0.894101 -0.504128
Cl18  Cl    Cl    0.002906 0.727290 0.077939 -0.490437
Cl19  Cl    Cl    0.996842 0.727339 0.922061 -0.489508
Cl20  Cl    Cl    0.158037 0.713953 0.105827 -0.502945
Cl21  Cl    Cl    0.342484 0.214084 0.894482 -0.503349
Cl22  Cl    Cl    0.504556 0.227278 0.077969 -0.489071
Cl23  Cl    Cl    0.497814 0.227351 0.922073 -0.489266
Cl24  Cl    Cl    0.659240 0.213336 0.106439 -0.503712
Br9   Br    Br    0.355041 0.806290 0.130613 -0.395331
Br10  Br    Br    0.646899 0.808682 0.867352 -0.399985
Br11  Br    Br    0.854899 0.306943 0.130829 -0.397389
Br12  Br    Br    0.146941 0.308719 0.867310 -0.399556
Br13  Br    Br    0.852894 0.808731 0.632816 -0.399366
Br14  Br    Br    0.146839 0.808625 0.367415 -0.399209
Br15  Br    Br    0.352865 0.308759 0.632847 -0.399370
Br16  Br    Br    0.646475 0.308290 0.367786 -0.399205

loop_
_geom_bond_atom_site_label_1
_geom_bond_atom_site_label_2
_geom_bond_distance
_ccdc_geom_bond_type
O65   Zn17  2.017580 S    
O94   Zn17  2.016354 S    
C115  C155  1.372629 A    
O29   C21   1.276904 A    
C135  Br15  1.920784 S    
O45   C21   1.277192 A    
C138  C146  1.403366 A    
C161  H25   1.111579 S    
C101  H11   1.111358 S    
C163  C171  1.518015 S    
C97   H1    1.111570 S    
O38   C14   1.277216 A    
O7    Zn7   2.017471 S    
C49   C105  1.499031 S    
C162  H28   1.111556 S    
C149  C182  1.431633 S    
O12   Zn12  2.017842 S    
C111  Cl23  1.789041 S    
C118  C126  1.389426 A    
O81   Zn23  2.017718 S    
O95   C191  1.269666 A    
O48   C24   1.277366 A    
C18   C42   1.397162 S    
C134  C142  1.392168 A    
O3    C3    1.279565 A    
C77   Br5   1.931432 S    
O86   C188  1.269588 A    
C139  H19   1.083598 S    
O57   C25   1.273691 A    
C22   C46   1.397159 S    
C167  C175  1.518123 S    
C164  H32   1.111560 S    
C32   C128  1.419852 S    
C7    C63   1.427588 S    
C134  Br14  1.920859 S    
C173  H49   1.111627 S    
O87   C187  1.269693 A    
O76   C182  1.270559 A    
C16   C40   1.397165 S    
O16   Zn16  2.017842 S    
C86   C94   1.389765 A    
C144  C152  1.403329 A    
C36   C41   1.183530 T    
O78   C184  1.270945 A    
Zn12  O60   2.016937 S    
O51   C27   1.278254 A    
O86   Zn21  2.016354 S    
C153  C161  1.489606 S    
C40   C45   1.183529 T    
C116  C124  1.389398 A    
O10   Zn10  2.017842 S    
C73   C81   1.411017 A    
C120  C128  1.389509 A    
O22   Zn4   1.994862 S    
C113  C153  1.338550 A    
O46   C22   1.277211 A    
C51   C91   1.367503 A    
O12   C4    1.276648 A    
O72   C180  1.270254 A    
C141  H21   1.083410 S    
O24   C16   1.277173 A    
C100  C108  1.522116 S    
C106  Cl10  1.789038 S    
Zn15  O63   2.017468 S    
C107  Cl15  1.789042 S    
C56   C112  1.499025 S    
C25   C121  1.412033 S    
C152  C160  1.392577 A    
C143  C151  1.403419 A    
C163  H29   1.111776 S    
C72   Cl8   1.770206 S    
C114  C154  1.372429 A    
C133  C141  1.392378 A    
C50   C58   1.389170 A    
C29   C125  1.420071 S    
C161  H27   1.111748 S    
C95   C103  1.493170 S    
C149  C157  1.392635 A    
C96   C104  1.493235 S    
O96   Zn18  2.017502 S    
C54   C94   1.367429 A    
C101  H9    1.111569 S    
C91   C99   1.493190 S    
C19   C43   1.397160 S    
C69   Cl5   1.770165 S    
C6    C62   1.427194 S    
O28   C20   1.277173 A    
Zn6   O54   2.017847 S    
O85   Zn21  2.017718 S    
O58   C26   1.274295 A    
C113  C121  1.380068 A    
Zn2   O50   2.017847 S    
O44   Zn14  1.994500 S    
O1    Zn1   2.017471 S    
O39   C15   1.276944 A    
C62   C70   1.413083 A    
C33   C44   1.183530 T    
C129  Br9   1.920163 S    
O10   C2    1.276649 A    
C79   C87   1.410945 A    
C80   C88   1.411236 A    
C37   C48   1.183530 T    
C100  H6    1.111369 S    
O78   Zn23  2.017319 S    
C148  C179  1.431264 S    
O33   C9    1.277185 A    
C98   C106  1.522115 S    
C39   C46   1.183553 T    
C49   C57   1.389205 A    
C3    C59   1.427488 S    
O13   Zn13  2.018373 S    
C70   Cl6   1.770168 S    
O31   C23   1.277141 A    
C1    C57   1.427499 S    
C52   C92   1.367424 A    
C130  Br10  1.920832 S    
O19   Zn1   1.995182 S    
O61   C29   1.274167 A    
C122  C130  1.406848 A    
O47   C23   1.276947 A    
C51   C107  1.499039 S    
O46   Zn16  1.994024 S    
C151  C184  1.431643 S    
C56   C96   1.367422 A    
O35   C11   1.276950 A    
C103  H15   1.111416 S    
C94   C102  1.493169 S    
C97   C105  1.522132 S    
O69   C179  1.270507 A    
C85   C189  1.428139 S    
O81   C185  1.267732 A    
C146  C177  1.431247 S    
O63   C31   1.274165 A    
O36   C12   1.277364 A    
O90   Zn19  2.016354 S    
C81   C185  1.428098 S    
C106  Cl12  1.784246 S    
O48   Zn16  1.994500 S    
C52   C108  1.499036 S    
O37   C13   1.277185 A    
C109  Cl19  1.789028 S    
O34   C10   1.277216 A    
O93   Zn17  2.017718 S    
C73   Br1   1.931424 S    
O52   C28   1.278213 A    
C167  H37   1.111550 S    
C156  C164  1.493850 S    
O3    Zn3   2.017471 S    
C157  C165  1.493856 S    
Zn3   O51   2.018375 S    
C81   C89   1.389819 A    
C162  H26   1.112535 S    
C159  C167  1.493838 S    
C65   Cl1   1.770161 S    
C168  C176  1.518080 S    
O82   C186  1.269589 A    
C136  Br16  1.920925 S    
O37   Zn11  1.994824 S    
O17   C9    1.276907 A    
C140  C148  1.403373 A    
C89   C97   1.493178 S    
Zn16  O64   2.016937 S    
O20   C12   1.277173 A    
C71   Cl7   1.770167 S    
O21   C13   1.276911 A    
O60   C28   1.274291 A    
O73   C181  1.270491 A    
O55   C31   1.278075 A    
O23   C15   1.277140 A    
C155  C163  1.494139 S    
O14   Zn14  2.017842 S    
C77   C85   1.411050 A    
O64   C32   1.274330 A    
C9    C33   1.397165 S    
C75   C83   1.411030 A    
O44   C20   1.277364 A    
C98   H4    1.111568 S    
C117  C157  1.372511 A    
C71   C79   1.403042 A    
C165  H33   1.111561 S    
C100  H8    1.111566 S    
C15   C39   1.397161 S    
C142  C150  1.403370 A    
O27   C19   1.277140 A    
O73   Zn21  2.017580 S    
C164  C172  1.518103 S    
C104  C112  1.522119 S    
C165  C173  1.518121 S    
O45   Zn15  1.994824 S    
O43   C19   1.276946 A    
C167  H39   1.112525 S    
C112  Cl22  1.789026 S    
C132  Br12  1.920833 S    
C34   C43   1.183553 T    
C161  C169  1.541119 S    
C138  H18   1.083416 S    
O39   Zn11  1.993661 S    
O96   C192  1.267886 A    
C103  H13   1.111566 S    
C84   C92   1.389786 A    
C38   C47   1.183554 T    
C154  C162  1.493842 S    
C67   C75   1.403071 A    
C87   C95   1.389770 A    
C133  Br13  1.920795 S    
C88   C96   1.389853 A    
O80   Zn24  2.017791 S    
O32   C24   1.277171 A    
O89   C189  1.267753 A    
C74   C82   1.410986 A    
O24   Zn4   1.994381 S    
C175  H55   1.112200 S    
C152  C183  1.431103 S    
C115  C123  1.389869 A    
C61   C69   1.413087 A    
O1    C1    1.279572 A    
C130  C138  1.392170 A    
O84   C186  1.267681 A    
O82   Zn23  2.016354 S    
O14   C6    1.276650 A    
O54   C30   1.278218 A    
C84   C188  1.427790 S    
C12   C36   1.397165 S    
O77   Zn23  2.017580 S    
O25   Zn5   1.994021 S    
C53   C93   1.367496 A    
C58   C66   1.413039 A    
O35   Zn9   1.993661 S    
O68   C178  1.270638 A    
O8    C8    1.279533 A    
O17   Zn1   1.994022 S    
O94   C192  1.269513 A    
O47   Zn15  1.993661 S    
C169  H41   1.111738 S    
C51   C59   1.389206 A    
C120  C160  1.372452 A    
C93   C101  1.493185 S    
C126  C134  1.406878 A    
O49   C25   1.274925 A    
C10   C34   1.397159 S    
O83   Zn24  2.017245 S    
C50   C90   1.367423 A    
O53   C29   1.278078 A    
Zn14  O62   2.016937 S    
O30   C22   1.277316 A    
Zn10  O58   2.016937 S    
O20   Zn2   1.994381 S    
C80   Br8   1.931507 S    
O79   C183  1.270787 A    
C137  C145  1.410337 A    
O87   Zn22  2.017245 S    
C98   H2    1.111369 S    
O11   C3    1.276517 A    
O84   Zn24  2.017502 S    
C102  H12   1.111559 S    
C141  C149  1.403423 A    
C165  H35   1.112535 S    
O36   Zn10  1.994500 S    
C166  H36   1.111574 S    
O40   C16   1.277364 A    
C99   C107  1.522134 S    
C150  C181  1.431230 S    
C176  H54   1.112263 S    
O6    C6    1.279736 A    
C97   H3    1.111370 S    
C104  H14   1.111416 S    
C124  C132  1.406843 A    
C143  H23   1.083405 S    
O65   C177  1.270506 A    
C2    C58   1.427134 S    
C11   C35   1.397149 S    
O90   C190  1.269605 A    
Zn13  O61   2.017468 S    
C112  Cl24  1.784250 S    
C147  C155  1.392636 A    
C117  C125  1.389401 A    
C148  C156  1.392573 A    
C52   C60   1.389170 A    
O34   Zn10  1.994024 S    
C78   Br6   1.931435 S    
C175  H53   1.111614 S    
C17   C41   1.397165 S    
C83   C91   1.389827 A    
O67   C177  1.270796 A    
O92   C190  1.267630 A    
C92   C100  1.493189 S    
C21   C45   1.397167 S    
C160  C168  1.493917 S    
Zn11  O59   2.017468 S    
C23   C47   1.397158 S    
O91   C189  1.269698 A    
C127  C135  1.406894 A    
O72   Zn20  2.017791 S    
O80   C184  1.270562 A    
C117  C173  1.493131 S    
C5    C61   1.427462 S    
O67   Zn18  2.016434 S    
C13   C37   1.397163 S    
C108  Cl14  1.789034 S    
O50   C26   1.278213 A    
O11   Zn11  2.018373 S    
C116  C156  1.372430 A    
C119  C127  1.389385 A    
O5    C5    1.279558 A    
O31   Zn7   1.995181 S    
C169  H43   1.111565 S    
Zn7   O55   2.018375 S    
C170  H44   1.111621 S    
C158  C166  1.493877 S    
O56   C32   1.278254 A    
C57   C65   1.413110 A    
O23   Zn3   1.995182 S    
C82   C90   1.389789 A    
O33   Zn9   1.994824 S    
O79   Zn24  2.016434 S    
C142  H22   1.083432 S    
C171  H45   1.111840 S    
O76   Zn22  2.017791 S    
C8    C64   1.426886 S    
O18   C10   1.277314 A    
C55   C111  1.499065 S    
C147  C180  1.430948 S    
C168  H40   1.111612 S    
C83   C187  1.428105 S    
C26   C122  1.419722 S    
O22   C14   1.277314 A    
O62   C30   1.274301 A    
C30   C126  1.419740 S    
C173  H51   1.112213 S    
C78   C86   1.410918 A    
C174  H52   1.111644 S    
C68   Cl4   1.770181 S    
C75   Br3   1.931430 S    
C70   C78   1.402914 A    
C110  Cl20  1.784240 S    
C102  H10   1.111352 S    
C118  C158  1.372435 A    
C145  C153  1.381551 A    
C166  H34   1.112552 S    
C176  H56   1.111676 S    
O59   C27   1.274335 A    
C53   C61   1.389188 A    
C104  H16   1.111569 S    
C67   Cl3   1.770164 S    
C129  C137  1.401455 A    
C166  C174  1.518100 S    
C170  H42   1.112207 S    
Zn1   O49   2.018375 S    
C56   C64   1.389106 A    
C76   C84   1.410982 A    
C54   C110  1.499039 S    
O71   C179  1.270800 A    
C162  C170  1.518102 S    
Zn5   O53   2.018375 S    
Zn9   O57   2.017468 S    
C105  Cl11  1.789036 S    
O38   Zn12  1.994024 S    
C171  H47   1.112435 S    
O69   Zn19  2.017580 S    
C14   C38   1.397157 S    
O6    Zn6   2.016940 S    
C28   C124  1.419710 S    
C64   C72   1.412825 A    
C125  C133  1.406911 A    
C144  H24   1.083466 S    
O19   C11   1.277139 A    
O43   Zn13  1.993661 S    
C68   C76   1.402916 A    
C123  C131  1.407484 A    
O71   Zn20  2.016434 S    
C69   C77   1.403075 A    
C172  H46   1.112210 S    
C90   C98   1.493192 S    
C72   C80   1.402899 A    
C87   C191  1.427970 S    
O2    C2    1.279697 A    
C108  Cl16  1.784241 S    
O75   C181  1.270799 A    
C139  C147  1.403208 A    
C60   C68   1.413038 A    
O93   C191  1.267694 A    
O25   C17   1.276904 A    
C86   C190  1.427736 S    
O29   Zn7   1.994021 S    
C59   C67   1.413107 A    
O41   C17   1.277192 A    
C24   C48   1.397165 S    
C115  C171  1.493584 S    
C49   C89   1.367506 A    
C82   C186  1.427796 S    
C145  C178  1.421797 S    
C128  C136  1.406983 A    
O7    C7    1.279599 A    
C54   C62   1.389186 A    
C85   C93   1.389835 A    
C136  C144  1.392170 A    
C119  C159  1.372506 A    
C135  C143  1.392378 A    
C105  Cl9   1.784243 S    
C137  H17   1.083457 S    
C74   Br2   1.931453 S    
C114  C170  1.493145 S    
O92   Zn20  2.017502 S    
C66   C74   1.402916 A    
O32   Zn8   1.994381 S    
Zn8   O56   2.017847 S    
O2    Zn2   2.016940 S    
C174  H50   1.112228 S    
C65   C73   1.403071 A    
C66   Cl2   1.770181 S    
O15   C7    1.276542 A    
C111  Cl21  1.784238 S    
O16   C8    1.276652 A    
C35   C42   1.183551 T    
C119  C175  1.493111 S    
C63   C71   1.413156 A    
C110  Cl18  1.789032 S    
C120  C176  1.493253 S    
O70   C180  1.270890 A    
O26   C18   1.277293 A    
C107  Cl13  1.784248 S    
C102  C110  1.522109 S    
C116  C172  1.493143 S    
O74   C182  1.270944 A    
O4    Zn4   2.016940 S    
O13   C5    1.276510 A    
O41   Zn13  1.994824 S    
C99   H7    1.111375 S    
C101  C109  1.522141 S    
C131  Br11  1.921164 S    
C31   C127  1.420064 S    
C76   Br4   1.931454 S    
C99   H5    1.111574 S    
O40   Zn12  1.994500 S    
C55   C95   1.367542 A    
O85   C187  1.267740 A    
O95   Zn18  2.017245 S    
O75   Zn22  2.016434 S    
C109  Cl17  1.784235 S    
O89   Zn19  2.017718 S    
O70   Zn19  2.017319 S    
O42   C18   1.277240 A    
C150  C158  1.392580 A    
O88   C188  1.267679 A    
Zn4   O52   2.017847 S    
C20   C44   1.397166 S    
O9    C1    1.276517 A    
C113  C169  1.488486 S    
C118  C174  1.493181 S    
O83   C185  1.269697 A    
C27   C123  1.420668 S    
O77   C183  1.270434 A    
C4    C60   1.427139 S    
O68   Zn18  2.017791 S    
O66   C178  1.266328 A    
O15   Zn15  2.018373 S    
C164  H30   1.112533 S    
O91   Zn20  2.017245 S    
C151  C159  1.392628 A    
C103  C111  1.522108 S    
C50   C106  1.499039 S    
O21   Zn3   1.994022 S    
O4    C4    1.279700 A    
C79   Br7   1.931425 S    
C88   C192  1.428037 S    
C131  C139  1.392351 A    
C114  C122  1.389402 A    
O66   Zn17  2.017319 S    
C140  H20   1.083418 S    
O88   Zn22  2.017502 S    
O28   Zn6   1.994381 S    
O26   Zn6   1.994862 S    
C121  C129  1.411523 A    
O30   Zn8   1.994862 S    
C55   C63   1.389255 A    
O18   Zn2   1.994862 S    
O74   Zn21  2.017319 S    
C132  C140  1.392172 A    
O42   Zn14  1.994024 S    
C163  H31   1.112764 S    
C172  H48   1.111625 S    
O27   Zn5   1.995181 S    
C53   C109  1.499018 S    
C168  H38   1.112591 S    
O8    Zn8   2.016940 S    
O5    Zn5   2.017471 S    
C146  C154  1.392562 A    
O9    Zn9   2.018373 S    
