data_mof_unit_pretest_270.cif
_audit_creation_date              2012-12-10T18:21:55-0500
_audit_creation_method            fapswitch 2.2
_symmetry_space_group_name_H-M    P1
_symmetry_Int_Tables_number       1
_space_group_crystal_system       triclinic
_cell_length_a                    19.268581
_cell_length_b                    10.618918
_cell_length_c                    9.459769
_cell_angle_alpha                 91.417109
_cell_angle_beta                  89.187298
_cell_angle_gamma                 91.071261
_cell_volume                      1934.46483771

loop_
_atom_site_label
_atom_site_type_symbol
_atom_type_description
_atom_site_fract_x
_atom_site_fract_y
_atom_site_fract_z
_atom_type_partial_charge
C1    C     C_R   0.499964 0.259485 0.498909 0.781424
C2    C     C_R   0.500788 0.740499 0.501094 0.811466
C3    C     C_3   0.501887 0.045584 0.633556 -0.070935
C4    C     C_3   0.499956 0.954417 0.366637 -0.060914
C5    C     C_3   0.558706 0.962966 0.564091 -0.104296
C6    C     C_3   0.443046 0.036814 0.436244 -0.139449
C7    C     C_3   0.501419 0.877577 0.501840 -0.001824
C8    C     C_3   0.500358 0.122403 0.498291 -0.014974
C9    C     C_3   0.444668 0.957753 0.571174 -0.193111
C10   C     C_3   0.557234 0.042080 0.429229 -0.188808
C11   C     C_3   0.466361 0.595105 0.055019 -0.202216
C12   C     C_3   0.533530 0.404745 0.944957 -0.177377
C13   C     C_3   0.437188 0.493814 0.950288 -0.172464
C14   C     C_3   0.562714 0.506117 0.049645 -0.165026
C15   C     C_3   0.528917 0.600297 0.954442 0.542197
C16   C     C_3   0.470977 0.399607 0.045689 0.537684
C17   C     C_R   0.367552 0.498678 0.501052 0.824099
C18   C     C_R   0.632671 0.498466 0.498720 0.821100
C19   C     C_R   0.253372 0.440698 0.615469 0.361234
C20   C     C_R   0.747626 0.467366 0.370975 0.368346
C21   C     C_R   0.181102 0.458053 0.627816 0.343564
C22   C     C_R   0.820665 0.480027 0.368852 0.305027
C23   C     C_R   0.146444 0.517145 0.517771 -0.124302
C24   C     C_R   0.855224 0.513933 0.495210 -0.145704
C25   C     C_R   0.184006 0.568028 0.404576 -0.183600
C26   C     C_R   0.817277 0.541111 0.618754 -0.176813
C27   C     C_R   0.255931 0.560487 0.398954 -0.236726
C28   C     C_R   0.745233 0.533866 0.619154 -0.196239
C29   C     C_R   0.291248 0.498540 0.504455 -0.190795
C30   C     C_R   0.709413 0.498741 0.495857 -0.209587
C31   C     C_R   0.930845 0.515541 0.503130 0.493222
C32   C     C_R   0.070770 0.517566 0.512951 0.520789
Cu1   Cu    Cu3+1 0.500020 0.499990 0.643150 1.019158
Cu2   Cu    Cu3+1 0.499980 0.500010 0.356850 1.011871
H1    H     H_    0.157418 0.613420 0.320026 0.193814
H2    H     H_    0.843689 0.566862 0.715958 0.206994
H3    H     H_    0.284075 0.603792 0.312319 0.182244
H4    H     H_    0.717574 0.556455 0.716617 0.226386
H5    H     H_    0.606129 0.930454 0.616276 0.194681
H6    H     H_    0.395700 0.069526 0.383979 0.196077
H7    H     H_    0.502494 0.085826 0.743033 0.195480
H8    H     H_    0.499342 0.914753 0.256907 0.179422
H9    H     H_    0.399875 0.917291 0.630189 0.160122
H10   H     H_    0.603777 0.078492 0.372499 0.136530
H11   H     H_    0.384313 0.487293 0.905380 0.205059
H12   H     H_    0.615466 0.515072 0.094241 0.216717
H13   H     H_    0.438625 0.675710 0.105128 0.150113
H14   H     H_    0.560625 0.323588 0.894520 0.156183
N1    N     N_R   0.035046 0.408101 0.489263 -0.156170
N2    N     N_R   0.966508 0.625119 0.527639 -0.208035
N3    N     N_R   0.966142 0.407119 0.484049 -0.139024
N4    N     N_R   0.035566 0.626251 0.531661 -0.184830
N5    N     N_3   0.500050 0.499970 0.858290 -0.215340
N6    N     N_3   0.499950 0.500030 0.141710 -0.216641
O1    O     O_R   0.500030 0.316850 0.620870 -0.605322
O2    O     O_R   0.499970 0.683150 0.379130 -0.600391
O3    O     O_R   0.500000 0.316860 0.379090 -0.504835
O4    O     O_R   0.500000 0.683140 0.620910 -0.500616
O5    O     O_R   0.400160 0.499980 0.620930 -0.555295
O6    O     O_R   0.599840 0.500020 0.379070 -0.551301
O7    O     O_R   0.400130 0.499990 0.379150 -0.566910
O8    O     O_R   0.599870 0.500010 0.620850 -0.560157
O9    O     O_3   0.286922 0.369765 0.713850 -0.562157
C33   C     C_3   0.302320 0.249311 0.654331 0.067119
H15   H     H_    0.346132 0.211506 0.714090 0.213252
H16   H     H_    0.320463 0.252583 0.541975 0.112552
C34   C     C_3   0.239677 0.158826 0.667419 -0.277196
H17   H     H_    0.218674 0.163387 0.777349 0.292235
H18   H     H_    0.198684 0.187206 0.593874 0.230724
C35   C     C_3   0.258893 0.023069 0.631932 -0.887035
H19   H     H_    0.284167 0.015965 0.525882 0.249135
H20   H     H_    0.211261 0.962570 0.631642 0.284049
H21   H     H_    0.294199 0.988405 0.713414 0.262296
O10   O     O_3   0.714099 0.428689 0.248637 -0.565181
C36   C     C_3   0.701756 0.296885 0.249855 0.074275
H22   H     H_    0.650321 0.278145 0.300300 0.142906
H23   H     H_    0.742031 0.245232 0.308082 0.136886
C37   C     C_3   0.701236 0.245621 0.097250 -0.309503
H24   H     H_    0.666409 0.302587 0.033091 0.215031
H25   H     H_    0.754454 0.253479 0.051193 0.272558
C38   C     C_3   0.676904 0.108117 0.088364 -0.807511
H26   H     H_    0.709264 0.049277 0.155970 0.265046
H27   H     H_    0.681362 0.072565 0.977281 0.279463
H28   H     H_    0.621713 0.099484 0.122357 0.279857
S1    S     S_3+6 0.569689 0.745115 0.905381 0.004842
O11   O     O_2   0.609600 0.798662 0.029044 -0.315843
O12   O     O_2   0.619047 0.724523 0.783229 -0.286766
O13   O     O_3   0.508605 0.847474 0.861800 -0.541820
H29   H     H_    0.485892 0.872681 0.952459 0.349496
S2    S     S_3+6 0.430028 0.255101 0.096029 0.006908
O14   O     O_2   0.393690 0.196950 0.970379 -0.323142
O15   O     O_2   0.484312 0.165993 0.142380 -0.312798
O16   O     O_3   0.371633 0.279016 0.227008 -0.528512
H30   H     H_    0.335595 0.331472 0.185284 0.357531
S3    S     S_3+6 0.134505 0.411283 0.782272 0.029792
O17   O     O_2   0.094755 0.291041 0.750427 -0.287104
O18   O     O_2   0.182715 0.391453 0.902960 -0.239083
O19   O     O_3   0.078054 0.523984 0.830314 -0.509465
H31   H     H_    0.049549 0.487113 0.907392 0.406478
S4    S     S_3+6 0.867667 0.453932 0.207487 0.042689
O20   O     O_2   0.887114 0.317644 0.196972 -0.238464
O21   O     O_2   0.824226 0.483941 0.082337 -0.258158
O22   O     O_3   0.940623 0.543255 0.201750 -0.500055
H32   H     H_    0.924444 0.631287 0.205441 0.353696

loop_
_geom_bond_atom_site_label_1
_geom_bond_atom_site_label_2
_ccdc_geom_bond_type
Cu1   O1    S    
Cu2   O2    S    
O16   H30   S    
C27   C29   A    
C1    C8    S    
C17   C29   S    
C11   H13   S    
S3    O17   D    
C12   H14   S    
C6    C9    S    
C38   H26   S    
S3    O19   S    
C14   H12   S    
C20   C30   A    
S1    O11   D    
C16   S2    S    
Cu1   O4    S    
C15   N5    S    
C19   C21   A    
C24   C26   A    
C37   H25   S    
C32   N4    A    
C2    C7    S    
C17   O7    A    
C11   C15   S    
C12   C16   S    
C19   O9    S    
Cu1   O8    S    
N1    N3    A    
Cu2   O3    S    
N2    N4    A    
C35   H19   S    
C18   C30   S    
C12   N5    S    
C15   S1    S    
Cu1   O5    S    
Cu2   O6    S    
C4    C7    S    
C38   H27   S    
C13   N5    S    
S1    O12   D    
Cu1   N5    S    
C9    H9    S    
C22   S4    S    
O10   C36   S    
C10   H10   S    
C34   H17   S    
C33   C34   S    
C4    C6    S    
C3    C8    S    
C31   N3    A    
C5    C7    S    
C37   H24   S    
C18   O8    A    
C6    C8    S    
C21   S3    S    
S4    O22   S    
C34   H18   S    
C33   H16   S    
C36   H22   S    
C3    C9    S    
C1    O3    A    
S2    O15   D    
C28   H4    S    
C35   H21   S    
S4    O21   D    
Cu1   Cu2   S    
C20   O10   S    
C36   H23   S    
C11   N6    S    
C17   O5    A    
C18   O6    A    
C14   N6    S    
C25   H1    S    
Cu2   N6    S    
C21   C23   A    
C22   C24   A    
C31   N2    A    
C4    C10   S    
C19   C29   A    
C38   H28   S    
S2    O16   S    
S1    O13   S    
C26   H2    S    
C7    C9    S    
C3    H7    S    
C20   C22   A    
C3    C5    S    
S3    O18   D    
C25   C27   A    
C26   C28   A    
C34   C35   S    
C23   C32   S    
C5    H5    S    
C12   C14   S    
C24   C31   S    
C5    C10   S    
C2    O2    A    
C33   H15   S    
C13   H11   S    
C11   C13   S    
C37   C38   S    
S2    O14   D    
C4    H8    S    
C27   H3    S    
C28   C30   A    
S4    O20   D    
C6    H6    S    
C23   C25   A    
C1    O1    A    
C2    O4    A    
C36   C37   S    
C16   N6    S    
C32   N1    A    
O9    C33   S    
O13   H29   S    
C8    C10   S    
O19   H31   S    
Cu2   O7    S    
C13   C16   S    
O22   H32   S    
C14   C15   S    
C35   H20   S    
