data_mof_unit_pretest_942.cif
_audit_creation_date              2012-12-11T15:28:47-0500
_audit_creation_method            fapswitch 2.2
_symmetry_space_group_name_H-M    P1
_symmetry_Int_Tables_number       1
_space_group_crystal_system       triclinic
_cell_length_a                    6.960923
_cell_length_b                    19.625143
_cell_length_c                    23.294735
_cell_angle_alpha                 95.900725
_cell_angle_beta                  90.845525
_cell_angle_gamma                 89.014241
_cell_volume                      3164.67341616

loop_
_atom_site_label
_atom_site_type_symbol
_atom_type_description
_atom_site_fract_x
_atom_site_fract_y
_atom_site_fract_z
_atom_type_partial_charge
O1    O     O_R   0.617180 0.809390 0.808140 -0.515321
O2    O     O_R   0.382820 0.190610 0.191860 -0.515402
O3    O     O_R   0.293300 0.672410 0.795490 -0.542351
O4    O     O_R   0.706700 0.327590 0.204510 -0.541890
O5    O     O_R   0.117220 0.690610 0.691850 -0.525946
O6    O     O_R   0.882780 0.309390 0.308150 -0.526739
C1    C     C_R   0.463514 0.647848 0.805358 0.750060
C2    C     C_R   0.536478 0.352117 0.194602 0.746157
O7    O     O_R   0.287840 0.807750 0.814460 -0.520575
O8    O     O_R   0.712160 0.192250 0.185540 -0.520706
O9    O     O_R   0.111720 0.826910 0.710960 -0.529285
O10   O     O_R   0.888280 0.173090 0.289040 -0.529326
C3    C     C_R   0.456444 0.830806 0.833147 0.717832
C4    C     C_R   0.543555 0.169194 0.166853 0.717397
O11   O     O_R   0.622680 0.673080 0.789040 -0.521794
O12   O     O_R   0.377320 0.326920 0.210960 -0.521930
O13   O     O_3   0.448820 0.756130 0.716020 -0.364276
O14   O     O_3   0.551180 0.243870 0.283980 -0.365513
V1    V     V_3+5 0.176220 0.748860 0.756300 1.483361
V2    V     V_3+5 0.823780 0.251140 0.243700 1.484035
O15   O     O_R   0.781670 0.827580 0.704500 -0.538203
O16   O     O_R   0.218330 0.172420 0.295500 -0.538266
C5    C     C_R   0.948449 0.852076 0.694412 0.753838
C6    C     C_R   0.051550 0.147924 0.305588 0.753462
O17   O     O_R   0.787130 0.692240 0.685530 -0.514873
O18   O     O_R   0.212870 0.307760 0.314470 -0.515391
C7    C     C_R   0.956115 0.669185 0.666844 0.720363
C8    C     C_R   0.043886 0.330820 0.333153 0.724718
V3    V     V_3+5 0.675510 0.751130 0.743690 1.500951
V4    V     V_3+5 0.324490 0.248870 0.256310 1.500580
O19   O     O_3   0.952780 0.743870 0.783980 -0.359420
O20   O     O_3   0.047220 0.256130 0.216020 -0.359034
C9    C     C_1   0.966716 0.617071 0.614820 -0.171237
C10   C     C_1   0.033286 0.382941 0.385170 -0.169235
C11   C     C_1   0.978294 0.573563 0.571998 0.014924
C12   C     C_1   0.021708 0.426454 0.427989 0.014223
C13   C     C_1   0.993461 0.521831 0.521338 0.009299
C14   C     C_1   0.006540 0.478190 0.478646 0.008972
C15   C     C_R   0.948551 0.915901 0.665589 -0.118055
C16   C     C_R   0.051447 0.084099 0.334411 -0.117982
C17   C     C_R   0.866324 0.036305 0.664244 -0.195478
C18   C     C_R   0.133648 0.963693 0.335755 -0.195136
C19   C     C_R   0.885212 0.978778 0.694958 -0.023245
C20   C     C_R   0.114766 0.021220 0.305040 -0.023613
C21   C     C_R   0.993649 0.912493 0.606569 -0.236104
C22   C     C_R   0.006358 0.087508 0.393432 -0.235950
C23   C     C_R   0.973877 0.970737 0.574982 0.098431
C24   C     C_R   0.026120 0.029264 0.425018 0.098514
C25   C     C_R   0.908508 0.032814 0.605326 0.113013
C26   C     C_R   0.091476 0.967186 0.394673 0.113393
C27   C     C_R   0.013553 0.969515 0.514397 0.059990
C28   C     C_R   0.986443 0.030485 0.485603 0.059580
C29   C     C_R   0.920851 0.090567 0.518396 -0.184566
C30   C     C_R   0.079138 0.909433 0.481603 -0.185179
C31   C     C_R   0.883578 0.091536 0.576828 -0.181006
C32   C     C_R   0.116402 0.908463 0.423171 -0.182144
H1    H     H_    0.833199 0.139082 0.600008 0.133008
H2    H     H_    0.166771 0.860916 0.399991 0.131383
H3    H     H_    0.961779 0.136978 0.413617 0.098524
H4    H     H_    0.038246 0.863024 0.586385 0.098359
H5    H     H_    0.818104 0.084708 0.686483 0.157615
H6    H     H_    0.181854 0.915289 0.313515 0.158179
H7    H     H_    0.895872 0.138208 0.500189 0.125042
H8    H     H_    0.104110 0.861792 0.499810 0.124339
C33   C     C_R   0.474150 0.583725 0.833561 -0.170073
C34   C     C_R   0.525821 0.416036 0.166099 -0.138864
C35   C     C_R   0.445333 0.459872 0.829595 0.152782
C36   C     C_R   0.553337 0.540028 0.169644 0.141742
C37   C     C_R   0.449320 0.519755 0.801052 -0.017812
C38   C     C_R   0.549818 0.480096 0.198496 -0.051768
C39   C     C_R   0.493091 0.587493 0.893809 -0.236344
C40   C     C_R   0.507117 0.412018 0.105823 -0.239763
C41   C     C_R   0.487236 0.528163 0.923936 0.073922
C42   C     C_R   0.511649 0.471309 0.075623 0.044528
C43   C     C_R   0.463227 0.463879 0.890757 0.066248
C44   C     C_R   0.534911 0.535595 0.108726 0.126175
C45   C     C_R   0.503073 0.530660 0.985887 0.078541
C46   C     C_R   0.495417 0.468867 0.013701 0.073782
C47   C     C_R   0.471894 0.406626 0.978636 -0.176029
C48   C     C_R   0.525918 0.592967 0.021013 -0.215357
C49   C     C_R   0.456600 0.404310 0.919078 -0.195559
C50   C     C_R   0.540960 0.595226 0.080585 -0.152471
H9    H     H_    0.438484 0.354382 0.895487 0.130063
H10   H     H_    0.558685 0.645013 0.104621 0.173425
H11   H     H_    0.492541 0.361293 0.083947 0.104768
H12   H     H_    0.508801 0.638130 0.915745 0.106329
H13   H     H_    0.463962 0.357900 0.995728 0.122644
H14   H     H_    0.533164 0.641756 0.004007 0.127656
C51   C     C_1   0.467089 0.882922 0.885171 -0.171857
C52   C     C_1   0.532911 0.117080 0.114828 -0.172321
C53   C     C_1   0.478572 0.926435 0.927993 0.015305
C54   C     C_1   0.521428 0.073568 0.072005 0.014829
C55   C     C_1   0.493548 0.978177 0.978653 0.008825
C56   C     C_1   0.506451 0.021826 0.021345 0.008649
C57   C     C_2   0.162837 0.013410 0.242483 0.736288
O21   O     O_2   0.096817 0.053294 0.209997 -0.564815
O22   O     O_R   0.281860 0.959104 0.220348 -0.662926
H15   H     H_    0.303986 0.959031 0.177411 0.301729
C58   C     C_2   0.837124 0.986586 0.757513 0.734827
O23   O     O_2   0.903201 0.946719 0.790004 -0.564901
O24   O     O_R   0.718018 0.040871 0.779640 -0.664490
H16   H     H_    0.695888 0.040944 0.822577 0.300241
C59   C     C_2   0.570140 0.484416 0.262470 0.726548
O25   O     O_2   0.457177 0.454631 0.290515 -0.559834
O26   O     O_R   0.719534 0.521729 0.290576 -0.667422
H17   H     H_    0.718817 0.520190 0.333949 0.300080
C60   C     C_2   0.424955 0.514859 0.737056 0.785770
O27   O     O_2   0.521885 0.549959 0.708493 -0.571371
O28   O     O_R   0.290784 0.469980 0.709434 -0.636176
H18   H     H_    0.286867 0.471548 0.666058 0.299416
N1    N     N_3   0.426642 0.394985 0.795459 -0.625137
H19   H     H_    0.301885 0.371437 0.807426 0.241875
H20   H     H_    0.546394 0.364121 0.803017 0.229862
N2    N     N_3   0.571135 0.606209 0.201801 -0.677955
H21   H     H_    0.465330 0.612027 0.233407 0.247969
H22   H     H_    0.706769 0.609458 0.221572 0.274057

loop_
_geom_bond_atom_site_label_1
_geom_bond_atom_site_label_2
_ccdc_geom_bond_type
C21   H4    S    
C2    C34   S    
C55   C56   T    
O6    C8    A    
C22   H3    S    
O13   V3    S    
C57   O21   D    
C17   H5    S    
O4    C2    A    
V1    O19   S    
C47   H13   S    
N2    H21   S    
C37   C60   S    
C23   C25   A    
C34   C38   A    
C45   C46   A    
C7    C9    S    
C16   C22   A    
O9    V1    S    
O24   H16   S    
C42   C44   A    
C11   C13   S    
C19   C58   S    
O3    C1    A    
C9    C11   T    
C33   C37   A    
C53   C55   S    
O12   V4    S    
O22   H15   S    
C21   C23   A    
O7    C3    A    
C4    C52   S    
C6    C16   S    
O5    C7    A    
O7    V1    S    
C34   C40   A    
N1    H20   S    
N1    H19   S    
O8    V2    S    
C60   O27   D    
O3    V1    S    
O14   V4    S    
C51   C53   T    
C18   H6    S    
C10   C12   T    
C15   C21   A    
C24   C26   A    
C8    C10   S    
C2    O12   A    
C17   C19   A    
C18   C20   A    
C17   C25   A    
C49   H9    S    
O11   V3    S    
C30   C32   A    
C29   C31   A    
C40   H11   S    
O17   V3    S    
C22   C24   A    
C27   C28   A    
C48   C50   A    
O8    C4    A    
C44   C50   A    
C39   C41   A    
C46   C47   A    
C43   C49   A    
C15   C19   A    
C1    O11   A    
C25   C31   A    
O15   V3    S    
C26   C32   A    
C35   C37   A    
C13   C14   T    
C23   C27   A    
C1    C33   S    
C39   H12   S    
C52   C54   T    
C58   O23   D    
C16   C20   A    
O10   V2    S    
O1    V3    S    
C59   O26   S    
C36   C44   A    
C18   C26   A    
C40   C42   A    
C58   O24   S    
O18   V4    S    
C50   H10   S    
C31   H1    S    
O16   C6    A    
O1    C3    A    
C41   C43   A    
C12   C14   S    
C28   C29   A    
C47   C49   A    
V2    O20   S    
C45   C48   A    
C35   N1    S    
O16   V4    S    
C3    C51   S    
C38   C59   S    
N2    H22   S    
C57   O22   S    
O5    V1    S    
O17   C7    A    
O6    V2    S    
O26   H17   S    
O10   C6    A    
O18   C8    A    
O2    V4    S    
C27   C30   A    
O15   C5    A    
C48   H14   S    
C20   C57   S    
C33   C39   A    
O28   H18   S    
V4    O20   S    
C29   H7    S    
C54   C56   S    
C60   O28   S    
C30   H8    S    
C5    C15   S    
O9    C5    A    
O13   V1    S    
C32   H2    S    
O14   V2    S    
O2    C4    A    
O4    V2    S    
C24   C28   A    
C35   C43   A    
V3    O19   S    
C42   C46   A    
C59   O25   D    
C36   C38   A    
C41   C45   A    
C36   N2    S    
