data_mof_unit_pretest_205.cif
_audit_creation_date              2012-12-11T17:43:42-0500
_audit_creation_method            fapswitch 2.2
_symmetry_space_group_name_H-M    P1
_symmetry_Int_Tables_number       1
_space_group_crystal_system       triclinic
_cell_length_a                    15.093627
_cell_length_b                    15.020006
_cell_length_c                    16.934662
_cell_angle_alpha                 108.691873
_cell_angle_beta                  105.938436
_cell_angle_gamma                 109.361703
_cell_volume                      3103.86755712

loop_
_atom_site_label
_atom_site_type_symbol
_atom_type_description
_atom_site_fract_x
_atom_site_fract_y
_atom_site_fract_z
_atom_type_partial_charge
C1    C     C_R   0.090990 0.277558 0.023554 -0.119509
C2    C     C_R   0.102092 0.073827 0.956847 -0.220185
C3    C     C_R   0.010220 0.889277 0.919040 0.051123
C4    C     C_R   0.007482 0.076029 0.924647 0.052207
C5    C     C_R   0.104814 0.979885 0.949687 0.034119
C6    C     C_R   0.916048 0.978556 0.866965 0.034693
C7    C     C_R   0.836071 0.016094 0.739035 -0.128960
C8    C     C_R   0.295193 0.053890 0.045730 -0.180329
C9    C     C_R   0.649696 0.936349 0.654252 -0.128175
C10   C     C_R   0.399464 0.988072 0.982897 -0.037653
C11   C     C_R   0.526523 0.760272 0.348628 -0.085899
C12   C     C_R   0.916238 0.712051 0.920245 -0.115438
C13   C     C_R   0.436578 0.298407 0.716541 -0.077754
C14   C     C_R   0.524722 0.723082 0.260931 -0.192720
C15   C     C_R   0.466632 0.351682 0.811071 -0.214103
C16   C     C_R   0.937195 0.446902 0.735585 -0.100069
C17   C     C_R   0.065103 0.487996 0.256072 -0.106594
C18   C     C_R   0.542894 0.635355 0.227011 -0.108058
C19   C     C_R   0.509087 0.462326 0.855365 -0.093788
C20   C     C_R   0.563907 0.586230 0.283044 0.764740
C21   C     C_R   0.522196 0.519273 0.804243 0.748829
C22   C     C_R   0.565984 0.624162 0.370896 -0.255107
C23   C     C_R   0.029323 0.454200 0.728784 0.079638
C24   C     C_R   0.494862 0.465700 0.710089 -0.279312
C25   C     C_R   0.547139 0.710842 0.403546 -0.187410
C26   C     C_R   0.451515 0.355307 0.666159 -0.191416
C27   C     C_R   0.618231 0.577822 0.117875 -0.115077
C28   C     C_R   0.448125 0.534206 0.966814 -0.151445
C29   C     C_R   0.611277 0.537777 0.028254 0.050764
C30   C     C_R   0.452583 0.570946 0.055290 0.056646
C31   C     C_R   0.526236 0.516017 0.952089 0.116449
C32   C     C_R   0.537623 0.594300 0.132550 0.087218
C33   C     C_R   0.749509 0.000525 0.668389 -0.071831
C34   C     C_R   0.975508 0.439570 0.264508 0.094510
C35   C     C_R   0.391680 0.058230 0.055030 -0.056561
C36   C     C_R   0.972032 0.410269 0.338566 0.059249
C37   C     C_R   0.045387 0.413681 0.645103 0.065262
C38   C     C_R   0.148231 0.484393 0.573565 -0.158306
C39   C     C_R   0.883713 0.292386 0.392755 -0.147689
C40   C     C_R   0.721272 0.213890 0.822357 -0.118996
C41   C     C_R   0.224544 0.797723 0.186694 -0.095204
C42   C     C_R   0.142492 0.471642 0.649069 -0.194792
C43   C     C_R   0.887766 0.318753 0.321598 -0.194757
C44   C     C_R   0.961927 0.339946 0.558075 0.117558
C45   C     C_R   0.667067 0.216296 0.743100 0.079563
C46   C     C_R   0.055265 0.472438 0.426716 0.112087
C47   C     C_R   0.967521 0.352938 0.480325 0.082293
C48   C     C_R   0.057929 0.435885 0.492754 0.086627
C49   C     C_R   0.560305 0.142609 0.674473 0.129968
C50   C     C_R   0.285819 0.901234 0.358762 0.120177
C51   C     C_R   0.399029 0.089408 0.441635 -0.214363
C52   C     C_R   0.407691 0.973686 0.605548 -0.228358
C53   C     C_R   0.327496 0.000321 0.359521 -0.152926
C54   C     C_R   0.499989 0.053329 0.680750 -0.197232
C55   C     C_R   0.301173 0.895570 0.442086 -0.255749
C56   C     C_R   0.242446 0.804281 0.273528 0.044227
C57   C     C_R   0.520953 0.157656 0.597358 -0.275233
C58   C     C_R   0.376241 0.983365 0.524193 0.179176
C59   C     C_R   0.429919 0.078809 0.522314 0.167376
C60   C     C_R   0.636067 0.889168 0.711818 -0.114187
C61   C     C_R   0.310540 0.912363 0.901836 -0.073100
C62   C     C_R   0.722402 0.904493 0.782687 -0.154165
C63   C     C_R   0.213730 0.906979 0.892563 -0.137732
C64   C     C_R   0.301932 0.600963 0.008823 0.155991
C65   C     C_R   0.722855 0.447723 0.033778 0.205748
C66   C     C_R   0.823436 0.967743 0.796669 0.083639
C67   C     C_R   0.358898 0.567908 0.058679 0.012075
C68   C     C_R   0.205404 0.978231 0.964247 0.088982
C69   C     C_R   0.728315 0.310303 0.746503 -0.100718
C70   C     C_R   0.219835 0.703139 0.265296 -0.116131
C71   C     C_R   0.295260 0.500442 0.080512 -0.162128
C72   C     C_R   0.740895 0.554031 0.965040 -0.158250
C73   C     C_R   0.109014 0.526521 0.815098 -0.110857
C74   C     C_R   0.893461 0.406367 0.182282 -0.095996
C75   C     C_R   0.917311 0.193134 0.949416 -0.120136
C76   C     C_R   0.087492 0.796199 0.999028 -0.132824
C77   C     C_R   0.005445 0.178532 0.961005 0.052429
C78   C     C_R   0.693525 0.519300 0.015226 -0.003885
C79   C     C_R   0.004960 0.803482 0.945887 0.056037
C80   C     C_R   0.917333 0.886946 0.869758 -0.210938
F1    F     F_    0.579409 0.499968 0.251863 -0.696806
F2    F     F_    0.560106 0.626089 0.845319 -0.716248
H1    H     H_    0.171926 0.296429 0.050509 0.101511
H2    H     H_    0.453432 0.306622 0.849124 0.170708
H3    H     H_    0.581482 0.585809 0.413551 0.158395
H4    H     H_    0.505379 0.509522 0.670761 0.154349
H5    H     H_    0.686077 0.595632 0.175587 0.165073
H6    H     H_    0.379631 0.512431 0.907427 0.134250
H7    H     H_    0.823280 0.269054 0.254170 0.142740
H8    H     H_    0.212281 0.519746 0.712622 0.145943
H9    H     H_    0.222153 0.538116 0.581077 0.168530
H10   H     H_    0.814332 0.225841 0.378579 0.174476
H11   H     H_    0.859729 0.401677 0.681091 0.136989
H12   H     H_    0.839060 0.684248 0.869600 0.100972
H13   H     H_    0.142125 0.503321 0.297603 0.123143
H14   H     H_    0.759791 0.037294 0.623933 0.158542
H15   H     H_    0.460593 0.116726 0.117784 0.141170
H16   H     H_    0.564146 0.226546 0.591229 0.133085
H17   H     H_    0.264785 0.820897 0.442705 0.163776
H18   H     H_    0.526792 0.041244 0.740700 0.136623
H19   H     H_    0.313029 0.008566 0.296782 0.119132
H20   H     H_    0.437555 0.163676 0.440346 0.133193
H21   H     H_    0.365943 0.901475 0.608483 0.165064
H22   H     H_    0.582923 0.923086 0.598513 0.128541
H23   H     H_    0.912953 0.064394 0.747813 0.129663
H24   H     H_    0.474350 0.992107 0.989912 0.133674
H25   H     H_    0.558534 0.840062 0.701079 0.133799
H26   H     H_    0.316693 0.857989 0.846061 0.138741
H27   H     H_    0.710383 0.866941 0.826392 0.148315
H28   H     H_    0.145708 0.849045 0.828816 0.129176
H29   H     H_    0.690953 0.160015 0.848911 0.106116
H30   H     H_    0.234384 0.860717 0.167283 0.097906
H31   H     H_    0.705763 0.347777 0.705438 0.094633
H32   H     H_    0.227018 0.678835 0.319084 0.128284
H33   H     H_    0.317847 0.466560 0.125261 0.124316
H34   H     H_    0.290489 0.109868 0.101577 0.125633
H35   H     H_    0.730073 0.605206 0.934923 0.153173
H36   H     H_    0.190121 0.548573 0.835936 0.124618
H37   H     H_    0.815469 0.348417 0.159229 0.139158
H38   H     H_    0.837126 0.134570 0.910549 0.117699
H39   H     H_    0.168873 0.845774 0.023081 0.129303
H40   H     H_    0.845674 0.813884 0.832712 0.128929
H41   H     H_    0.174586 0.145120 0.987437 0.132350
H42   H     H_    0.548255 0.739472 0.471320 0.149865
H43   H     H_    0.428463 0.313802 0.592920 0.145715
H44   H     H_    0.511823 0.827369 0.373976 0.137186
H45   H     H_    0.400311 0.212837 0.682238 0.146414
H46   H     H_    0.509033 0.762640 0.219408 0.170658
I1    I     I_    0.158394 0.636448 0.473848 -0.536475
I2    I     I_    0.833821 0.210545 0.545671 -0.509979
I3    I     I_    0.365388 0.739298 0.993503 -0.485122
I4    I     I_    0.626817 0.322795 0.051209 -0.453531
N1    N     N_R   0.055660 0.348550 0.045620 -0.044604
N2    N     N_R   0.185200 0.638170 0.176300 -0.043061
N3    N     N_R   0.201680 0.494570 0.045620 -0.053541
N4    N     N_R   0.798320 0.505430 0.954380 -0.057346
N5    N     N_R   0.068420 0.560530 0.871650 -0.036928
N6    N     N_R   0.931580 0.439470 0.128350 -0.047031
N7    N     N_R   0.948070 0.295860 0.997670 -0.045209
N8    N     N_R   0.051930 0.704140 0.002330 -0.040454
N9    N     N_R   0.944340 0.651450 0.954380 -0.043587
N10   N     N_R   0.960830 0.507850 0.823700 -0.051620
N11   N     N_R   0.039170 0.492150 0.176300 -0.047044
N12   N     N_R   0.811290 0.303410 0.871650 -0.042334
N13   N     N_R   0.188710 0.696590 0.128350 -0.036357
N14   N     N_R   0.205200 0.552990 0.997670 -0.063029
N15   N     N_R   0.794800 0.447010 0.002330 -0.064876
N16   N     N_R   0.814800 0.361830 0.823700 -0.044062
Ni1   Ni    Ni4+2 0.119340 0.493420 0.109960 0.217062
Ni2   Ni    Ni4+2 0.880660 0.506580 0.890040 0.214802
Ni3   Ni    Ni4+2 0.872590 0.372590 0.000000 0.231011
Ni4   Ni    Ni4+2 0.127410 0.627410 0.000000 0.247487

loop_
_geom_bond_atom_site_label_1
_geom_bond_atom_site_label_2
_ccdc_geom_bond_type
N5    N10   A    
C52   H21   S    
C27   C29   A    
C1    C77   A    
C14   C18   A    
C16   N10   A    
C76   C79   A    
N12   N16   A    
C19   C31   S    
C46   I1    S    
C14   H46   S    
C80   H40   S    
C2    H41   S    
C70   H32   S    
C51   H20   S    
C15   C19   A    
C74   H37   S    
C74   N6    A    
C69   H31   S    
C16   H11   S    
C43   H7    S    
C18   C32   S    
C76   H39   S    
C19   C21   A    
N16   Ni2   S    
C38   C42   A    
N12   Ni3   S    
N6    N11   A    
C71   N3    A    
C11   C14   A    
C57   C59   A    
C11   C25   A    
C44   I2    S    
C49   C54   A    
C12   C79   A    
C49   C57   A    
C12   N9    A    
C18   C20   A    
C60   C62   A    
C22   H3    S    
C37   C42   A    
C61   C63   A    
C61   H26   S    
C72   C78   A    
C29   C78   S    
C53   H19   S    
C28   C30   A    
C22   C25   A    
C72   H35   S    
C28   H6    S    
N11   Ni1   S    
C7    H23   S    
N5    Ni4   S    
C36   C46   A    
C10   C35   A    
C65   C78   A    
C65   N15   A    
N8    Ni4   S    
C38   C48   A    
C30   C67   S    
C44   C47   A    
C3    C79   S    
C20   F1    S    
C9    C33   A    
C7    C33   A    
C54   H18   S    
C23   C73   A    
C5    C68   S    
C1    N1    A    
C3    C80   A    
C52   C54   A    
N9    Ni2   S    
C40   H29   S    
C76   N8    A    
C40   C45   A    
C46   C48   A    
C50   C53   A    
C62   C66   A    
C45   C69   A    
N4    N15   A    
C64   C67   A    
C11   H44   S    
N1    Ni1   S    
N8    N9    A    
C4    C6    A    
C39   C43   A    
C58   C59   A    
N3    Ni1   S    
N2    Ni1   S    
C38   H9    S    
C41   H30   S    
C50   C56   S    
C42   H8    S    
C26   H43   S    
C13   H45   S    
C2    C4    A    
C41   C56   A    
C6    C80   A    
C47   C48   A    
C64   I3    S    
C45   C49   S    
N3    N14   A    
C71   H33   S    
C27   H5    S    
C75   C77   A    
C60   H25   S    
C52   C58   A    
C34   C74   A    
N14   Ni4   S    
C20   C22   A    
C8    C68   A    
C16   C23   A    
C56   C70   A    
C40   N12   A    
C13   C26   A    
C10   H24   S    
C10   C61   A    
C51   C59   A    
C17   C34   A    
C21   C24   A    
C33   H14   S    
C39   H10   S    
C65   I4    S    
C39   C47   A    
N2    N13   A    
C63   C68   A    
C73   H36   S    
C64   N14   A    
C27   C32   A    
C28   C31   A    
C75   H38   S    
C24   C26   A    
C3    C5    A    
N4    Ni2   S    
N1    N7    A    
C15   H2    S    
N6    Ni3   S    
C1    H1    S    
C50   C55   A    
C17   N11   A    
C9    C60   A    
N10   Ni2   S    
C37   C44   A    
C13   C15   A    
C4    C77   S    
C29   C31   A    
C23   C37   S    
C7    C66   A    
C30   C32   A    
C12   H12   S    
C62   H27   S    
C73   N5    A    
C63   H28   S    
C9    H22   S    
N15   Ni3   S    
N7    Ni3   S    
C34   C36   S    
C67   C71   A    
C25   H42   S    
C57   H16   S    
N13   Ni4   S    
C72   N4    A    
C8    H34   S    
C2    C5    A    
C6    C66   S    
C41   N13   A    
C21   F2    S    
C55   C58   A    
C55   H17   S    
C17   H13   S    
C70   N2    A    
C69   N16   A    
C36   C43   A    
C75   N7    A    
C51   C53   A    
C35   H15   S    
C24   H4    S    
C8    C35   A    
