data_mof_unit_pretest_1299.cif
_audit_creation_date              2013-03-05T15:40:11-0500
_audit_creation_method            fapswitch 2.2
_symmetry_space_group_name_H-M    P1
_symmetry_Int_Tables_number       1
_space_group_crystal_system       triclinic
_cell_length_a                    33.957166
_cell_length_b                    33.931656
_cell_length_c                    33.93107
_cell_angle_alpha                 59.805058
_cell_angle_beta                  59.787162
_cell_angle_gamma                 59.790651
_cell_volume                      27516.0532999

loop_
_atom_site_label
_atom_site_type_symbol
_atom_site_description
_atom_site_fract_x
_atom_site_fract_y
_atom_site_fract_z
_atom_type_partial_charge
O1    O     O_R   0.716970 0.488630 0.223920 -0.596128
O2    O     O_R   0.223920 0.716970 0.488630 -0.577705
O3    O     O_R   0.488630 0.223920 0.716970 -0.601641
O4    O     O_R   0.223920 0.488630 0.716970 -0.601728
O5    O     O_R   0.488630 0.716970 0.223920 -0.599143
O6    O     O_R   0.716970 0.223920 0.488630 -0.599022
O7    O     O_R   0.783170 0.487770 0.157850 -0.519901
O8    O     O_R   0.157850 0.783170 0.487770 -0.500912
O9    O     O_R   0.487770 0.157850 0.783170 -0.519956
O10   O     O_R   0.157850 0.487770 0.783170 -0.519263
O11   O     O_R   0.487770 0.783170 0.157850 -0.517099
O12   O     O_R   0.783170 0.157850 0.487770 -0.517361
C1    C     C_R   0.742430 0.478244 0.182871 0.805576
C2    C     C_R   0.175606 0.735436 0.499311 0.764461
C3    C     C_R   0.475440 0.184401 0.743627 0.818563
C4    C     C_R   0.184208 0.475788 0.743445 0.817041
C5    C     C_R   0.475439 0.743627 0.184404 0.820674
C6    C     C_R   0.742847 0.183326 0.477257 0.810833
C7    C     C_R   0.719609 0.475031 0.157852 -0.171844
C8    C     C_R   0.148647 0.710487 0.501988 -0.174267
C9    C     C_R   0.467358 0.161561 0.721923 -0.165153
C10   C     C_R   0.161195 0.468083 0.721642 -0.166176
C11   C     C_R   0.467351 0.721922 0.161572 -0.167940
C12   C     C_R   0.720643 0.158980 0.471980 -0.166261
C13   C     C_R   0.745848 0.467066 0.112633 0.326751
C14   C     C_R   0.099290 0.733342 0.505061 0.329673
C15   C     C_R   0.459745 0.116129 0.748241 0.323626
C16   C     C_R   0.115362 0.461360 0.747675 0.324615
C17   C     C_R   0.459697 0.748244 0.116160 0.323255
C18   C     C_R   0.745183 0.110985 0.470343 0.327021
O13   O     O_R   0.224060 0.570410 0.716850 -0.565237
O14   O     O_R   0.716850 0.224060 0.570410 -0.565867
O15   O     O_R   0.570410 0.716850 0.224060 -0.578886
O16   O     O_R   0.716850 0.570410 0.224060 -0.578784
O17   O     O_R   0.570410 0.224060 0.716850 -0.564801
O18   O     O_R   0.224060 0.716850 0.570410 -0.573480
O19   O     O_R   0.157990 0.571150 0.783050 -0.564232
O20   O     O_R   0.783050 0.157990 0.571150 -0.560152
O21   O     O_R   0.571150 0.783050 0.157990 -0.576742
O22   O     O_R   0.783050 0.571150 0.157990 -0.575656
O23   O     O_R   0.571150 0.157990 0.783050 -0.563686
O24   O     O_R   0.157990 0.783050 0.571150 -0.560173
C19   C     C_R   0.175575 0.587846 0.734803 0.796784
C20   C     C_R   0.734862 0.175641 0.588242 0.796252
C21   C     C_R   0.588521 0.734928 0.175704 0.785962
C22   C     C_R   0.734830 0.587989 0.175587 0.782542
C23   C     C_R   0.587696 0.175556 0.734708 0.797236
C24   C     C_R   0.175912 0.735118 0.589198 0.745538
C25   C     C_R   0.148796 0.636546 0.708689 -0.070898
C26   C     C_R   0.708448 0.148818 0.636854 -0.071061
C27   C     C_R   0.637469 0.708931 0.149135 -0.064898
C28   C     C_R   0.708742 0.636779 0.148903 -0.065658
C29   C     C_R   0.636151 0.148682 0.708153 -0.071618
C30   C     C_R   0.149173 0.708980 0.637812 -0.064354
C31   C     C_R   0.099435 0.658915 0.730961 -0.185593
C32   C     C_R   0.730721 0.099516 0.659537 -0.184559
C33   C     C_R   0.660795 0.731927 0.100366 -0.190095
C34   C     C_R   0.731396 0.659546 0.099808 -0.191118
C35   C     C_R   0.658176 0.099139 0.730066 -0.186593
C36   C     C_R   0.100088 0.731581 0.660642 -0.171729
H1    H     H_    0.080543 0.638800 0.766658 0.148264
H2    H     H_    0.767803 0.081438 0.641003 0.150057
H3    H     H_    0.642456 0.769226 0.082561 0.148829
H4    H     H_    0.767332 0.639678 0.081028 0.148063
H5    H     H_    0.637912 0.080316 0.765691 0.147200
H6    H     H_    0.082176 0.768809 0.642229 0.157246
O25   O     O_R   0.488840 0.570440 0.223920 -0.582781
O26   O     O_R   0.223920 0.488840 0.570440 -0.584942
O27   O     O_R   0.570440 0.223920 0.488840 -0.575728
O28   O     O_R   0.223920 0.570440 0.488840 -0.576454
O29   O     O_R   0.570440 0.488840 0.223920 -0.579211
O30   O     O_R   0.488840 0.223920 0.570440 -0.568902
O31   O     O_R   0.487980 0.571180 0.157850 -0.586610
O32   O     O_R   0.157850 0.487980 0.571180 -0.589525
O33   O     O_R   0.571180 0.157850 0.487980 -0.583101
O34   O     O_R   0.157850 0.571180 0.487980 -0.582247
O35   O     O_R   0.571180 0.487980 0.157850 -0.585547
O36   O     O_R   0.487980 0.157850 0.571180 -0.574413
C37   C     C_R   0.478268 0.596493 0.183186 0.765437
C38   C     C_R   0.183291 0.478107 0.596449 0.792639
C39   C     C_R   0.596267 0.182285 0.480107 0.787115
C40   C     C_R   0.175677 0.589069 0.500084 0.803131
C41   C     C_R   0.593751 0.491194 0.177775 0.799347
C42   C     C_R   0.478173 0.183232 0.596496 0.817927
C43   C     C_R   0.470400 0.648984 0.160721 -0.049168
C44   C     C_R   0.160633 0.470734 0.648783 -0.053343
C45   C     C_R   0.647863 0.158534 0.474917 -0.051629
C46   C     C_R   0.149250 0.638421 0.502280 -0.054431
C47   C     C_R   0.645873 0.483205 0.154971 -0.054346
C48   C     C_R   0.470352 0.160733 0.648993 -0.061815
C49   C     C_R   0.463960 0.674825 0.115393 -0.258644
C50   C     C_R   0.114998 0.465114 0.674323 -0.256892
C51   C     C_R   0.671719 0.110842 0.474524 -0.258975
C52   C     C_R   0.100856 0.661536 0.504003 -0.259906
C53   C     C_R   0.671371 0.477024 0.109451 -0.258274
C54   C     C_R   0.463956 0.115378 0.674836 -0.255845
H7    H     H_    0.463211 0.656388 0.097497 0.161832
H8    H     H_    0.097124 0.464478 0.655803 0.163121
H9    H     H_    0.652473 0.092074 0.476359 0.163725
H10   H     H_    0.082688 0.642965 0.503870 0.163746
H11   H     H_    0.652440 0.478803 0.090406 0.164140
H12   H     H_    0.463204 0.097480 0.656403 0.161393
H13   H     H_    0.052744 0.256004 0.531888 0.132252
H14   H     H_    0.585298 0.033342 0.236382 0.126923
H15   H     H_    0.275475 0.466812 0.077689 0.124772
H16   H     H_    0.465638 0.276040 0.077953 0.125049
H17   H     H_    0.255470 0.053044 0.532195 0.127673
H18   H     H_    0.066778 0.482067 0.275158 0.130477
C55   C     C_R   0.223321 0.223017 0.479512 0.112873
C56   C     C_R   0.531321 0.205876 0.205737 0.115453
C57   C     C_R   0.205707 0.532173 0.205398 0.113797
H19   H     H_    0.237359 0.332554 0.432062 0.129625
H20   H     H_    0.586727 0.185318 0.277983 0.129725
H21   H     H_    0.314669 0.479963 0.221637 0.131298
H22   H     H_    0.479721 0.314912 0.221837 0.131286
H23   H     H_    0.296018 0.200120 0.535460 0.133198
H24   H     H_    0.185518 0.587364 0.277732 0.131893
C58   C     C_R   0.074871 0.223582 0.479705 0.112982
C59   C     C_R   0.530618 0.057816 0.206122 0.114087
C60   C     C_R   0.209431 0.519292 0.062288 0.114689
C61   C     C_R   0.518315 0.210021 0.062517 0.112837
C62   C     C_R   0.222903 0.074899 0.480254 0.113826
C63   C     C_R   0.057486 0.532013 0.205943 0.112411
H25   H     H_    0.197063 0.292415 0.428192 0.129852
H26   H     H_    0.585123 0.144306 0.236933 0.126620
H27   H     H_    0.273587 0.478244 0.181058 0.124868
H28   H     H_    0.477614 0.273964 0.181374 0.124787
H29   H     H_    0.255816 0.160114 0.531645 0.127576
H30   H     H_    0.144401 0.586195 0.236538 0.131040
H31   H     H_    0.083411 0.197114 0.428575 0.125438
H32   H     H_    0.475939 0.068919 0.182663 0.128934
H33   H     H_    0.150332 0.570282 0.034268 0.128620
H34   H     H_    0.569606 0.150950 0.034431 0.133163
H35   H     H_    0.196379 0.083177 0.429329 0.127009
H36   H     H_    0.035232 0.581764 0.143013 0.128718
C64   C     C_R   0.222921 0.151332 0.151685 -0.194147
C65   C     C_R   0.151459 0.223042 0.151542 -0.201922
C66   C     C_R   0.151243 0.151719 0.223332 -0.200307
H37   H     H_    0.259217 0.132153 0.132682 0.130929
H38   H     H_    0.133334 0.260258 0.133212 0.127741
H39   H     H_    0.132521 0.133222 0.260166 0.125725
C67   C     C_R   0.272373 0.059014 0.219613 -0.171073
C68   C     C_R   0.197986 0.251751 0.042861 -0.167808
C69   C     C_R   0.058766 0.219688 0.272738 -0.170475
C70   C     C_R   0.198156 0.042756 0.252227 -0.169740
C71   C     C_R   0.042796 0.252674 0.198235 -0.168914
C72   C     C_R   0.272510 0.218807 0.058687 -0.168455
C73   C     C_R   0.295337 0.010337 0.242292 -0.172932
C74   C     C_R   0.220695 0.274524 0.994264 -0.160463
C75   C     C_R   0.010131 0.242591 0.295565 -0.172932
C76   C     C_R   0.221081 0.994172 0.274826 -0.165404
C77   C     C_R   0.994284 0.275560 0.220998 -0.160940
C78   C     C_R   0.295265 0.241643 0.009989 -0.171489
O37   O     O_R   0.283280 0.775980 0.511290 -0.571144
O38   O     O_R   0.511290 0.283280 0.775980 -0.569615
O39   O     O_R   0.775980 0.511290 0.283280 -0.589005
O40   O     O_R   0.511290 0.775980 0.283280 -0.589410
O41   O     O_R   0.775980 0.283280 0.511290 -0.570180
O42   O     O_R   0.283280 0.511290 0.775980 -0.569983
O43   O     O_R   0.217080 0.842050 0.512160 -0.572599
O44   O     O_R   0.512160 0.217080 0.842050 -0.578210
O45   O     O_R   0.842050 0.512160 0.217080 -0.592953
O46   O     O_R   0.512160 0.842050 0.217080 -0.594947
O47   O     O_R   0.842050 0.217080 0.512160 -0.572362
O48   O     O_R   0.217080 0.512160 0.842050 -0.578236
C79   C     C_R   0.264989 0.824094 0.500311 0.734478
C80   C     C_R   0.501414 0.264697 0.823946 0.734910
C81   C     C_R   0.816449 0.522283 0.257732 0.767692
C82   C     C_R   0.522525 0.816298 0.257616 0.767535
C83   C     C_R   0.824105 0.265018 0.500203 0.736700
C84   C     C_R   0.264643 0.501609 0.823907 0.736260
C85   C     C_R   0.291079 0.850719 0.496022 -0.061636
C86   C     C_R   0.500408 0.289332 0.849786 -0.054777
C87   C     C_R   0.839606 0.528141 0.280387 -0.060220
C88   C     C_R   0.528305 0.839432 0.280334 -0.059935
C89   C     C_R   0.850777 0.291170 0.495742 -0.062443
C90   C     C_R   0.289164 0.500859 0.849670 -0.055192
C91   C     C_R   0.268746 0.899985 0.491500 -0.197805
C92   C     C_R   0.502312 0.264631 0.897059 -0.200946
C93   C     C_R   0.886507 0.531064 0.255526 -0.199473
C94   C     C_R   0.531222 0.886285 0.255430 -0.201496
C95   C     C_R   0.900071 0.268890 0.491067 -0.199065
C96   C     C_R   0.264385 0.502967 0.896872 -0.197591
H40   H     H_    0.231983 0.918600 0.491056 0.144097
H41   H     H_    0.503015 0.227468 0.915214 0.144274
H42   H     H_    0.905288 0.530327 0.218841 0.146135
H43   H     H_    0.531726 0.904567 0.218324 0.147142
H44   H     H_    0.918724 0.232119 0.490563 0.143611
H45   H     H_    0.227246 0.503662 0.915014 0.145374
O49   O     O_R   0.511420 0.429400 0.283150 -0.568153
O50   O     O_R   0.283150 0.511420 0.429400 -0.585012
O51   O     O_R   0.429400 0.283150 0.511420 -0.576135
O52   O     O_R   0.283150 0.429400 0.511420 -0.574666
O53   O     O_R   0.429400 0.511420 0.283150 -0.571945
O54   O     O_R   0.511420 0.283150 0.429400 -0.589649
O55   O     O_R   0.512280 0.428670 0.216950 -0.574971
O56   O     O_R   0.216950 0.512280 0.428670 -0.591159
O57   O     O_R   0.428670 0.216950 0.512280 -0.581471
O58   O     O_R   0.216950 0.428670 0.512280 -0.578410
O59   O     O_R   0.428670 0.512280 0.216950 -0.578664
O60   O     O_R   0.512280 0.216950 0.428670 -0.594513
C97   C     C_R   0.523203 0.403521 0.257233 0.793326
C98   C     C_R   0.257237 0.523208 0.403476 0.775069
C99   C     C_R   0.411941 0.265236 0.498509 0.800046
C100  C     C_R   0.265216 0.411907 0.498546 0.796671
C101  C     C_R   0.403528 0.523024 0.257332 0.769531
C102  C     C_R   0.523196 0.257244 0.403467 0.740808
C103  C     C_R   0.529497 0.351653 0.279915 -0.066932
C104  C     C_R   0.279869 0.529601 0.351554 -0.060045
C105  C     C_R   0.363540 0.291718 0.493816 -0.066810
C106  C     C_R   0.291750 0.363507 0.493733 -0.066892
C107  C     C_R   0.351688 0.529345 0.279981 -0.060514
C108  C     C_R   0.529612 0.279861 0.351547 -0.051487
C109  C     C_R   0.532606 0.326727 0.255087 -0.198881
C110  C     C_R   0.255083 0.532910 0.326421 -0.200949
C111  C     C_R   0.341247 0.269535 0.489217 -0.198218
C112  C     C_R   0.269665 0.341069 0.489148 -0.197285
C113  C     C_R   0.326778 0.532565 0.255090 -0.198843
C114  C     C_R   0.532790 0.255073 0.326476 -0.200012
H46   H     H_    0.533287 0.345126 0.217922 0.144298
H47   H     H_    0.218260 0.532630 0.344965 0.145791
H48   H     H_    0.360629 0.233281 0.487295 0.142658
H49   H     H_    0.232977 0.359850 0.488494 0.143671
H50   H     H_    0.345190 0.533248 0.217919 0.144448
H51   H     H_    0.532382 0.218273 0.345070 0.145909
H52   H     H_    0.968266 0.295540 0.536477 0.134703
H53   H     H_    0.586720 0.949472 0.277255 0.130378
H54   H     H_    0.319474 0.457967 0.997737 0.124254
H55   H     H_    0.456861 0.319934 0.997969 0.124397
H56   H     H_    0.295276 0.968508 0.536752 0.133772
H57   H     H_    0.983600 0.482415 0.316045 0.130410
O61   O     O_R   0.511410 0.775980 0.429490 -0.585727
O62   O     O_R   0.429490 0.511410 0.775980 -0.581015
O63   O     O_R   0.775980 0.429490 0.511410 -0.576184
O64   O     O_R   0.429490 0.775980 0.511410 -0.576240
O65   O     O_R   0.775980 0.511410 0.429490 -0.586032
O66   O     O_R   0.511410 0.429490 0.775980 -0.580789
O67   O     O_R   0.512270 0.842050 0.428760 -0.589486
O68   O     O_R   0.428760 0.512270 0.842050 -0.589577
O69   O     O_R   0.842050 0.428760 0.512270 -0.581164
O70   O     O_R   0.428760 0.842050 0.512270 -0.580608
O71   O     O_R   0.842050 0.512270 0.428760 -0.590379
O72   O     O_R   0.512270 0.428760 0.842050 -0.589269
C115  C     C_R   0.522790 0.816247 0.403563 0.776582
C116  C     C_R   0.410023 0.501569 0.823967 0.734222
C117  C     C_R   0.824340 0.411801 0.498844 0.793006
C118  C     C_R   0.411716 0.824348 0.498941 0.793768
C119  C     C_R   0.816187 0.522847 0.403598 0.777713
C120  C     C_R   0.501287 0.410202 0.824018 0.735086
C121  C     C_R   0.528740 0.839322 0.351743 -0.061874
C122  C     C_R   0.360413 0.500678 0.849795 -0.053272
C123  C     C_R   0.850876 0.363151 0.494808 -0.064990
C124  C     C_R   0.363007 0.850857 0.495084 -0.065692
C125  C     C_R   0.839275 0.528653 0.351839 -0.061438
C126  C     C_R   0.500141 0.360667 0.849919 -0.053822
C127  C     C_R   0.531876 0.886087 0.326533 -0.201262
C128  C     C_R   0.335582 0.502818 0.896980 -0.200317
C129  C     C_R   0.900066 0.340722 0.490131 -0.202373
C130  C     C_R   0.340498 0.900059 0.490546 -0.200556
C131  C     C_R   0.885898 0.531928 0.326717 -0.200477
C132  C     C_R   0.502046 0.335934 0.897175 -0.199507
H58   H     H_    0.531687 0.904645 0.344934 0.146145
H59   H     H_    0.353367 0.504756 0.914661 0.145675
H60   H     H_    0.918981 0.360168 0.487712 0.141393
H61   H     H_    0.359886 0.919015 0.488156 0.142563
H62   H     H_    0.903609 0.533289 0.344880 0.145329
H63   H     H_    0.503892 0.353777 0.914879 0.145773
O73   O     O_R   0.429600 0.775990 0.283160 -0.579667
O74   O     O_R   0.283160 0.429600 0.775990 -0.584887
O75   O     O_R   0.775990 0.283160 0.429600 -0.584236
O76   O     O_R   0.283160 0.775990 0.429600 -0.571409
O77   O     O_R   0.775990 0.429600 0.283160 -0.577635
O78   O     O_R   0.429600 0.283160 0.775990 -0.585233
O79   O     O_R   0.428860 0.842070 0.216970 -0.557399
O80   O     O_R   0.216970 0.428860 0.842070 -0.563599
O81   O     O_R   0.842070 0.216970 0.428860 -0.566335
O82   O     O_R   0.216970 0.842070 0.428860 -0.564887
O83   O     O_R   0.842070 0.428860 0.216970 -0.563638
O84   O     O_R   0.428860 0.216970 0.842070 -0.561668
C133  C     C_R   0.412154 0.824428 0.265213 0.785473
C134  C     C_R   0.264984 0.411295 0.824203 0.730770
C135  C     C_R   0.824159 0.265017 0.411207 0.726422
C136  C     C_R   0.265008 0.824158 0.411201 0.737603
C137  C     C_R   0.824380 0.412233 0.265240 0.789063
C138  C     C_R   0.411289 0.264991 0.824215 0.729357
C139  C     C_R   0.363659 0.851142 0.291570 -0.066203
C140  C     C_R   0.291195 0.362834 0.850828 -0.055909
C141  C     C_R   0.850920 0.291585 0.362983 -0.058200
C142  C     C_R   0.291504 0.850838 0.362903 -0.060687
C143  C     C_R   0.851023 0.363778 0.291654 -0.064865
C144  C     C_R   0.362867 0.291208 0.850894 -0.058334
C145  C     C_R   0.341414 0.900605 0.269586 -0.187584
C146  C     C_R   0.269149 0.340688 0.900223 -0.195412
C147  C     C_R   0.900399 0.269730 0.340860 -0.193118
C148  C     C_R   0.269522 0.900230 0.340813 -0.202691
C149  C     C_R   0.900462 0.341740 0.269728 -0.193786
C150  C     C_R   0.340678 0.269146 0.900317 -0.188718
H64   H     H_    0.360421 0.919436 0.233078 0.148238
H65   H     H_    0.232997 0.360154 0.919177 0.145199
H66   H     H_    0.919111 0.233011 0.359607 0.147110
H67   H     H_    0.233250 0.919084 0.360186 0.141156
H68   H     H_    0.919495 0.361347 0.233713 0.145293
H69   H     H_    0.359597 0.232527 0.919037 0.149164
H70   H     H_    0.998594 0.236750 0.433241 0.122597
H71   H     H_    0.477910 0.985168 0.222903 0.129015
H72   H     H_    0.194288 0.561494 0.954398 0.135377
H73   H     H_    0.560849 0.194764 0.954586 0.136735
H74   H     H_    0.236295 0.998330 0.433946 0.128273
H75   H     H_    0.951586 0.582629 0.184101 0.130568
C151  C     C_R   0.218344 0.271994 0.451944 -0.173808
C152  C     C_R   0.561681 0.181437 0.233660 -0.173109
C153  C     C_R   0.254106 0.502756 0.201451 -0.177406
C154  C     C_R   0.502119 0.254352 0.201756 -0.176056
C155  C     C_R   0.251961 0.197599 0.509261 -0.174565
C156  C     C_R   0.181447 0.562555 0.233314 -0.173812
C157  C     C_R   0.241423 0.294972 0.454148 -0.175633
C158  C     C_R   0.562712 0.204915 0.257067 -0.175566
C159  C     C_R   0.277662 0.503715 0.224727 -0.175272
C160  C     C_R   0.503308 0.277834 0.224960 -0.173785
C161  C     C_R   0.275015 0.220534 0.511445 -0.171361
C162  C     C_R   0.204990 0.563344 0.256805 -0.176279
C163  C     C_R   0.270029 0.269502 0.483952 0.108173
C164  C     C_R   0.533602 0.253418 0.252880 0.108495
C165  C     C_R   0.253396 0.533983 0.252697 0.107513
Cu1   Cu    Cu3+1 0.500020 0.500020 0.260100 0.960457
Cu2   Cu    Cu3+1 0.260100 0.500020 0.500020 0.955678
Cu3   Cu    Cu3+1 0.500020 0.260100 0.500020 0.958900
Cu4   Cu    Cu3+1 0.500030 0.500030 0.180750 0.949591
Cu5   Cu    Cu3+1 0.180750 0.500030 0.500030 0.944622
Cu6   Cu    Cu3+1 0.500030 0.180750 0.500030 0.946971
Cu7   Cu    Cu3+1 0.260230 0.739800 0.500010 0.966669
Cu8   Cu    Cu3+1 0.500010 0.260230 0.739800 0.960610
Cu9   Cu    Cu3+1 0.739800 0.500010 0.260230 0.953893
Cu10  Cu    Cu3+1 0.500010 0.739800 0.260230 0.953344
Cu11  Cu    Cu3+1 0.739800 0.260230 0.500010 0.961975
Cu12  Cu    Cu3+1 0.260230 0.500010 0.739800 0.959419
Cu13  Cu    Cu3+1 0.180880 0.819150 0.500010 1.041328
Cu14  Cu    Cu3+1 0.500010 0.180880 0.819150 1.033745
Cu15  Cu    Cu3+1 0.819150 0.500010 0.180880 1.024668
Cu16  Cu    Cu3+1 0.500010 0.819150 0.180880 1.029194
Cu17  Cu    Cu3+1 0.819150 0.180880 0.500010 1.039545
Cu18  Cu    Cu3+1 0.180880 0.500010 0.819150 1.032135
C166  C     C_R   0.199130 0.127202 0.199684 0.063408
C167  C     C_R   0.199242 0.199170 0.127200 0.064273
C168  C     C_R   0.127003 0.199558 0.199458 0.066651
C169  C     C_R   0.670083 0.482438 0.178576 -0.271036
C170  C     C_R   0.172720 0.663012 0.501362 -0.261746
C171  C     C_R   0.471378 0.183674 0.672919 -0.264489
C172  C     C_R   0.183601 0.471561 0.672789 -0.268178
C173  C     C_R   0.471417 0.672909 0.183667 -0.267652
C174  C     C_R   0.672572 0.182392 0.473196 -0.270091
H76   H     H_    0.649960 0.488356 0.213129 0.186748
H77   H     H_    0.210135 0.645161 0.499799 0.185379
H78   H     H_    0.477182 0.218259 0.652716 0.186698
H79   H     H_    0.218456 0.476751 0.652771 0.186808
H80   H     H_    0.477256 0.652697 0.218236 0.186877
H81   H     H_    0.653688 0.218871 0.474543 0.185482
C175  C     C_R   0.721203 0.469259 0.087819 -0.031539
C176  C     C_R   0.075860 0.709050 0.504707 -0.030459
C177  C     C_R   0.458519 0.092678 0.724322 -0.033200
C178  C     C_R   0.091935 0.460381 0.723590 -0.034623
C179  C     C_R   0.458479 0.724314 0.092715 -0.034844
C180  C     C_R   0.720089 0.086576 0.472547 -0.037587
C181  C     C_R   0.172981 0.661406 0.661796 -0.212866
C182  C     C_R   0.661071 0.172858 0.661192 -0.205634
C183  C     C_R   0.661478 0.661284 0.172878 -0.214502
H82   H     H_    0.210821 0.644016 0.644270 0.170742
H83   H     H_    0.643911 0.210870 0.643925 0.170761
H84   H     H_    0.643678 0.643556 0.210502 0.170223
C184  C     C_R   0.074520 0.706841 0.707424 0.076079
C185  C     C_R   0.705878 0.073973 0.706341 0.079532
C186  C     C_R   0.707937 0.707523 0.074995 0.076609
C187  C     C_R   0.338394 0.826712 0.496970 -0.210299
C188  C     C_R   0.498609 0.337422 0.826805 -0.221421
C189  C     C_R   0.816056 0.527678 0.328207 -0.218984
C190  C     C_R   0.527866 0.815951 0.328146 -0.218666
C191  C     C_R   0.826756 0.338489 0.496745 -0.209773
C192  C     C_R   0.337239 0.499028 0.826711 -0.221825
H85   H     H_    0.355776 0.788829 0.500139 0.170447
H86   H     H_    0.496854 0.356559 0.790476 0.166735
H87   H     H_    0.780178 0.524846 0.347631 0.171024
H88   H     H_    0.525088 0.780032 0.347597 0.170941
H89   H     H_    0.788867 0.355823 0.500039 0.170549
H90   H     H_    0.356442 0.497089 0.790444 0.166750
C193  C     C_R   0.293209 0.925030 0.488819 0.078464
C194  C     C_R   0.503466 0.287618 0.921029 0.072634
C195  C     C_R   0.910138 0.532705 0.278566 0.075209
C196  C     C_R   0.532814 0.910034 0.278352 0.074231
C197  C     C_R   0.925074 0.293427 0.488353 0.078803
C198  C     C_R   0.287267 0.504286 0.920807 0.072559
C199  C     C_R   0.528941 0.327732 0.327742 -0.216053
C200  C     C_R   0.327754 0.528797 0.327804 -0.215838
C201  C     C_R   0.338924 0.338944 0.495132 -0.209923
H91   H     H_    0.526050 0.347041 0.347105 0.170250
H92   H     H_    0.347060 0.525825 0.347199 0.170669
H93   H     H_    0.356120 0.356215 0.498441 0.170936
C202  C     C_R   0.533949 0.278408 0.278194 0.074521
C203  C     C_R   0.278433 0.534073 0.278125 0.074386
C204  C     C_R   0.294141 0.293896 0.486950 0.077893
C205  C     C_R   0.338799 0.826812 0.338481 -0.208197
C206  C     C_R   0.338275 0.338259 0.826689 -0.214397
C207  C     C_R   0.826772 0.338838 0.338551 -0.209392
H94   H     H_    0.355922 0.788753 0.355647 0.170538
H95   H     H_    0.355472 0.355446 0.788655 0.170977
H96   H     H_    0.788682 0.355855 0.355684 0.170879
C208  C     C_R   0.294160 0.925516 0.293981 0.077937
C209  C     C_R   0.293640 0.293670 0.925372 0.074939
C210  C     C_R   0.925531 0.294574 0.294057 0.076778
O85   O     O_R   0.488840 0.716740 0.570530 -0.584914
O86   O     O_R   0.570530 0.488840 0.716740 -0.567386
O87   O     O_R   0.716740 0.570530 0.488840 -0.574867
O88   O     O_R   0.570530 0.716740 0.488840 -0.575192
O89   O     O_R   0.716740 0.488840 0.570530 -0.584978
O90   O     O_R   0.488840 0.570530 0.716740 -0.567361
O91   O     O_R   0.487970 0.782940 0.571270 -0.590807
O92   O     O_R   0.571270 0.487970 0.782940 -0.570456
O93   O     O_R   0.782940 0.571270 0.487970 -0.579408
O94   O     O_R   0.571270 0.782940 0.487970 -0.582231
O95   O     O_R   0.782940 0.487970 0.571270 -0.591504
O96   O     O_R   0.487970 0.571270 0.782940 -0.570580
C211  C     C_R   0.476532 0.742887 0.596430 0.778023
C212  C     C_R   0.596428 0.476585 0.742843 0.806133
C213  C     C_R   0.734675 0.588009 0.501710 0.796843
C214  C     C_R   0.587952 0.734649 0.501738 0.797477
C215  C     C_R   0.742941 0.476378 0.596406 0.777888
C216  C     C_R   0.476759 0.596442 0.742783 0.806123
C217  C     C_R   0.469541 0.720340 0.648512 -0.060305
C218  C     C_R   0.648599 0.469232 0.720373 -0.070621
C219  C     C_R   0.708224 0.636499 0.506200 -0.067210
C220  C     C_R   0.636409 0.708244 0.506088 -0.066219
C221  C     C_R   0.720374 0.469159 0.648547 -0.060539
C222  C     C_R   0.469590 0.648589 0.720306 -0.070512
C223  C     C_R   0.464181 0.745824 0.674125 -0.199233
C224  C     C_R   0.674338 0.463709 0.745839 -0.196695
C225  C     C_R   0.730875 0.659633 0.509052 -0.198461
C226  C     C_R   0.659284 0.731096 0.508877 -0.201999
C227  C     C_R   0.745860 0.463559 0.674233 -0.200641
C228  C     C_R   0.464252 0.674300 0.745726 -0.196507
H97   H     H_    0.462319 0.783340 0.656021 0.144300
H98   H     H_    0.655989 0.463225 0.782941 0.144535
H99   H     H_    0.767843 0.641294 0.508899 0.144457
H100  H     H_    0.640328 0.767733 0.509784 0.143343
H101  H     H_    0.783375 0.461632 0.656146 0.144372
H102  H     H_    0.463764 0.655930 0.782822 0.144566
C229  C     C_R   0.269923 0.977367 0.270151 0.106242
C230  C     C_R   0.269577 0.269767 0.977243 0.105644
C231  C     C_R   0.977363 0.270757 0.269915 0.106969
C232  C     C_R   0.223507 0.075749 0.224355 0.110321
C233  C     C_R   0.223587 0.223659 0.075656 0.111317
C234  C     C_R   0.075620 0.224452 0.223803 0.110947
H103  H     H_    0.332828 0.998598 0.238507 0.126240
H104  H     H_    0.200182 0.295154 0.969773 0.146242
H105  H     H_    0.998247 0.238716 0.333145 0.122591
H106  H     H_    0.200763 0.969519 0.295243 0.142740
H107  H     H_    0.969751 0.296259 0.200525 0.145896
H108  H     H_    0.332813 0.237787 0.998057 0.127329
H109  H     H_    0.292688 0.083706 0.198779 0.126730
H110  H     H_    0.160530 0.255409 0.054604 0.134737
H111  H     H_    0.083305 0.198669 0.293228 0.127416
H112  H     H_    0.160773 0.054308 0.255774 0.138261
H113  H     H_    0.054424 0.256286 0.160785 0.134814
H114  H     H_    0.293015 0.197835 0.083213 0.127121
Cu19  Cu    Cu3+1 0.500070 0.739800 0.500070 0.954161
Cu20  Cu    Cu3+1 0.500070 0.500070 0.739800 0.960621
Cu21  Cu    Cu3+1 0.739800 0.500070 0.500070 0.954076
Cu22  Cu    Cu3+1 0.500070 0.819140 0.500070 0.942068
Cu23  Cu    Cu3+1 0.500070 0.500070 0.819140 0.950137
Cu24  Cu    Cu3+1 0.819140 0.500070 0.500070 0.941953
C235  C     C_R   0.471253 0.672134 0.672106 -0.213332
C236  C     C_R   0.672140 0.470981 0.672119 -0.212398
C237  C     C_R   0.660724 0.660693 0.505673 -0.211049
H115  H     H_    0.475750 0.652313 0.652324 0.171307
H116  H     H_    0.652294 0.475672 0.652277 0.171359
H117  H     H_    0.643096 0.642943 0.503602 0.169916
C238  C     C_R   0.461648 0.723059 0.722850 0.077008
C239  C     C_R   0.723085 0.461026 0.722955 0.077170
C240  C     C_R   0.706695 0.707180 0.510049 0.077171
C241  C     C_R   0.873644 0.804184 0.803705 0.343135
C242  C     C_R   0.802789 0.872971 0.802974 0.342227
C243  C     C_R   0.804630 0.804875 0.874339 0.340711
N1    N     N_R   0.851257 0.782304 0.851070 -0.388861
N2    N     N_R   0.849109 0.849488 0.779745 -0.387485
N3    N     N_R   0.780752 0.850307 0.850161 -0.391234
C244  C     C_R   0.955744 0.743880 0.805722 -0.162598
C245  C     C_R   0.788890 0.941950 0.727584 -0.159814
C246  C     C_R   0.729630 0.791430 0.943565 -0.163945
C247  C     C_R   0.806681 0.744782 0.956651 -0.165382
C248  C     C_R   0.741703 0.954746 0.804810 -0.163157
C249  C     C_R   0.942863 0.790263 0.728525 -0.159183
C250  C     C_R   0.004131 0.720725 0.782596 -0.166128
C251  C     C_R   0.765196 0.990250 0.704387 -0.167431
C252  C     C_R   0.706418 0.767467 0.991620 -0.173044
C253  C     C_R   0.783384 0.721618 0.005027 -0.170548
C254  C     C_R   0.718892 0.003221 0.781609 -0.166718
C255  C     C_R   0.991049 0.766328 0.705437 -0.163807
C256  C     C_R   0.022576 0.731407 0.732085 0.101769
C257  C     C_R   0.730095 0.021823 0.731008 0.105721
C258  C     C_R   0.732871 0.732374 0.023262 0.107043
C259  C     C_R   0.924657 0.779150 0.778946 0.100750
C260  C     C_R   0.777264 0.923679 0.778070 0.100928
C261  C     C_R   0.780021 0.780156 0.925505 0.102626
H118  H     H_    0.027229 0.695081 0.804425 0.134673
H119  H     H_    0.774274 0.002629 0.665581 0.145926
H120  H     H_    0.667737 0.776135 0.003666 0.142161
H121  H     H_    0.805080 0.695809 0.028228 0.133193
H122  H     H_    0.693205 0.026272 0.803502 0.135542
H123  H     H_    0.003356 0.774962 0.666701 0.166007
H124  H     H_    0.942917 0.734876 0.844595 0.145659
H125  H     H_    0.815952 0.918730 0.706069 0.152230
H126  H     H_    0.708193 0.818161 0.920223 0.155553
H127  H     H_    0.845547 0.735641 0.943833 0.144651
H128  H     H_    0.732414 0.941910 0.843723 0.151269
H129  H     H_    0.919625 0.816967 0.706978 0.155212
C262  C     C_R   0.880211 0.808729 0.499920 0.061896
C263  C     C_R   0.447289 0.898506 0.826285 0.059806
C264  C     C_R   0.824742 0.452695 0.896082 0.061332
C265  C     C_R   0.447080 0.826221 0.898634 0.059881
C266  C     C_R   0.810739 0.883117 0.492648 0.060514
C267  C     C_R   0.897083 0.451997 0.823911 0.059139
C268  C     C_R   0.806535 0.807992 0.504309 0.067457
C269  C     C_R   0.450804 0.825216 0.825227 0.066589
C270  C     C_R   0.824835 0.452188 0.824232 0.066186
C271  C     C_R   0.858561 0.858613 0.492781 -0.185207
C272  C     C_R   0.444991 0.874901 0.875022 -0.181526
C273  C     C_R   0.872876 0.452182 0.871776 -0.185040
H130  H     H_    0.878428 0.878096 0.488714 0.149500
H131  H     H_    0.443840 0.893675 0.893843 0.150940
H132  H     H_    0.891267 0.452733 0.889839 0.150386
C274  C     C_R   0.784962 0.857507 0.498711 -0.206877
C275  C     C_R   0.449757 0.801853 0.873495 -0.204950
C276  C     C_R   0.872755 0.452208 0.800411 -0.203530
C277  C     C_R   0.449964 0.873425 0.801873 -0.203629
C278  C     C_R   0.853996 0.783780 0.505529 -0.203362
C279  C     C_R   0.801261 0.452059 0.872242 -0.202658
H133  H     H_    0.748093 0.876430 0.498557 0.125106
H134  H     H_    0.451546 0.764349 0.891518 0.126470
H135  H     H_    0.891555 0.451663 0.763642 0.127957
H136  H     H_    0.450591 0.891905 0.764725 0.126867
H137  H     H_    0.871333 0.745803 0.509061 0.125496
H138  H     H_    0.763836 0.453659 0.890405 0.126675
C280  C     C_R   0.967204 0.802265 0.465383 -0.172331
C281  C     C_R   0.415339 0.985709 0.819879 -0.167501
C282  C     C_R   0.799342 0.491236 0.955395 -0.166754
C283  C     C_R   0.415135 0.819754 0.985841 -0.168909
C284  C     C_R   0.810590 0.968730 0.448488 -0.171053
C285  C     C_R   0.983786 0.419287 0.818475 -0.166090
C286  C     C_R   0.014525 0.777770 0.466185 -0.087290
C287  C     C_R   0.417313 0.032820 0.794775 -0.082087
C288  C     C_R   0.773551 0.495914 0.001281 -0.091360
C289  C     C_R   0.417165 0.794682 0.032929 -0.082552
C290  C     C_R   0.788247 0.018066 0.442827 -0.083938
C291  C     C_R   0.031080 0.420557 0.793828 -0.083281
C292  C     C_R   0.025838 0.733770 0.503136 0.135798
C293  C     C_R   0.453735 0.043556 0.749863 0.133251
C294  C     C_R   0.746906 0.465228 0.038556 0.132756
C295  C     C_R   0.453666 0.749838 0.043614 0.133423
C296  C     C_R   0.742795 0.034804 0.475862 0.133719
C297  C     C_R   0.042550 0.456441 0.748695 0.135127
C298  C     C_R   0.989324 0.713657 0.538227 -0.160334
C299  C     C_R   0.486798 0.006554 0.729743 -0.163001
C300  C     C_R   0.744892 0.431052 0.028396 -0.154594
C301  C     C_R   0.486771 0.729758 0.006589 -0.164551
C302  C     C_R   0.719336 0.001449 0.513466 -0.165585
C303  C     C_R   0.006127 0.489595 0.727815 -0.163641
C304  C     C_R   0.942006 0.737869 0.537083 -0.172665
C305  C     C_R   0.484268 0.959747 0.754380 -0.170839
C306  C     C_R   0.770139 0.426855 0.982138 -0.173273
C307  C     C_R   0.484199 0.754371 0.959800 -0.170135
C308  C     C_R   0.741268 0.952311 0.518608 -0.172898
C309  C     C_R   0.959121 0.487680 0.751983 -0.174136
C310  C     C_R   0.930414 0.782683 0.500921 0.106058
C311  C     C_R   0.448894 0.948663 0.799965 0.104787
C312  C     C_R   0.798097 0.456553 0.945341 0.103220
C313  C     C_R   0.448725 0.799879 0.948770 0.103247
C314  C     C_R   0.787345 0.935397 0.486537 0.104632
C315  C     C_R   0.947339 0.452946 0.797835 0.102528
H139  H     H_    0.042455 0.793081 0.437722 0.162388
H140  H     H_    0.390560 0.060832 0.810631 0.161396
H141  H     H_    0.774081 0.523882 0.007568 0.161842
H142  H     H_    0.390395 0.810506 0.060963 0.160897
H143  H     H_    0.806612 0.043126 0.412843 0.161446
H144  H     H_    0.058653 0.393683 0.810205 0.162428
H145  H     H_    0.997321 0.679612 0.566861 0.135045
H146  H     H_    0.515316 0.013633 0.695323 0.136224
H147  H     H_    0.724276 0.407249 0.056424 0.138154
H148  H     H_    0.515354 0.695393 0.013636 0.137490
H149  H     H_    0.684384 0.013320 0.539518 0.137824
H150  H     H_    0.013828 0.517668 0.693153 0.133993
H151  H     H_    0.959458 0.836196 0.436551 0.136195
H152  H     H_    0.387285 0.978288 0.854614 0.136898
H153  H     H_    0.819554 0.515420 0.927398 0.142070
H154  H     H_    0.387022 0.854444 0.978449 0.136873
H155  H     H_    0.845796 0.956623 0.422850 0.136003
H156  H     H_    0.975724 0.391706 0.853457 0.142692
H157  H     H_    0.914251 0.722020 0.564931 0.131032
H158  H     H_    0.510715 0.931828 0.738276 0.131443
H159  H     H_    0.768403 0.399961 0.975256 0.132392
H160  H     H_    0.510698 0.738315 0.931855 0.136050
H161  H     H_    0.722673 0.927290 0.548306 0.135135
H162  H     H_    0.931609 0.514082 0.735359 0.130476
C316  C     C_R   0.784049 0.734104 0.537936 -0.175077
C317  C     C_R   0.483277 0.804700 0.750477 -0.174749
C318  C     C_R   0.768448 0.426353 0.822028 -0.172690
C319  C     C_R   0.426114 0.768366 0.822326 -0.172841
C320  C     C_R   0.751711 0.805212 0.477400 -0.176554
C321  C     C_R   0.804378 0.483641 0.749848 -0.175071
C322  C     C_R   0.760135 0.709677 0.539147 -0.177110
C323  C     C_R   0.485775 0.780201 0.725824 -0.172742
C324  C     C_R   0.743945 0.428446 0.797602 -0.173706
C325  C     C_R   0.428625 0.743835 0.797652 -0.174289
C326  C     C_R   0.727672 0.780927 0.478805 -0.174764
C327  C     C_R   0.779918 0.485738 0.725477 -0.174142
C328  C     C_R   0.731663 0.732901 0.509607 0.109105
C329  C     C_R   0.458454 0.749498 0.749078 0.108135
C330  C     C_R   0.749456 0.458130 0.749004 0.109107
C331  C     C_R   0.780177 0.782151 0.506941 0.115289
C332  C     C_R   0.453410 0.799110 0.799027 0.113018
C333  C     C_R   0.798994 0.453909 0.798396 0.114823
H163  H     H_    0.763469 0.672806 0.563538 0.127873
H164  H     H_    0.509841 0.784623 0.688738 0.130689
H165  H     H_    0.721127 0.406379 0.816562 0.130782
H166  H     H_    0.406704 0.720905 0.816408 0.131009
H167  H     H_    0.706743 0.799432 0.454944 0.133773
H168  H     H_    0.784150 0.509760 0.688394 0.128487
H169  H     H_    0.805238 0.715527 0.561551 0.125845
H170  H     H_    0.505413 0.827415 0.731732 0.126842
H171  H     H_    0.763974 0.402694 0.859253 0.128720
H172  H     H_    0.402240 0.763809 0.859489 0.131342
H173  H     H_    0.748832 0.841782 0.452327 0.130365
H174  H     H_    0.826848 0.506058 0.730896 0.125554
C334  C     C_R   0.126202 0.198813 0.477732 0.064675
C335  C     C_R   0.529521 0.108901 0.181256 0.065641
C336  C     C_R   0.182559 0.524560 0.110986 0.064357
C337  C     C_R   0.523344 0.183141 0.111302 0.064401
C338  C     C_R   0.198239 0.126312 0.478107 0.064462
C339  C     C_R   0.108460 0.530948 0.180944 0.064749
C340  C     C_R   0.198375 0.198489 0.477864 0.065662
C341  C     C_R   0.529794 0.180984 0.181050 0.065619
C342  C     C_R   0.180693 0.530763 0.180757 0.065491
C343  C     C_R   0.150570 0.222373 0.477563 -0.201965
C344  C     C_R   0.531662 0.132432 0.204053 -0.201873
C345  C     C_R   0.205511 0.526760 0.134277 -0.201795
C346  C     C_R   0.525713 0.205952 0.134608 -0.201850
C347  C     C_R   0.221925 0.150565 0.477854 -0.202167
C348  C     C_R   0.132127 0.532798 0.203780 -0.202650
H175  H     H_    0.132039 0.259208 0.477845 0.123409
H176  H     H_    0.533219 0.113367 0.240430 0.124343
H177  H     H_    0.242558 0.526334 0.115703 0.124890
H178  H     H_    0.525403 0.242984 0.116053 0.124933
H179  H     H_    0.259109 0.132245 0.477010 0.125473
H180  H     H_    0.112723 0.535499 0.239723 0.123666
C349  C     C_R   0.150449 0.150846 0.477821 -0.198818
C350  C     C_R   0.525502 0.134585 0.134838 -0.201997
C351  C     C_R   0.133958 0.526900 0.134563 -0.201173
H181  H     H_    0.131410 0.131910 0.479624 0.127669
H182  H     H_    0.523776 0.116788 0.117012 0.124357
H183  H     H_    0.116349 0.523952 0.117438 0.127530
C352  C     C_R   0.041570 0.252012 0.509676 -0.174279
C353  C     C_R   0.561425 0.023343 0.233485 -0.174369
C354  C     C_R   0.257516 0.487951 0.050933 -0.173509
C355  C     C_R   0.486885 0.258074 0.051174 -0.175421
C356  C     C_R   0.251460 0.041728 0.510102 -0.173407
C357  C     C_R   0.041834 0.504570 0.255050 -0.174247
C358  C     C_R   0.993139 0.274628 0.512344 -0.172210
C359  C     C_R   0.562361 0.975335 0.256754 -0.174844
C360  C     C_R   0.282680 0.482829 0.005198 -0.178157
C361  C     C_R   0.481796 0.283164 0.005435 -0.179976
C362  C     C_R   0.274255 0.993274 0.512732 -0.170271
C363  C     C_R   0.994140 0.504853 0.278461 -0.174327
C364  C     C_R   0.976745 0.269396 0.485120 0.109378
C365  C     C_R   0.532682 0.960711 0.252984 0.109116
C366  C     C_R   0.260333 0.508926 0.969773 0.109122
C367  C     C_R   0.508023 0.260765 0.970008 0.108266
C368  C     C_R   0.269072 0.976731 0.485597 0.108232
C369  C     C_R   0.960814 0.532804 0.253413 0.108790
C370  C     C_R   0.009992 0.240966 0.455118 -0.174677
C371  C     C_R   0.501909 0.995138 0.225655 -0.174512
C372  C     C_R   0.212234 0.540214 0.981169 -0.169814
C373  C     C_R   0.539450 0.212725 0.981374 -0.171233
C374  C     C_R   0.240487 0.009843 0.455750 -0.173550
C375  C     C_R   0.976474 0.560301 0.204260 -0.172947
C376  C     C_R   0.058524 0.218326 0.452427 -0.172828
C377  C     C_R   0.500802 0.043117 0.202604 -0.174434
C378  C     C_R   0.187082 0.545322 0.026879 -0.174617
C379  C     C_R   0.544536 0.187657 0.027073 -0.175638
C380  C     C_R   0.217663 0.058395 0.453099 -0.171087
C381  C     C_R   0.024305 0.559859 0.180771 -0.173533
N4    N     N_R   0.797553 0.453756 0.093257 0.120447
O97   O     O_R   0.823854 0.409614 0.093413 -0.343610
O98   O     O_R   0.817770 0.486993 0.068230 -0.364001
N5    N     N_R   0.071896 0.779655 0.511620 0.116014
O99   O     O_R   0.073132 0.819111 0.474361 -0.352156
O100  O     O_R   0.040200 0.782407 0.553693 -0.379696
N6    N     N_R   0.454920 0.093083 0.798564 0.111954
O101  O     O_R   0.418664 0.113489 0.829943 -0.358660
O102  O     O_R   0.486023 0.051146 0.813268 -0.346398
N7    N     N_R   0.091897 0.457213 0.797829 0.112271
O103  O     O_R   0.050337 0.489071 0.811860 -0.349198
O104  O     O_R   0.111377 0.420677 0.829760 -0.361820
N8    N     N_R   0.454818 0.798579 0.093130 0.112265
O105  O     O_R   0.485860 0.813333 0.051155 -0.348791
O106  O     O_R   0.418567 0.829922 0.113587 -0.359524
N9    N     N_R   0.794633 0.086294 0.468523 0.114282
O107  O     O_R   0.805944 0.047789 0.504223 -0.354813
O108  O     O_R   0.828627 0.101262 0.430297 -0.359071

loop_
_geom_bond_atom_site_label_1
_geom_bond_atom_site_label_2
_geom_bond_distance
_ccdc_geom_bond_type
C199  H91   1.083481 S    
O46   Cu16  2.018772 S    
C325  H166  1.082772 S    
C54   H12   1.083664 S    
C14   C176  1.411438 A    
C72   H114  1.082860 S    
O15   C21   1.341018 S    
C255  C256  1.409862 A    
C318  C333  1.406373 A    
C46   C170  1.396619 A    
C16   C178  1.417740 A    
C64   C166  1.405576 A    
O17   C23   1.342793 S    
C243  N1    1.358921 A    
C108  C114  1.406666 A    
C123  C129  1.403531 A    
C63   C339  1.485662 S    
C126  C188  1.394447 A    
C83   C89   1.471843 S    
C89   C95   1.406597 A    
O67   Cu22  2.013392 S    
O91   Cu22  2.009483 S    
C339  C348  1.405931 A    
C90   C192  1.393731 A    
C194  C367  1.486569 S    
C299  H146  1.083100 S    
C52   C176  1.400551 A    
C27   C183  1.397157 A    
C127  H58   1.083397 S    
C262  C271  1.406685 A    
C70   C232  1.405090 A    
O41   C83   1.338957 S    
C190  H88   1.083441 S    
C100  C106  1.472494 S    
C240  C328  1.483033 S    
O58   C100  1.336684 S    
Cu21  Cu24  2.694165 S    
O78   C138  1.338379 S    
C117  C123  1.470411 S    
O77   Cu9   1.990332 S    
C252  C258  1.409172 A    
O92   Cu23  2.010556 S    
C252  H120  1.081999 S    
N6    O101  1.301263 A    
C38   C44   1.476352 S    
O40   C82   1.329653 S    
C71   C77   1.395979 A    
C145  H64   1.083290 S    
O38   C80   1.337948 S    
O73   Cu10  1.991002 S    
C68   C74   1.396061 A    
C103  C109  1.404808 A    
C72   C233  1.405681 A    
C27   C33   1.406620 A    
C31   C184  1.409706 A    
C366  C372  1.405940 A    
C170  H77   1.083486 S    
C247  H127  1.083147 S    
C172  H79   1.083318 S    
C276  H135  1.083571 S    
C244  C250  1.398644 A    
Cu9   Cu15  2.684795 S    
C30   C181  1.396111 A    
C23   C29   1.474859 S    
C334  C343  1.407145 A    
C278  H137  1.083365 S    
C137  C143  1.470367 S    
H16   C355  1.082867 S    
C128  H59   1.083155 S    
C121  C127  1.405016 A    
O43   Cu13  2.019472 S    
C253  H121  1.081865 S    
O50   C98   1.333755 S    
C146  C209  1.405267 A    
O6    C6    1.339283 S    
C96   H45   1.083188 S    
C251  H119  1.081981 S    
C193  C368  1.487145 S    
C131  C195  1.404507 A    
C63   C357  1.404286 A    
C65   C167  1.404512 A    
C227  H101  1.083249 S    
C65   H38   1.083233 S    
C160  C164  1.405636 A    
C129  C197  1.405183 A    
H22   C160  1.082979 S    
N9    O107  1.301221 A    
C50   C178  1.404465 A    
C132  H63   1.083178 S    
O25   C37   1.331030 S    
C350  H182  1.082899 S    
C266  C271  1.404735 A    
C107  C200  1.396960 A    
C249  H129  1.083036 S    
C341  C344  1.406609 A    
C114  C202  1.405031 A    
C67   C232  1.405945 A    
H15   C354  1.082853 S    
C264  C312  1.486051 S    
C327  C330  1.405917 A    
C270  C279  1.406620 A    
O36   Cu6   2.009566 S    
C66   C168  1.404436 A    
H36   C381  1.082946 S    
C266  C314  1.482748 S    
C316  C322  1.399149 A    
O22   C22   1.334841 S    
C346  H178  1.083059 S    
C269  C277  1.405901 A    
C307  H160  1.083117 S    
C282  H153  1.083189 S    
C272  H131  1.083620 S    
O72   Cu23  2.013464 S    
C242  C260  1.483126 S    
C219  C237  1.399166 A    
Cu2   Cu5   2.694156 S    
O12   C6    1.318934 S    
O51   C99   1.343424 S    
C226  C240  1.403300 A    
C78   H108  1.082869 S    
C318  C324  1.399918 A    
C169  H76   1.083643 S    
C268  C331  1.486084 S    
C298  H145  1.083085 S    
C74   C230  1.405059 A    
O30   C42   1.331214 S    
C246  C261  1.404151 A    
C28   C34   1.406211 A    
C92   H41   1.083203 S    
C189  H87   1.083457 S    
O26   Cu2   1.991340 S    
C57   C153  1.406218 A    
C326  C328  1.404791 A    
O82   Cu13  2.006972 S    
C327  H168  1.082839 S    
O57   C99   1.336374 S    
C300  H147  1.083117 S    
C71   C234  1.405518 A    
C31   H1    1.082363 S    
C131  H62   1.083154 S    
C243  N3    1.358826 A    
H53   C359  1.082964 S    
O48   Cu18  2.019477 S    
C37   C43   1.478243 S    
C60   C336  1.486779 S    
C264  C279  1.405173 A    
C235  H115  1.083384 S    
C295  C301  1.405400 A    
O27   Cu3   1.992608 S    
C75   C231  1.405986 A    
O70   C118  1.336724 S    
C294  C300  1.404992 A    
C342  C348  1.406353 A    
C317  C332  1.405765 A    
O8    Cu13  2.017983 S    
C246  H126  1.083091 S    
C66   H39   1.083037 S    
C309  H162  1.083219 S    
H72   C372  1.082784 S    
C63   C381  1.406144 A    
C281  C287  1.402182 A    
C210  C231  1.485091 S    
C348  H180  1.082974 S    
C280  C286  1.396743 A    
C268  C274  1.405716 A    
C304  H157  1.083012 S    
O55   Cu4   2.013388 S    
O5    Cu10  2.001946 S    
O10   C4    1.324433 S    
C16   N7    1.434582 S    
C250  H118  1.081923 S    
O39   Cu9   2.002241 S    
C76   H106  1.082813 S    
O62   C116  1.338522 S    
O81   C135  1.331601 S    
Cu20  Cu23  2.692093 S    
O41   Cu11  2.002234 S    
C223  H97   1.083201 S    
C318  H171  1.082846 S    
O70   Cu22  2.014901 S    
C178  C297  1.493037 S    
C317  H170  1.082776 S    
O9    C3    1.325549 S    
C369  C375  1.405832 A    
C8    C170  1.398381 A    
O71   C119  1.326000 S    
C248  C260  1.403935 A    
N5    O99   1.301199 A    
C101  C107  1.469581 S    
O7    C1    1.315655 S    
C177  C293  1.494488 S    
C219  C225  1.405739 A    
C109  H46   1.083433 S    
C62   C338  1.487748 S    
C224  H98   1.083219 S    
C77   H107  1.082908 S    
O25   Cu1   1.991556 S    
C112  H49   1.083221 S    
O76   Cu7   1.990209 S    
C90   C96   1.405944 A    
H71   C371  1.083063 S    
C55   C155  1.405986 A    
C69   H111  1.082851 S    
C143  C207  1.397987 A    
C43   C173  1.399066 A    
O65   C119  1.330251 S    
O47   C83   1.330173 S    
C248  H128  1.083122 S    
C195  C369  1.488115 S    
O80   Cu18  2.007100 S    
C171  H78   1.083293 S    
C216  C222  1.472332 S    
O30   Cu3   1.991487 S    
C299  C305  1.399353 A    
O3    Cu8   2.001945 S    
O93   C213  1.336650 S    
C148  C208  1.405050 A    
C5    C11   1.486504 S    
O13   C19   1.343391 S    
C253  C258  1.409685 A    
C225  C240  1.404312 A    
C285  C291  1.400756 A    
C334  C349  1.405714 A    
C11   C17   1.422918 A    
C277  H136  1.083452 S    
C92   C194  1.404368 A    
C271  H130  1.083743 S    
H29   C155  1.082858 S    
N7    O104  1.301290 A    
O59   Cu4   2.014391 S    
C241  N2    1.361572 A    
O96   Cu23  2.009553 S    
C96   C198  1.404267 A    
C297  C303  1.406130 A    
O1    Cu9   2.002265 S    
C267  C273  1.405336 A    
C73   C229  1.405920 A    
O88   Cu19  1.995107 S    
C69   C75   1.399232 A    
C185  C257  1.498864 S    
H73   C373  1.082795 S    
C126  C132  1.405608 A    
C281  C311  1.404685 A    
C340  C343  1.405887 A    
C135  C141  1.469713 S    
O16   C22   1.342655 S    
O92   C212  1.325491 S    
H26   C152  1.082745 S    
H27   C153  1.082914 S    
H17   C356  1.082964 S    
C364  C370  1.405928 A    
C88   C94   1.405085 A    
C228  H102  1.083216 S    
N4    O98   1.301319 A    
C362  C368  1.405769 A    
C356  C362  1.396965 A    
C51   C180  1.401407 A    
O14   Cu11  1.989899 S    
C248  C254  1.397985 A    
H14   C353  1.082804 S    
O6    Cu11  2.002263 S    
C113  C203  1.404587 A    
C42   C48   1.478647 S    
C108  C199  1.397493 A    
O28   C40   1.341758 S    
C320  C331  1.405834 A    
O23   C23   1.337001 S    
C32   C185  1.409910 A    
H34   C379  1.082802 S    
O20   C20   1.334433 S    
C33   H3    1.082126 S    
O29   C41   1.332283 S    
C34   H4    1.082263 S    
C41   C47   1.467859 S    
C201  H93   1.083327 S    
C186  C258  1.497664 S    
O52   C100  1.343983 S    
C255  H123  1.082160 S    
O52   Cu2   1.997303 S    
C106  C201  1.398626 A    
C104  C200  1.397437 A    
C35   C185  1.410041 A    
C182  H83   1.083297 S    
O34   C40   1.332050 S    
O49   C97   1.331753 S    
C293  C299  1.405427 A    
C163  C204  1.488754 S    
O94   Cu22  2.010611 S    
C239  C330  1.487777 S    
C47   C169  1.392198 A    
C300  C306  1.402322 A    
C338  C349  1.405301 A    
O77   C137  1.340694 S    
O35   C41   1.317670 S    
C26   C32   1.407303 A    
C140  C146  1.403799 A    
N8    O105  1.301220 A    
C161  C163  1.405853 A    
O4    C4    1.339280 S    
C198  C366  1.486814 S    
O56   Cu5   2.013180 S    
C343  H175  1.082936 S    
O78   Cu8   1.990970 S    
H18   C357  1.082929 S    
C324  H165  1.082815 S    
C370  C376  1.399834 A    
O76   C136  1.337216 S    
C321  C327  1.396887 A    
C284  C314  1.404681 A    
C162  C165  1.405329 A    
C326  H167  1.083255 S    
O81   Cu17  2.006985 S    
O31   C37   1.325867 S    
C19   C25   1.472617 S    
C226  H100  1.083518 S    
O24   C24   1.329588 S    
O75   C135  1.337803 S    
H25   C151  1.082747 S    
C183  H84   1.083415 S    
C61   C337  1.486665 S    
O44   C80   1.324776 S    
C93   H42   1.083089 S    
O12   Cu17  2.018369 S    
C368  C374  1.406237 A    
C132  C194  1.403642 A    
H28   C154  1.082835 S    
C77   C231  1.404973 A    
O43   C79   1.330474 S    
C74   H104  1.082843 S    
O90   C216  1.332640 S    
O15   Cu10  1.990658 S    
C270  C333  1.487588 S    
C12   C18   1.424215 A    
C128  C198  1.403957 A    
C68   C233  1.405499 A    
C87   C93   1.407339 A    
C337  C346  1.404760 A    
Cu11  Cu17  2.684962 S    
C206  H95   1.083415 S    
C184  C256  1.497596 S    
C85   C91   1.405897 A    
C89   C191  1.397716 A    
C94   H43   1.083355 S    
C266  C274  1.402864 A    
C320  C326  1.394955 A    
C48   C171  1.399143 A    
C345  H177  1.083022 S    
C217  C223  1.405151 A    
O49   Cu1   1.997407 S    
C64   C167  1.404978 A    
C236  H116  1.083359 S    
O59   C101  1.323324 S    
C317  C323  1.398208 A    
C150  C209  1.404957 A    
C138  C144  1.467829 S    
C53   C175  1.402642 A    
C159  C165  1.405790 A    
C247  C253  1.399673 A    
O68   Cu23  2.014877 S    
C341  C346  1.406730 A    
O37   Cu7   2.001836 S    
C187  H85   1.083329 S    
O95   C215  1.327141 S    
C316  C331  1.407139 A    
C35   H5    1.082214 S    
C7    C13   1.421250 A    
C321  H174  1.082861 S    
C340  C347  1.405540 A    
C130  C193  1.405530 A    
C107  C113  1.405001 A    
C103  C199  1.397270 A    
C40   C46   1.470050 S    
C45   C51   1.402439 A    
C88   C190  1.397963 A    
C265  C313  1.487255 S    
O18   C24   1.338808 S    
C105  C201  1.398216 A    
C153  C159  1.397337 A    
C78   C230  1.406159 A    
C116  C122  1.464805 S    
O80   C134  1.331086 S    
N6    O102  1.301188 A    
C267  C315  1.484324 S    
C196  C365  1.484946 S    
O20   Cu17  2.006710 S    
C157  C163  1.406367 A    
O38   Cu8   2.001511 S    
C140  C206  1.396316 A    
Cu10  Cu16  2.684515 S    
C243  C261  1.482027 S    
C211  C217  1.471472 S    
C280  H151  1.083075 S    
H13   C352  1.082825 S    
C122  C192  1.394512 A    
O61   Cu19  1.995240 S    
H54   C360  1.082864 S    
C222  C235  1.397992 A    
C98   C104  1.470442 S    
O32   C38   1.326297 S    
H33   C378  1.082865 S    
C337  C350  1.404111 A    
C214  C220  1.469661 S    
O55   C97   1.323834 S    
H74   C374  1.083020 S    
C53   H11   1.083670 S    
C59   C377  1.406333 A    
C166  C232  1.485614 S    
N5    O100  1.300656 A    
O26   C38   1.331088 S    
O72   C120  1.327993 S    
O84   Cu14  2.007811 S    
C323  C329  1.406326 A    
O47   Cu17  2.019074 S    
H20   C158  1.083012 S    
C282  C312  1.404123 A    
C287  C293  1.408112 A    
C141  C147  1.404704 A    
C28   C183  1.397306 A    
O74   C134  1.338087 S    
C359  C365  1.405373 A    
C290  H143  1.082572 S    
C305  H158  1.083152 S    
H23   C161  1.082779 S    
C242  N2    1.361249 A    
O28   Cu2   1.991464 S    
C14   N5    1.434131 S    
C361  C367  1.405772 A    
C79   C85   1.471623 S    
C115  C121  1.470493 S    
O42   C84   1.337571 S    
C250  C256  1.408671 A    
O84   C138  1.330619 S    
C44   C172  1.398914 A    
C205  H94   1.083353 S    
C10   C172  1.401727 A    
C287  H140  1.082446 S    
C17   C179  1.417954 A    
O60   C102  1.323991 S    
O5    C5    1.339153 S    
C286  H139  1.082351 S    
C347  H179  1.083160 S    
C110  H47   1.083341 S    
C221  C227  1.404193 A    
C149  C210  1.405271 A    
O4    Cu12  2.002674 S    
C176  C292  1.484578 S    
C220  C237  1.398484 A    
C144  C206  1.396582 A    
C29   C182  1.398112 A    
C58   C334  1.487971 S    
C251  C257  1.410399 A    
C111  C204  1.406141 A    
O89   C215  1.332455 S    
O96   C216  1.324864 S    
C249  C259  1.404465 A    
C321  C333  1.405565 A    
O87   C213  1.343525 S    
C55   C151  1.406472 A    
Cu19  Cu22  2.692139 S    
O79   Cu16  2.007779 S    
C56   C154  1.406065 A    
C246  C252  1.399620 A    
O11   Cu16  2.017687 S    
O83   C137  1.335310 S    
O60   Cu6   2.013314 S    
C51   H9    1.083799 S    
C11   C173  1.402136 A    
C302  C308  1.397739 A    
C80   C86   1.465258 S    
C32   H2    1.082170 S    
C263  C311  1.487457 S    
C323  H164  1.082764 S    
O2    C2    1.345772 S    
C36   H6    1.082314 S    
O42   Cu12  2.001848 S    
O86   Cu20  1.995083 S    
C94   C196  1.404911 A    
C279  H138  1.083428 S    
C254  H122  1.081760 S    
O69   C117  1.337157 S    
C306  H159  1.083072 S    
C351  H183  1.083306 S    
C112  C204  1.406197 A    
C354  C360  1.398499 A    
C223  C238  1.405909 A    
C64   H37   1.083260 S    
C218  C236  1.398611 A    
C10   C16   1.423212 A    
C154  C160  1.397057 A    
C358  C364  1.405948 A    
H30   C156  1.082674 S    
C142  C205  1.397552 A    
C304  C310  1.407025 A    
O89   Cu21  1.993482 S    
C106  C112  1.406216 A    
O93   Cu24  2.009477 S    
C316  H169  1.082977 S    
C1    C7    1.474229 S    
C50   H8    1.083714 S    
C221  C236  1.398417 A    
C2    C8    1.477092 S    
O87   Cu21  1.993578 S    
C68   H110  1.082910 S    
C372  C378  1.397609 A    
C265  C272  1.408348 A    
O51   Cu3   1.998833 S    
C245  C260  1.404311 A    
H55   C361  1.082872 S    
C262  C310  1.483342 S    
C60   C378  1.405428 A    
C30   C36   1.406454 A    
C265  C275  1.405445 A    
C325  C329  1.405862 A    
O21   C21   1.332579 S    
O2    Cu7   2.002668 S    
O91   C211  1.325592 S    
C24   C30   1.470847 S    
O1    C1    1.336721 S    
C81   C87   1.472452 S    
N9    O108  1.301250 A    
C289  C295  1.408022 A    
O32   Cu5   2.009442 S    
C283  H154  1.083026 S    
C52   H10   1.083795 S    
C124  C130  1.403891 A    
C36   C184  1.408642 A    
C134  C140  1.467802 S    
C125  C131  1.403198 A    
C270  C276  1.406443 A    
C59   C335  1.487778 S    
C58   C352  1.405433 A    
C146  H65   1.083343 S    
C227  C239  1.405612 A    
C150  H69   1.083316 S    
C263  C277  1.405067 A    
C322  C328  1.405168 A    
C142  C148  1.403002 A    
O75   Cu11  1.990202 S    
C49   H7    1.083683 S    
C48   C54   1.404205 A    
C360  C366  1.405681 A    
C39   C45   1.470207 S    
C303  C309  1.399263 A    
O48   C84   1.324711 S    
C56   C341  1.489072 S    
O94   C214  1.336542 S    
C55   C340  1.489058 S    
O33   Cu6   2.011074 S    
C289  H142  1.082468 S    
O29   Cu1   1.992548 S    
C267  C276  1.403400 A    
C57   C342  1.489509 S    
O35   Cu4   2.011048 S    
C6    C12   1.481392 S    
C13   C175  1.413609 A    
C164  C202  1.486532 S    
C373  C379  1.397419 A    
C127  C196  1.404055 A    
C15   C177  1.417964 A    
C175  C294  1.488667 S    
C215  C221  1.471659 S    
C197  C364  1.487295 S    
C65   C168  1.404235 A    
C149  H68   1.083366 S    
O11   C5    1.325533 S    
C4    C10   1.486049 S    
O85   C211  1.332517 S    
C125  C189  1.398224 A    
O61   C115  1.330501 S    
C167  C233  1.485607 S    
O88   C214  1.341904 S    
C109  C202  1.404514 A    
C181  H82   1.083420 S    
C113  H50   1.083412 S    
C143  C149  1.403688 A    
C139  C145  1.405661 A    
C82   C88   1.471371 S    
O73   C133  1.341509 S    
C371  C377  1.396702 A    
C104  C110  1.406855 A    
O50   Cu2   1.997207 S    
H75   C375  1.082747 S    
C66   C166  1.406111 A    
O68   C116  1.327631 S    
O83   Cu15  2.007084 S    
C54   C177  1.406036 A    
C249  C255  1.401158 A    
C15   N6    1.434628 S    
C283  C313  1.404708 A    
C62   C380  1.406614 A    
C122  C128  1.405801 A    
C34   C186  1.408873 A    
C288  C294  1.405029 A    
C93   C195  1.406509 A    
O22   Cu15  2.006838 S    
C145  C208  1.405894 A    
N7    O103  1.301197 A    
O24   Cu13  2.006724 S    
C17   N8    1.434648 S    
C105  C111  1.405113 A    
C152  C158  1.399720 A    
C56   C152  1.407315 A    
O65   Cu21  1.995097 S    
C33   C186  1.409080 A    
C119  C125  1.469527 S    
C353  C359  1.399101 A    
O17   Cu8   1.990690 S    
C342  C345  1.406650 A    
O27   C39   1.328722 S    
C67   H109  1.082906 S    
C282  C288  1.397393 A    
C319  C332  1.406539 A    
C151  C157  1.400088 A    
O54   C102  1.333081 S    
C20   C26   1.475126 S    
C46   C52   1.404081 A    
C296  C302  1.405423 A    
O37   C79   1.338138 S    
C95   H44   1.083268 S    
O95   Cu24  2.009347 S    
C269  C332  1.488899 S    
O19   C19   1.334615 S    
O85   Cu19  1.993618 S    
H19   C157  1.082828 S    
O46   C82   1.322130 S    
C212  C218  1.472820 S    
C123  C191  1.398447 A    
C336  C351  1.404712 A    
O18   Cu7   1.989890 S    
O67   C115  1.325128 S    
C338  C347  1.405749 A    
O66   Cu20  1.995308 S    
C291  C297  1.407400 A    
C73   H103  1.082854 S    
O64   Cu19  1.996361 S    
C49   C179  1.405874 A    
C349  H181  1.083184 S    
C336  C345  1.405461 A    
C29   C35   1.405464 A    
C319  C325  1.399577 A    
C305  C311  1.405828 A    
C136  C142  1.469043 S    
C269  C275  1.405652 A    
C374  C380  1.399653 A    
C254  C257  1.408956 A    
H32   C377  1.082740 S    
C284  C290  1.400009 A    
C8    C14   1.420838 A    
C85   C187  1.398057 A    
O79   C133  1.334609 S    
C62   C356  1.405834 A    
C224  C239  1.406108 A    
C13   N4    1.434504 S    
C302  H149  1.083273 S    
C87   C189  1.397709 A    
C191  H89   1.083340 S    
O54   Cu3   1.997340 S    
C141  C207  1.398012 A    
C301  H148  1.083100 S    
C242  N3    1.360024 A    
H24   C162  1.083078 S    
C21   C27   1.473067 S    
C59   C353  1.406534 A    
C22   C28   1.472735 S    
C102  C108  1.470362 S    
C139  C205  1.398211 A    
N8    O106  1.301283 A    
O44   Cu14  2.018775 S    
C264  C273  1.407537 A    
O10   Cu18  2.017988 S    
C263  C272  1.408186 A    
C180  C296  1.489545 S    
C344  H176  1.082992 S    
O63   Cu21  1.995218 S    
C209  C230  1.485533 S    
C61   C379  1.405482 A    
C298  C304  1.400182 A    
C280  C310  1.403389 A    
C86   C188  1.393633 A    
Cu12  Cu18  2.684800 S    
C165  C203  1.486860 S    
H21   C159  1.083013 S    
C91   C193  1.406083 A    
C155  C161  1.397650 A    
C339  C351  1.404144 A    
C363  C369  1.406957 A    
C213  C219  1.471184 S    
O82   C136  1.332027 S    
C72   C78   1.399093 A    
C228  C238  1.406330 A    
H56   C362  1.082995 S    
C97   C103  1.469688 S    
H70   C370  1.083038 S    
C95   C197  1.406454 A    
O66   C120  1.338929 S    
C124  C187  1.398712 A    
C247  C261  1.403762 A    
C320  H173  1.082987 S    
C262  C278  1.403982 A    
C200  H92   1.083486 S    
C286  C292  1.404719 A    
O23   Cu14  2.007521 S    
O64   C118  1.341101 S    
C308  C314  1.404521 A    
C133  C139  1.471175 S    
C375  C381  1.399325 A    
O53   C101  1.331841 S    
C288  H141  1.082200 S    
O53   Cu1   1.998810 S    
C335  C344  1.406195 A    
C67   C73   1.399162 A    
O13   Cu12  1.990020 S    
C237  H117  1.083380 S    
Cu8   Cu14  2.684520 S    
O33   C39   1.320410 S    
C188  H86   1.083763 S    
C241  N1    1.360197 A    
C18   N9    1.434345 S    
C301  C307  1.399278 A    
O40   Cu10  2.001512 S    
C308  H161  1.083273 S    
C217  C235  1.397786 A    
C9    C171  1.402165 A    
C281  H152  1.083009 S    
O57   Cu6   2.014442 S    
Cu1   Cu4   2.692091 S    
O7    Cu15  2.018379 S    
O31   Cu4   2.009639 S    
C86   C92   1.406088 A    
C147  H66   1.083336 S    
C130  H61   1.083334 S    
C18   C180  1.414740 A    
C70   H112  1.082839 S    
C207  H96   1.083346 S    
C319  H172  1.082773 S    
C158  C164  1.405311 A    
C57   C156  1.407456 A    
C173  H80   1.083298 S    
C76   C229  1.405557 A    
C25   C31   1.406630 A    
C47   C53   1.405858 A    
C285  C315  1.404253 A    
C268  C278  1.405197 A    
C292  C298  1.403295 A    
C324  C330  1.406087 A    
C114  H51   1.083332 S    
Cu7   Cu13  2.684964 S    
C309  C315  1.404734 A    
C70   C76   1.396215 A    
C322  H163  1.083176 S    
C352  C358  1.397068 A    
C118  C124  1.471142 S    
N4    O97   1.300662 A    
O21   Cu16  2.007553 S    
C60   C354  1.406109 A    
C283  C289  1.402105 A    
O16   Cu9   1.989998 S    
C9    C15   1.422931 A    
C273  H132  1.083743 S    
C69   C234  1.406202 A    
C99   C105  1.472202 S    
C43   C49   1.404009 A    
C220  C226  1.402692 A    
O3    C3    1.339207 S    
C121  C190  1.398981 A    
C218  C224  1.406434 A    
O58   Cu5   2.013307 S    
C58   C376  1.406917 A    
O34   Cu5   2.009537 S    
H57   C363  1.082708 S    
O8    C2    1.325586 S    
H35   C380  1.082990 S    
C147  C210  1.405084 A    
C367  C373  1.405723 A    
C84   C90   1.465256 S    
C291  H144  1.082448 S    
C129  H60   1.083347 S    
C303  H150  1.083147 S    
C45   C174  1.396217 A    
C275  H134  1.083484 S    
Cu3   Cu6   2.692135 S    
C241  C259  1.483409 S    
C120  C126  1.464405 S    
C225  H99   1.083378 S    
C355  C361  1.398594 A    
C75   H105  1.083037 S    
C357  C363  1.396913 A    
C290  C296  1.406490 A    
O9    Cu14  2.017681 S    
O90   Cu20  1.993685 S    
C245  C251  1.402021 A    
C148  H67   1.083354 S    
C222  C228  1.406535 A    
O63   C117  1.341495 S    
C44   C50   1.402986 A    
C156  C162  1.399818 A    
C208  C229  1.486021 S    
C245  H125  1.083056 S    
O62   Cu20  1.996306 S    
C244  C259  1.404375 A    
C284  H155  1.083189 S    
C110  C203  1.405155 A    
H31   C376  1.082922 S    
C71   H113  1.082910 S    
C168  C234  1.486068 S    
C306  C312  1.407078 A    
C61   C355  1.405970 A    
O56   C98   1.324544 S    
C25   C181  1.396313 A    
C307  C313  1.405759 A    
C192  H90   1.083765 S    
C144  C150  1.404825 A    
C111  H48   1.083263 S    
O74   Cu12  1.990306 S    
O45   Cu15  2.019075 S    
O45   C81   1.321220 S    
C238  C329  1.488830 S    
C274  H133  1.083509 S    
O39   C81   1.330680 S    
O36   C42   1.325949 S    
O19   Cu18  2.006824 S    
C3    C9    1.486560 S    
O14   C20   1.341924 S    
C12   C174  1.399136 A    
O71   Cu24  2.013271 S    
C7    C169  1.395796 A    
O86   C212  1.332731 S    
H52   C358  1.082907 S    
C285  H156  1.083106 S    
C365  C371  1.404880 A    
O69   Cu24  2.013363 S    
C179  C295  1.494217 S    
C335  C350  1.405260 A    
C26   C182  1.398366 A    
C91   H40   1.083265 S    
C174  H81   1.083550 S    
C244  H124  1.083128 S    
