data_mof_unit_pretest_96.cif
_audit_creation_date              2012-10-26T18:32:19-0400
_audit_creation_method            fapswitch 2.2
_symmetry_space_group_name_H-M    P1
_symmetry_Int_Tables_number       1
_space_group_crystal_system       triclinic
_cell_length_a                    12.369375
_cell_length_b                    13.150415
_cell_length_c                    15.855441
_cell_angle_alpha                 77.478381
_cell_angle_beta                  101.083135
_cell_angle_gamma                 116.817797
_cell_volume                      2233.71076395

loop_
_atom_site_label
_atom_site_type_symbol
_atom_type_description
_atom_site_fract_x
_atom_site_fract_y
_atom_site_fract_z
_atom_type_partial_charge
C1    C     C_R   0.854926 0.286320 0.508614 0.517631
C2    C     C_R   0.227962 0.834945 0.468464 -0.002850
C3    C     C_R   0.813039 0.084847 0.571581 -0.142357
C4    C     C_R   0.000214 0.500626 0.659365 0.532989
C5    C     C_R   0.733948 0.969147 0.588225 -0.175218
C6    C     C_R   0.612223 0.930632 0.554149 -0.099096
C7    C     C_R   0.566711 0.008024 0.502311 0.039312
C8    C     C_R   0.651776 0.121858 0.474855 0.009744
C9    C     C_R   0.440710 0.975033 0.473187 0.032297
C10   C     C_R   0.405976 0.048049 0.404795 0.012699
C11   C     C_R   0.493717 0.153519 0.370478 -0.138125
C12   C     C_3   0.110135 0.472179 0.069133 0.205906
C13   C     C_R   0.614557 0.190461 0.405324 -0.129531
C14   C     C_R   0.347111 0.873600 0.510644 0.233141
C15   C     C_R   0.195667 0.906658 0.400179 -0.195694
C16   C     C_R   0.144926 0.713425 0.487348 0.565429
C17   C     C_R   0.772988 0.162592 0.515921 -0.004385
C18   C     C_R   0.349020 0.333909 0.642455 -0.168637
C19   C     C_R   0.766538 0.654979 0.389080 0.424521
C20   C     C_R   0.688703 0.708744 0.384547 0.213176
C21   C     C_R   0.586874 0.652967 0.429854 -0.174108
C22   C     C_R   0.560499 0.545095 0.481302 -0.066509
C23   C     C_3   0.004034 0.498918 0.084163 -0.004914
C24   C     C_R   0.654449 0.506533 0.498294 0.116370
C25   C     C_R   0.451180 0.481117 0.524058 0.011747
C26   C     C_R   0.449080 0.392727 0.594132 0.022810
C27   C     C_R   0.546490 0.362613 0.615277 -0.163244
C28   C     C_R   0.000102 0.499469 0.340660 0.542289
C29   C     C_R   0.645471 0.416288 0.567122 -0.081245
C30   C     C_R   0.341338 0.496715 0.499441 0.262099
C31   C     C_R   0.249270 0.359895 0.620044 0.015619
C32   C     C_3   0.120702 0.488594 0.970196 0.178275
C33   C     C_3   0.879916 0.410586 0.950347 0.170638
C34   C     C_3   0.010404 0.615667 0.029960 -0.268171
C35   C     C_3   0.882889 0.402211 0.050085 -0.243045
C36   C     C_1   0.001083 0.498093 0.251500 -0.035792
C37   C     C_3   0.005549 0.502220 0.917014 0.051091
C38   C     C_3   0.275463 0.642544 0.115555 -0.006738
C39   C     C_3   0.410557 0.686059 0.147677 -0.363771
C40   C     C_3   0.340503 0.843621 0.656604 -0.003758
C41   C     C_3   0.353885 0.766824 0.740871 -0.374424
C42   C     C_3   0.234986 0.430149 0.905765 -0.013755
C43   C     C_3   0.233258 0.326607 0.876598 -0.378138
C44   C     C_3   0.834367 0.739664 0.252419 -0.000254
C45   C     C_3   0.019126 0.620526 0.932581 -0.318783
C46   C     C_3   0.906952 0.720575 0.195163 -0.392438
C47   C     C_3   0.798041 0.900548 0.388085 -0.015669
C48   C     C_3   0.807997 0.018936 0.344184 -0.372167
C49   C     C_3   0.884480 0.232922 0.942336 0.033570
C50   C     C_3   0.792042 0.107350 0.948956 -0.401195
C51   C     C_1   0.002550 0.497820 0.176239 -0.051199
C52   C     C_1   0.003249 0.503497 0.824354 -0.017114
C53   C     C_1   0.001306 0.502605 0.748712 -0.034919
C54   C     C_R   0.283722 0.014185 0.370205 -0.157020
Cu1   Cu    Cu3+1 0.098280 0.475420 0.519630 0.973912
Cu2   Cu    Cu3+1 0.901720 0.524580 0.480370 0.964181
H1    H     H_    0.079968 0.378429 0.092539 0.158073
H2    H     H_    0.678920 0.271476 0.374403 0.146244
H3    H     H_    0.172533 0.315750 0.657960 0.115037
H4    H     H_    0.545253 0.295021 0.668807 0.114115
H5    H     H_    0.348006 0.268126 0.697392 0.092110
H6    H     H_    0.535604 0.700803 0.428855 0.133980
H7    H     H_    0.715062 0.386971 0.588462 0.185295
H8    H     H_    0.815041 0.449624 0.922035 0.142899
H9    H     H_    0.872342 0.316104 0.085399 0.111079
H10   H     H_    0.803750 0.412885 0.063632 0.102507
H11   H     H_    0.107513 0.691098 0.913396 0.104189
H12   H     H_    0.201909 0.570961 0.954103 0.096208
H13   H     H_    0.946821 0.642939 0.891631 0.116788
H14   H     H_    0.086368 0.691508 0.055525 0.111118
H15   H     H_    0.232459 0.665472 0.159294 0.146912
H16   H     H_    0.267408 0.687829 0.048657 0.101607
H17   H     H_    0.457724 0.665485 0.105419 0.144595
H18   H     H_    0.451795 0.780893 0.146078 0.105067
H19   H     H_    0.423393 0.644855 0.215473 0.168618
H20   H     H_    0.244585 0.833456 0.645404 0.119125
H21   H     H_    0.403479 0.934782 0.664024 0.132098
H22   H     H_    0.449204 0.776345 0.755295 0.150504
H23   H     H_    0.926356 0.624051 0.035063 0.120764
H24   H     H_    0.330459 0.791327 0.795296 0.077141
H25   H     H_    0.291556 0.675394 0.734957 0.162637
H26   H     H_    0.320394 0.469230 0.949218 0.144579
H27   H     H_    0.233585 0.493680 0.846861 0.125322
H28   H     H_    0.149328 0.287172 0.832204 0.140903
H29   H     H_    0.313894 0.354186 0.841603 0.098339
H30   H     H_    0.235562 0.261515 0.933876 0.154093
H31   H     H_    0.357695 0.549095 0.368518 0.214488
H32   H     H_    0.347821 0.646017 0.422758 0.229215
H33   H     H_    0.859484 0.833531 0.242596 0.166428
H34   H     H_    0.103581 0.877942 0.367947 0.158879
H35   H     H_    0.735786 0.692522 0.229695 0.129211
H36   H     H_    0.871239 0.627122 0.193220 0.156069
H37   H     H_    0.896993 0.764486 0.127875 0.081665
H38   H     H_    0.005049 0.755476 0.220507 0.157558
H39   H     H_    0.889254 0.900599 0.394099 0.148373
H40   H     H_    0.770582 0.885227 0.454272 0.138595
H41   H     H_    0.718434 0.021726 0.338615 0.166843
H42   H     H_    0.876225 0.085676 0.383291 0.112434
H43   H     H_    0.837022 0.038022 0.278260 0.144472
H44   H     H_    0.940945 0.244844 0.005816 0.150981
H45   H     H_    0.468627 0.208506 0.316910 0.113791
H46   H     H_    0.941816 0.249280 0.890590 0.193738
H47   H     H_    0.735051 0.090122 0.885793 0.158707
H48   H     H_    0.840088 0.050625 0.966144 0.090339
H49   H     H_    0.732300 0.087285 0.000066 0.151932
H50   H     H_    0.257145 0.068894 0.317304 0.120104
H51   H     H_    0.905697 0.113624 0.602791 0.125365
H52   H     H_    0.557404 0.838962 0.565720 0.176388
H53   H     H_    0.766827 0.908949 0.628569 0.110583
N1    N     N_R   0.246300 0.438200 0.549400 -0.198272
N2    N     N_R   0.754300 0.561180 0.451130 -0.251125
N3    N     N_3   0.319564 0.559774 0.417446 -0.565489
O1    O     O_R   0.972520 0.318130 0.524690 -0.509148
O2    O     O_3   0.369840 0.810592 0.588255 -0.571529
O3    O     O_3   0.132556 0.393773 0.950836 -0.602255
O4    O     O_3   0.865496 0.703181 0.340847 -0.529293
O5    O     O_3   0.711574 0.816642 0.337448 -0.591147
O6    O     O_3   0.821736 0.303336 0.917859 -0.571136
O7    O     O_R   0.806530 0.359650 0.491530 -0.530878
O8    O     O_R   0.083030 0.479240 0.637150 -0.504793
O9    O     O_R   0.917040 0.520750 0.603990 -0.518403
O10   O     O_R   0.193470 0.640350 0.508470 -0.452411
O11   O     O_R   0.027480 0.681870 0.475310 -0.471666
O12   O     O_R   0.082960 0.479250 0.396010 -0.458121
O13   O     O_R   0.916970 0.520760 0.362850 -0.463869
O14   O     O_3   0.224606 0.521607 0.120069 -0.563750

loop_
_geom_bond_atom_site_label_1
_geom_bond_atom_site_label_2
_ccdc_geom_bond_type
Cu1   Cu2   S    
C29   H7    S    
C50   H48   S    
C8    C13   A    
C4    C53   S    
C27   C29   A    
C19   C20   A    
C18   C26   A    
C41   H24   S    
C7    C8    A    
C28   O13   A    
C48   H41   S    
C12   C23   S    
C26   C27   A    
C30   N1    A    
C16   O11   A    
C27   H4    S    
C38   C39   S    
C12   O14   S    
C35   H9    S    
C1    O7    A    
C39   H18   S    
C31   H3    S    
C16   O10   A    
C24   C29   A    
Cu1   O12   S    
C40   O2    S    
C47   C48   S    
C22   C25   A    
C42   H26   S    
C45   H11   S    
C50   H49   S    
C47   H40   S    
C39   H19   S    
C2    C16   S    
C9    C10   A    
C34   H14   S    
Cu2   N2    S    
C32   H12   S    
Cu1   O10   S    
C50   H47   S    
C21   C22   A    
C12   C32   S    
C43   H28   S    
C24   N2    A    
C1    O1    A    
C2    C14   A    
C20   O5    S    
C38   O14   S    
C44   C46   S    
Cu1   O8    S    
C38   H16   S    
C54   H50   S    
C45   H13   S    
C43   H29   S    
Cu2   O11   S    
C41   H22   S    
C37   C52   S    
H31   N3    S    
Cu1   O1    S    
C35   H10   S    
C3    H51   S    
C25   C26   A    
Cu2   O13   S    
C33   C37   S    
C40   H20   S    
C30   N3    S    
C9    C14   A    
C15   C54   A    
C34   H23   S    
C23   C51   S    
C49   O6    S    
C46   H38   S    
C47   O5    S    
C23   C34   S    
C41   H25   S    
C11   H45   S    
C34   C45   S    
C32   C37   S    
C2    C15   A    
C36   C51   T    
C44   O4    S    
C21   H6    S    
C44   H35   S    
C12   H1    S    
C40   C41   S    
C23   C35   S    
Cu1   N1    S    
Cu2   O7    S    
C22   C24   A    
C42   C43   S    
C37   C45   S    
C49   H46   S    
C52   C53   T    
C25   C30   A    
C7    C9    A    
C48   H43   S    
C38   H15   S    
C47   H39   S    
C43   H30   S    
C42   H27   S    
C3    C5    A    
C28   O12   A    
C18   H5    S    
C6    C7    A    
C13   H2    S    
C19   N2    A    
C48   H42   S    
C1    C17   S    
C8    C17   A    
Cu2   O9    S    
C14   O2    S    
C49   H44   S    
C11   C13   A    
C5    C6    A    
C46   H37   S    
C5    H53   S    
C19   O4    S    
C33   H8    S    
C33   C35   S    
C31   N1    A    
C4    O9    A    
C3    C17   A    
C39   H17   S    
C32   O3    S    
C10   C54   A    
C10   C11   A    
H32   N3    S    
C42   O3    S    
C33   O6    S    
C46   H36   S    
C20   C21   A    
C28   C36   S    
C49   C50   S    
C6    H52   S    
C40   H21   S    
C4    O8    A    
C18   C31   A    
C44   H33   S    
C15   H34   S    
