data_mof_unit_pretest_1532.cif
_audit_creation_date              2012-12-10T19:18:38-0500
_audit_creation_method            fapswitch 2.2
_symmetry_space_group_name_H-M    P1
_symmetry_Int_Tables_number       1
_space_group_crystal_system       triclinic
_cell_length_a                    14.783258
_cell_length_b                    16.031651
_cell_length_c                    17.270867
_cell_angle_alpha                 89.981398
_cell_angle_beta                  85.535292
_cell_angle_gamma                 89.990788
_cell_volume                      4080.77487805

loop_
_atom_site_label
_atom_site_type_symbol
_atom_type_description
_atom_site_fract_x
_atom_site_fract_y
_atom_site_fract_z
_atom_type_partial_charge
C1    C     C_R   0.500015 0.658982 0.499979 0.823180
C2    C     C_R   0.499985 0.341018 0.500021 0.823191
C3    C     C_R   0.418487 0.043890 0.492065 -0.068710
C4    C     C_R   0.581513 0.956109 0.507937 -0.068709
C5    C     C_R   0.500008 0.087499 0.499983 0.028016
C6    C     C_R   0.499992 0.912501 0.500018 0.028016
C7    C     C_R   0.581522 0.043852 0.507913 -0.068740
C8    C     C_R   0.418478 0.956148 0.492088 -0.068740
C9    C     C_1   0.500008 0.177391 0.499990 -0.020294
C10   C     C_1   0.499992 0.822608 0.500011 -0.020295
C11   C     C_1   0.500001 0.747784 0.499997 -0.138530
C12   C     C_1   0.499999 0.252216 0.500004 -0.138527
C13   C     C_R   0.054373 0.477888 0.432462 -0.048446
C14   C     C_R   0.945628 0.522108 0.567540 -0.048448
C15   C     C_R   0.097179 0.500036 0.500047 -0.070276
C16   C     C_R   0.902822 0.499960 0.499954 -0.070278
C17   C     C_R   0.041946 0.522179 0.567576 -0.048932
C18   C     C_R   0.958055 0.477816 0.432426 -0.048932
C19   C     C_1   0.197531 0.500015 0.500066 0.184840
C20   C     C_1   0.802469 0.499984 0.499935 0.184846
C21   C     C_R   0.487883 0.501046 0.650561 0.833886
C22   C     C_R   0.512117 0.498952 0.349438 0.833872
C23   C     C_R   0.480909 0.508741 0.735403 -0.061499
C24   C     C_R   0.519087 0.491253 0.264595 -0.061524
C25   C     C_R   0.553421 0.545433 0.770474 -0.274448
C26   C     C_R   0.446541 0.454617 0.229525 -0.274441
C27   C     C_R   0.550419 0.555088 0.850640 0.168738
C28   C     C_R   0.449532 0.444959 0.149361 0.168714
C29   C     C_R   0.474172 0.527290 0.896875 0.042189
C30   C     C_R   0.525803 0.472698 0.103123 0.042208
C31   C     C_R   0.399959 0.491429 0.862616 -0.081871
C32   C     C_R   0.600050 0.508499 0.137379 -0.081870
C33   C     C_R   0.403207 0.481992 0.781396 0.103184
C34   C     C_R   0.596812 0.517939 0.218598 0.103173
C35   C     C_2   0.476443 0.529174 0.981674 -0.049875
C36   C     C_2   0.523530 0.470816 0.018323 -0.049916
Cu1   Cu    Cu3+1 0.410780 0.500000 0.499980 1.017991
Cu2   Cu    Cu3+1 0.589220 0.500000 0.500020 1.017996
H1    H     H_    0.612850 0.567224 0.735552 0.181603
H2    H     H_    0.387091 0.432871 0.264447 0.181637
N1    N     N_1   0.723290 0.500020 0.499980 -0.145489
N2    N     N_1   0.276710 0.499980 0.500020 -0.145492
O1    O     O_R   0.424680 0.619690 0.499960 -0.567387
O2    O     O_R   0.575320 0.380310 0.500040 -0.567387
O3    O     O_R   0.575360 0.619690 0.500000 -0.567894
O4    O     O_R   0.424640 0.380310 0.500000 -0.567886
O5    O     O_R   0.415920 0.500010 0.613580 -0.543638
O6    O     O_R   0.584080 0.499990 0.386420 -0.543626
O7    O     O_R   0.566610 0.500010 0.613610 -0.588697
O8    O     O_R   0.433390 0.499990 0.386390 -0.588709
N3    N     N_3   0.670496 0.556801 0.254378 -0.552563
H3    H     H_    0.729552 0.522489 0.239979 0.249333
H4    H     H_    0.679512 0.616964 0.231698 0.227825
N4    N     N_3   0.329564 0.443067 0.745612 -0.552595
H5    H     H_    0.270472 0.477327 0.760014 0.249319
H6    H     H_    0.320611 0.382896 0.768285 0.227818
C37   C     C_1   0.572198 0.404192 0.976455 0.291864
N5    N     N_1   0.611072 0.351040 0.942984 -0.253274
C38   C     C_1   0.427781 0.595804 0.023540 0.291903
N6    N     N_1   0.388911 0.648959 0.057008 -0.253298
C39   C     C_1   0.321734 0.462083 0.910671 0.256463
N7    N     N_1   0.259252 0.438645 0.949089 -0.239835
C40   C     C_1   0.678304 0.537778 0.089321 0.256445
N8    N     N_1   0.740809 0.561162 0.050899 -0.239845
N9    N     N_3   0.374319 0.408051 0.114466 -0.567219
H7    H     H_    0.363859 0.348387 0.137929 0.235478
H8    H     H_    0.316526 0.443707 0.130061 0.248550
N10   N     N_3   0.625598 0.592051 0.885539 -0.567240
H9    H     H_    0.683424 0.556441 0.869940 0.248560
H10   H     H_    0.636003 0.651724 0.862081 0.235453
C41   C     C_1   0.334764 0.910788 0.483978 0.275864
N11   N     N_1   0.268049 0.874579 0.477516 -0.243381
C42   C     C_1   0.665235 0.089212 0.516023 0.275864
N12   N     N_1   0.731951 0.125421 0.522485 -0.243380
C43   C     C_1   0.334791 0.089292 0.483901 0.273123
N13   N     N_1   0.268092 0.125536 0.477393 -0.245797
C44   C     C_1   0.665209 0.910708 0.516100 0.273120
N14   N     N_1   0.731907 0.874464 0.522608 -0.245800
C45   C     C_1   0.915678 0.454723 0.362593 0.267805
N15   N     N_1   0.881847 0.436248 0.306864 -0.261277
C46   C     C_1   0.084323 0.545266 0.637410 0.267789
N16   N     N_1   0.118156 0.563736 0.693139 -0.261245
C47   C     C_1   0.109658 0.455130 0.362604 0.266708
N17   N     N_1   0.153864 0.436997 0.306888 -0.268525
C48   C     C_1   0.890343 0.544867 0.637397 0.266710
N18   N     N_1   0.846136 0.563000 0.693113 -0.268497

loop_
_geom_bond_atom_site_label_1
_geom_bond_atom_site_label_2
_ccdc_geom_bond_type
C22   O6    A    
C27   C29   A    
C42   N12   T    
C31   C39   S    
C35   C36   D    
C1    C11   S    
C2    C12   S    
C21   O7    A    
C46   N16   T    
C7    C42   S    
Cu2   O7    S    
C48   N18   T    
C2    O4    A    
C15   C19   S    
C34   N3    S    
C13   C18   A    
C22   C24   S    
C24   C26   A    
C26   H2    S    
C35   C38   S    
Cu1   N2    S    
Cu2   O3    S    
C27   N10   S    
C1    O1    A    
C2    O2    A    
C18   C45   S    
N9    H8    S    
C31   C33   A    
Cu1   O5    S    
C3    C43   S    
Cu2   O6    S    
C19   N2    T    
C22   O8    A    
C38   N6    T    
C14   C17   A    
C4    C7    A    
Cu2   O2    S    
C20   N1    T    
C21   C23   S    
N4    H6    S    
N3    H3    S    
C32   C40   S    
Cu2   N1    S    
C4    C6    A    
C3    C8    A    
C5    C7    A    
N10   H9    S    
C6    C8    A    
C23   C33   A    
C44   N14   T    
C24   C34   A    
C40   N8    T    
N3    H4    S    
C32   C34   A    
Cu1   O1    S    
C43   N13   T    
C5    C9    S    
Cu1   Cu2   S    
C47   N17   T    
C16   C20   S    
C16   C18   A    
C36   C37   S    
C13   C15   A    
C14   C16   A    
C33   N4    S    
C15   C17   A    
C13   C47   S    
N4    H5    S    
C8    C41   S    
C14   C48   S    
C3    C5    A    
C6    C10   S    
C25   C27   A    
C29   C35   S    
C26   C28   A    
C30   C36   S    
C28   C30   A    
C28   N9    S    
C4    C44   S    
C29   C31   A    
C25   H1    S    
C30   C32   A    
Cu1   O8    S    
C1    O3    A    
C37   N5    T    
C17   C46   S    
C23   C25   A    
C39   N7    T    
C9    C12   T    
C10   C11   T    
C45   N15   T    
C41   N11   T    
N10   H10   S    
N9    H7    S    
Cu1   O4    S    
C21   O5    A    
