data_mof_unit_pretest_1908.cif
_audit_creation_date              2012-12-10T18:01:42-0500
_audit_creation_method            fapswitch 2.2
_symmetry_space_group_name_H-M    P1
_symmetry_Int_Tables_number       1
_space_group_crystal_system       triclinic
_cell_length_a                    10.826705
_cell_length_b                    9.676011
_cell_length_c                    19.387873
_cell_angle_alpha                 89.999731
_cell_angle_beta                  94.61166
_cell_angle_gamma                 89.999866
_cell_volume                      2024.48484435

loop_
_atom_site_label
_atom_site_type_symbol
_atom_type_description
_atom_site_fract_x
_atom_site_fract_y
_atom_site_fract_z
_atom_type_partial_charge
C1    C     C_R   0.262559 0.499953 0.500322 0.806748
C2    C     C_R   0.737441 0.499952 0.499679 0.806738
C3    C     C_R   0.491708 0.486975 0.929803 0.449711
C4    C     C_R   0.508494 0.486975 0.070204 0.449706
C5    C     C_R   0.510613 0.499971 0.368193 0.836173
C6    C     C_R   0.489394 0.499971 0.631808 0.836166
C7    C     C_R   0.063952 0.374243 0.500451 -0.134672
C8    C     C_R   0.936073 0.625201 0.499277 -0.136921
C9    C     C_R   0.936047 0.374243 0.499544 -0.134671
C10   C     C_R   0.063927 0.625201 0.500731 -0.136922
C11   C     C_R   0.871485 0.499783 0.499301 -0.031262
C12   C     C_R   0.128515 0.499783 0.500700 -0.031264
C13   C     C_R   0.418003 0.074089 0.456020 0.223043
C14   C     C_R   0.583420 0.926108 0.543194 0.222579
C15   C     C_R   0.581997 0.074088 0.543980 0.223045
C16   C     C_R   0.416578 0.926109 0.456807 0.222581
C17   C     C_R   0.524397 0.622009 0.253130 0.166355
C18   C     C_R   0.450479 0.373490 0.742422 0.168296
C19   C     C_R   0.475663 0.622009 0.746873 0.166364
C20   C     C_R   0.549597 0.373491 0.257588 0.168293
C21   C     C_R   0.514501 0.616035 0.181195 -0.159469
C22   C     C_R   0.460581 0.368819 0.814744 -0.156061
C23   C     C_R   0.485618 0.616035 0.818809 -0.159467
C24   C     C_R   0.539550 0.368820 0.185266 -0.156055
C25   C     C_R   0.517524 0.489512 0.146507 -0.033721
C26   C     C_R   0.482633 0.489512 0.853499 -0.033723
C27   C     C_R   0.527861 0.498798 0.292620 -0.161924
C28   C     C_R   0.472180 0.498797 0.707384 -0.161918
Cu1   Cu    Cu3+1 0.500000 0.640660 0.500000 1.042680
Cu2   Cu    Cu3+1 0.500000 0.359340 0.500000 1.043005
N1    N     N_R   0.500000 0.852070 0.500000 -0.224271
N2    N     N_R   0.500000 0.147930 0.500000 -0.224321
N3    N     N_R   0.504228 0.366012 0.034485 -0.215762
N4    N     N_R   0.496126 0.607350 0.965680 -0.220388
N5    N     N_R   0.495901 0.366013 0.965522 -0.215770
N6    N     N_R   0.504161 0.607350 0.034327 -0.220387
O1    O     O_R   0.319640 0.618740 0.500000 -0.569524
O2    O     O_R   0.680360 0.381260 0.500000 -0.568372
O3    O     O_R   0.680360 0.618740 0.500000 -0.569527
O4    O     O_R   0.319640 0.381260 0.500000 -0.568373
O5    O     O_R   0.499980 0.618820 0.400140 -0.539415
O6    O     O_R   0.500020 0.381180 0.599860 -0.539332
O7    O     O_R   0.500020 0.618820 0.599860 -0.539417
O8    O     O_R   0.499980 0.381180 0.400140 -0.539330
H1    H     H_    0.111847 0.275982 0.500974 0.182291
H2    H     H_    0.888300 0.723493 0.498203 0.182246
H3    H     H_    0.888152 0.275982 0.499015 0.182293
H4    H     H_    0.111700 0.723493 0.501811 0.182244
I1    I     I_    0.566702 0.820972 0.293386 -0.243678
I2    I     I_    0.367561 0.197534 0.692594 -0.252861
I3    I     I_    0.433283 0.820959 0.706620 -0.243679
I4    I     I_    0.632484 0.197532 0.307430 -0.252880
H5    H     H_    0.509076 0.712044 0.152418 0.189687
H6    H     H_    0.445467 0.271678 0.840494 0.187848
H7    H     H_    0.491054 0.712046 0.847585 0.189686
H8    H     H_    0.554689 0.271680 0.159519 0.187843
I5    I     I_    0.289795 0.178568 0.383323 -0.231628
I6    I     I_    0.720200 0.822864 0.611551 -0.238516
I7    I     I_    0.710208 0.178565 0.616675 -0.231637
I8    I     I_    0.279793 0.822869 0.388453 -0.238501

loop_
_geom_bond_atom_site_label_1
_geom_bond_atom_site_label_2
_ccdc_geom_bond_type
C19   C23   A    
C17   C21   A    
C4    N6    A    
C23   H7    S    
Cu1   Cu2   S    
C20   C27   A    
C1    O1    A    
C24   H8    S    
C2    O2    A    
C13   N2    A    
C14   C15   A    
C3    N5    A    
C14   N1    A    
C20   I4    S    
Cu1   O1    S    
Cu1   O3    S    
C4    C25   S    
Cu2   O4    S    
C15   N2    A    
C22   H6    S    
C1    O4    A    
Cu1   O7    S    
C16   N1    A    
C21   H5    S    
C19   C28   A    
C9    C11   A    
C5    C27   S    
Cu2   O8    S    
C1    C12   S    
C10   C12   A    
C8    C11   A    
C2    C11   S    
C7    H1    S    
C8    C10   A    
N3    N5    A    
C5    O8    A    
C9    H3    S    
C10   H4    S    
N4    N6    A    
C6    O7    A    
C16   I8    S    
C7    C12   A    
C14   I6    S    
C8    H2    S    
C23   C26   A    
C13   I5    S    
C22   C26   A    
Cu2   N2    S    
C19   I3    S    
C18   C28   A    
C24   C25   A    
C18   I2    S    
Cu1   N1    S    
C6    O6    A    
C13   C16   A    
C17   I1    S    
C7    C9    A    
C21   C25   A    
C4    N3    A    
Cu2   O6    S    
C5    O5    A    
C3    N4    A    
Cu1   O5    S    
C18   C22   A    
C15   I7    S    
C2    O3    A    
C3    C26   S    
C6    C28   S    
C20   C24   A    
Cu2   O2    S    
C17   C27   A    
