data_mof_unit_pretest_565.cif
_audit_creation_date              2012-12-10T16:57:08-0500
_audit_creation_method            fapswitch 2.2
_symmetry_space_group_name_H-M    P1
_symmetry_Int_Tables_number       1
_space_group_crystal_system       triclinic
_cell_length_a                    7.777985
_cell_length_b                    8.573585
_cell_length_c                    16.534391
_cell_angle_alpha                 91.943701
_cell_angle_beta                  79.86292
_cell_angle_gamma                 93.869184
_cell_volume                      1082.64064652

loop_
_atom_site_label
_atom_site_type_symbol
_atom_type_description
_atom_site_fract_x
_atom_site_fract_y
_atom_site_fract_z
_atom_type_partial_charge
C1    C     C_R   0.546305 0.794847 0.497887 0.964005
C2    C     C_R   0.418612 0.517071 0.215053 0.633856
C3    C     C_R   0.472804 0.260556 0.838494 -0.230694
C4    C     C_R   0.405477 0.464595 0.136302 -0.231636
C5    C     C_R   0.357965 0.338636 0.898617 -0.100121
C6    C     C_R   0.502005 0.340201 0.099879 -0.098797
C7    C     C_R   0.280919 0.473230 0.878946 0.378872
C8    C     C_R   0.618318 0.271595 0.141853 0.406200
C9    C     C_R   0.326653 0.532909 0.799684 0.282489
C10   C     C_R   0.630715 0.322749 0.222133 0.267369
C11   C     C_2   0.345714 0.298712 0.984693 -0.060837
C12   C     C_R   0.453708 0.205157 0.502081 0.978949
C13   C     C_2   0.494483 0.295059 0.014497 -0.065013
C14   C     C_2   0.570679 0.958398 0.496618 -0.273774
C15   C     C_2   0.429374 0.041635 0.503286 -0.304834
C16   C     C_R   0.475234 0.499018 0.654787 0.996692
C17   C     C_R   0.522500 0.489436 0.345348 1.000216
C18   C     C_R   0.447456 0.456319 0.740550 -0.337878
C19   C     C_R   0.529452 0.446402 0.258872 -0.349261
C20   C     C_R   0.518399 0.319273 0.760219 0.597006
Cl1   Cl    Cl    0.763776 0.222030 0.276877 -0.498294
Cl2   Cl    Cl    0.237902 0.706929 0.775854 -0.479748
Cl3   Cl    Cl    0.135552 0.573102 0.954443 -0.485592
Cl4   Cl    Cl    0.743746 0.117640 0.094977 -0.450002
F1    F     F_    0.627445 0.238876 0.702845 -0.630071
F2    F     F_    0.322675 0.637302 0.248567 -0.602387
H1    H     H_    0.618789 0.285056 0.973264 0.200013
H2    H     H_    0.222549 0.311079 0.026409 0.217862
H3    H     H_    0.321816 0.523965 0.103136 0.231325
H4    H     H_    0.531283 0.156176 0.853130 0.219340
H5    H     H_    0.704003 0.009757 0.490211 0.195602
H6    H     H_    0.296054 0.990288 0.509672 0.185500
H7    H     H_    0.022925 0.379588 0.439105 0.217947
H8    H     H_    0.977068 0.620427 0.560876 0.209819
N1    N     N_2   0.953500 0.457650 0.478520 -0.140693
N2    N     N_2   0.046500 0.542350 0.521480 -0.151188
O1    O     O_R   0.388470 0.738640 0.505270 -0.605221
O2    O     O_R   0.611530 0.261360 0.494730 -0.583461
O3    O     O_R   0.679650 0.711510 0.491500 -0.629804
O4    O     O_R   0.320350 0.288490 0.508500 -0.641013
O5    O     O_R   0.337210 0.515200 0.623500 -0.585618
O6    O     O_R   0.662790 0.484800 0.376500 -0.568747
O7    O     O_R   0.628380 0.488060 0.609730 -0.582110
O8    O     O_R   0.371620 0.511940 0.390270 -0.587697
Zn1   Zn    Zn3+2 0.305580 0.518120 0.509190 1.035346
Zn2   Zn    Zn3+2 0.694420 0.481880 0.490810 1.056083

loop_
_geom_bond_atom_site_label_1
_geom_bond_atom_site_label_2
_ccdc_geom_bond_type
C12   O4    A    
C3    H4    S    
C2    C4    A    
C10   C19   A    
C18   C20   A    
C4    H3    S    
C12   C15   S    
C1    O1    A    
C14   H5    S    
C17   O8    A    
N2    Zn1   S    
C2    F2    S    
C6    C13   S    
C11   C13   D    
C16   O7    A    
C11   H2    S    
O3    Zn2   S    
C7    Cl3   S    
C16   C18   S    
C8    Cl4   S    
C5    C11   S    
H8    N2    S    
C10   Cl1   S    
C12   O2    A    
O4    Zn1   S    
H7    N1    S    
O7    Zn2   S    
C9    Cl2   S    
O2    Zn2   S    
C4    C6    A    
C20   F1    S    
C1    O3    A    
O1    Zn1   S    
C7    C9    A    
C9    C18   A    
C3    C20   A    
O8    Zn1   S    
C8    C10   A    
O6    Zn2   S    
C5    C7    A    
O5    Zn1   S    
C14   C15   D    
C13   H1    S    
C6    C8    A    
C1    C14   S    
C17   C19   S    
C2    C19   A    
C17   O6    A    
N1    Zn2   S    
C16   O5    A    
N1    N2    D    
C3    C5    A    
C15   H6    S    
