data_mof_unit_pretest_33.cif
_audit_creation_date              2012-10-26T21:05:38-0400
_audit_creation_method            fapswitch 2.2
_symmetry_space_group_name_H-M    P1
_symmetry_Int_Tables_number       1
_space_group_crystal_system       triclinic
_cell_length_a                    13.051991
_cell_length_b                    9.090326
_cell_length_c                    7.799589
_cell_angle_alpha                 89.996371
_cell_angle_beta                  95.67524
_cell_angle_gamma                 89.980576
_cell_volume                      920.860706555

loop_
_atom_site_label
_atom_site_type_symbol
_atom_type_description
_atom_site_fract_x
_atom_site_fract_y
_atom_site_fract_z
_atom_type_partial_charge
C1    C     C_R   0.499962 0.220100 0.499995 0.535515
C2    C     C_R   0.871417 0.492247 0.712925 0.114289
C3    C     C_R   0.135074 0.555389 0.595734 0.039791
C4    C     C_R   0.865888 0.552759 0.407287 0.055393
C5    C     C_R   0.028212 0.541168 0.583159 -0.002126
C6    C     C_R   0.972592 0.535973 0.419845 0.008776
C7    C     C_1   0.499937 0.065401 0.499986 -0.041910
C8    C     C_1   0.499945 0.934612 0.499980 -0.026116
C9    C     C_3   0.819202 0.273535 0.857044 -0.281714
C10   C     C_3   0.197798 0.248224 0.192832 -0.266860
C11   C     C_R   0.499977 0.779910 0.499992 0.562261
C12   C     C_R   0.300077 0.504552 0.469243 0.564103
C13   C     C_R   0.700115 0.504937 0.531761 0.554919
C14   C     C_R   0.813051 0.516916 0.551520 0.018618
C15   C     C_R   0.187311 0.512421 0.453109 0.036316
C16   C     C_R   0.023947 0.504052 0.275311 -0.101261
C17   C     C_R   0.976251 0.522258 0.729398 -0.068661
C18   C     C_R   0.129666 0.474798 0.295715 0.114150
Cu1   Cu    Cu3+1 0.500010 0.500000 0.669080 1.055341
Cu2   Cu    Cu3+1 0.499990 0.500000 0.330920 1.076634
H1    H     H_    0.980499 0.483987 0.152074 0.156553
H2    H     H_    0.247260 0.232429 0.315692 0.155742
H3    H     H_    0.017828 0.513969 0.855205 0.142109
H4    H     H_    0.768040 0.486497 0.901332 0.311488
H5    H     H_    0.793341 0.235969 0.981203 0.164092
H6    H     H_    0.894611 0.221099 0.841105 0.157949
H7    H     H_    0.761567 0.238515 0.750468 0.158352
H8    H     H_    0.138776 0.418437 0.040490 0.257725
H9    H     H_    0.239089 0.202772 0.086795 0.165558
H10   H     H_    0.124673 0.186487 0.198191 0.139977
I1    I     I_    0.797159 0.678434 0.194139 -0.369893
I2    I     I_    0.208140 0.667591 0.818488 -0.346078
N1    N     N_1   0.499980 0.500000 0.076820 -0.056399
N2    N     N_1   0.500020 0.500000 0.923180 -0.061763
N3    N     N_2   0.829480 0.431840 0.858939 -0.519996
N4    N     N_2   0.176375 0.402645 0.161101 -0.474578
O1    O     O_R   0.500000 0.288400 0.642760 -0.503598
O2    O     O_R   0.500000 0.711600 0.357240 -0.485393
O3    O     O_R   0.500000 0.288400 0.357240 -0.504000
O4    O     O_R   0.500000 0.711600 0.642760 -0.485265
O5    O     O_R   0.349000 0.500000 0.619590 -0.485644
O6    O     O_R   0.651000 0.500000 0.380410 -0.481054
O7    O     O_R   0.348990 0.500000 0.334020 -0.464973
O8    O     O_R   0.651010 0.500000 0.665980 -0.518370

loop_
_geom_bond_atom_site_label_1
_geom_bond_atom_site_label_2
_ccdc_geom_bond_type
C2    N3    S    
C11   O2    A    
Cu2   O6    S    
C16   H1    S    
C15   C18   A    
Cu2   O2    S    
C10   H10   S    
Cu1   Cu2   S    
C12   C15   S    
C1    O1    A    
N1    N2    T    
C9    H5    S    
C7    C8    T    
C17   H3    S    
C13   C14   S    
C10   H2    S    
C2    C17   A    
C10   H9    S    
C9    H7    S    
C12   O5    A    
C8    C11   S    
C5    C6    A    
Cu2   N1    S    
C4    C6    A    
C13   O6    A    
C9    H6    S    
C12   O7    A    
C4    C14   A    
C11   O4    A    
C2    C14   A    
H4    N3    S    
C5    C17   A    
Cu1   O4    S    
C1    O3    A    
C6    C16   A    
C4    I1    S    
Cu2   O7    S    
C3    C15   A    
Cu1   O8    S    
H8    N4    S    
C16   C18   A    
C9    N3    S    
Cu2   O3    S    
C10   N4    S    
Cu1   O1    S    
C3    I2    S    
C1    C7    S    
C18   N4    S    
C13   O8    A    
Cu1   O5    S    
C3    C5    A    
Cu1   N2    S    
