data_mof_unit_pretest_796.cif
_audit_creation_date              2012-12-10T17:35:03-0500
_audit_creation_method            fapswitch 2.2
_symmetry_space_group_name_H-M    P1
_symmetry_Int_Tables_number       1
_space_group_crystal_system       triclinic
_cell_length_a                    12.447809
_cell_length_b                    13.250345
_cell_length_c                    13.843496
_cell_angle_alpha                 106.829552
_cell_angle_beta                  73.977312
_cell_angle_gamma                 117.842483
_cell_volume                      1905.58648807

loop_
_atom_site_label
_atom_site_type_symbol
_atom_type_description
_atom_site_fract_x
_atom_site_fract_y
_atom_site_fract_z
_atom_type_partial_charge
C1    C     C_R   0.144059 0.714322 0.514200 0.824937
C2    C     C_1   0.977705 0.511290 0.792260 -0.083576
C3    C     C_R   0.714189 0.990037 0.326378 -0.169848
C4    C     C_R   0.773307 0.163614 0.456769 -0.044347
C5    C     C_R   0.189181 0.914059 0.616967 0.223611
C6    C     C_R   0.267101 0.031126 0.637849 -0.190208
C7    C     C_R   0.385345 0.076145 0.581644 -0.071797
C8    C     C_R   0.430031 0.999112 0.505630 0.010115
C9    C     C_R   0.343316 0.884767 0.472149 0.059535
C10   C     C_R   0.556747 0.029422 0.462190 0.121073
C11   C     C_R   0.590080 0.957737 0.372597 0.154839
C12   C     C_R   0.984379 0.504734 0.686281 0.847549
C13   C     C_R   0.499337 0.854706 0.330485 -0.190478
C14   C     C_R   0.377944 0.817599 0.380345 -0.114205
C15   C     C_R   0.652060 0.125611 0.507978 -0.145756
C16   C     C_R   0.805192 0.094266 0.366901 -0.181094
C17   C     C_R   0.224623 0.839853 0.531865 -0.164891
C18   C     C_R   0.606067 0.606333 0.697762 -0.264936
C19   C     C_R   0.251279 0.356465 0.356825 0.107167
C20   C     C_R   0.340588 0.314252 0.328718 -0.261267
C21   C     C_R   0.432950 0.358582 0.387109 -0.113849
C22   C     C_R   0.440426 0.449002 0.473113 0.008911
C23   C     C_R   0.855861 0.286049 0.484134 0.793726
C24   C     C_R   0.341124 0.482960 0.504265 0.202419
C25   C     C_R   0.539317 0.504239 0.532301 -0.064689
C26   C     C_R   0.514731 0.556925 0.635789 0.027525
C27   C     C_R   0.400834 0.563791 0.673533 -0.116713
C28   C     C_R   0.335230 0.556274 0.602096 -0.079484
C29   C     C_R   0.661283 0.511162 0.494105 0.196374
C30   C     C_R   0.722221 0.609958 0.656864 0.094616
C31   C     C_R   0.015296 0.494839 0.313707 0.800115
C32   C     C_1   0.020713 0.486915 0.207729 -0.141644
C33   C     C_2   0.022873 0.470044 0.013077 -0.112771
C34   C     C_2   0.972068 0.525387 0.987140 -0.147163
C35   C     C_1   0.974013 0.517733 0.881334 0.065381
C36   C     C_1   0.022714 0.479127 0.118747 0.009805
Cu1   Cu    Cu3+1 0.899780 0.525060 0.522890 1.015274
Cu2   Cu    Cu3+1 0.100220 0.474940 0.477110 0.965959
H1    H     H_    0.930072 0.577663 0.045080 0.170854
H2    H     H_    0.311428 0.735728 0.345863 0.147358
H3    H     H_    0.790083 0.646212 0.706431 0.180235
H4    H     H_    0.589730 0.643310 0.777910 0.185599
H5    H     H_    0.178413 0.320271 0.312045 0.129253
H6    H     H_    0.492085 0.314780 0.366947 0.200480
H7    H     H_    0.336643 0.245081 0.262875 0.155969
H8    H     H_    0.064491 0.417434 0.955231 0.197041
H9    H     H_    0.898876 0.123139 0.325754 0.147388
H10   H     H_    0.522970 0.800302 0.260838 0.147213
H11   H     H_    0.740124 0.936777 0.256968 0.148088
H12   H     H_    0.634129 0.174952 0.582680 0.138865
H13   H     H_    0.234005 0.087946 0.698549 0.212776
N1    N     N_R   0.748810 0.563010 0.557590 -0.225569
N2    N     N_R   0.250540 0.437620 0.443020 -0.207860
O1    O     O_R   0.025040 0.682470 0.528790 -0.535531
O2    O     O_R   0.194310 0.640150 0.490130 -0.575132
O3    O     O_R   0.903380 0.524130 0.659910 -0.593511
O4    O     O_R   0.072660 0.481800 0.621240 -0.562350
O5    O     O_R   0.805690 0.359850 0.509870 -0.525160
O6    O     O_R   0.974960 0.317530 0.471210 -0.596087
O7    O     O_R   0.927340 0.518200 0.378760 -0.550791
O8    O     O_R   0.096620 0.475870 0.340090 -0.600715
C37   C     C_2   0.364036 0.607047 0.783317 0.891390
O9    O     O_2   0.269194 0.544561 0.831218 -0.593711
O10   O     O_R   0.433704 0.720348 0.830018 -0.751158
H14   H     H_    0.397421 0.739679 0.904370 0.338479
C38   C     C_2   0.697756 0.472140 0.384524 0.861944
O11   O     O_2   0.717178 0.531846 0.323460 -0.605504
O12   O     O_R   0.706399 0.365464 0.350282 -0.730442
H15   H     H_    0.729648 0.347148 0.273143 0.317657
C39   C     C_2   0.332654 0.668752 0.612791 0.925593
O13   O     O_2   0.408396 0.735516 0.556391 -0.588739
O14   O     O_R   0.255242 0.704919 0.694655 -0.751244
H16   H     H_    0.270798 0.788284 0.699663 0.336398
Br1   Br    Br    0.037506 0.862446 0.711838 -0.516567
C40   C     C_2   0.450216 0.204556 0.596694 0.822076
O15   O     O_2   0.511376 0.251736 0.523593 -0.594883
O16   O     O_R   0.438899 0.271680 0.694368 -0.757807
H17   H     H_    0.489131 0.357888 0.695311 0.337887

loop_
_geom_bond_atom_site_label_1
_geom_bond_atom_site_label_2
_ccdc_geom_bond_type
C2    C35   T    
C23   O5    A    
C38   O12   S    
C31   O8    A    
Cu1   O5    S    
C19   C20   A    
C18   C26   A    
C1    O1    A    
C2    C12   S    
C3    H11   S    
C7    C8    A    
O16   H17   S    
C23   O6    A    
C26   C27   A    
Cu1   Cu2   S    
C32   C36   T    
C10   C15   A    
C18   H4    S    
C5    C6    A    
C5    C17   A    
C21   H6    S    
C33   C36   S    
C34   C35   S    
C15   H12   S    
C5    Br1   S    
C37   O10   S    
Cu1   O3    S    
Cu2   O2    S    
C8    C9    A    
C22   C25   A    
C30   H3    S    
C39   O13   D    
C18   C30   A    
C6    H13   S    
C20   H7    S    
Cu2   O8    S    
C19   N2    A    
C38   O11   D    
C13   C14   A    
C33   H8    S    
C16   H9    S    
C25   C26   A    
C19   H5    S    
C25   C29   A    
Cu1   N1    S    
C34   H1    S    
C9    C14   A    
O12   H15   S    
C7    C40   S    
C24   N2    A    
C29   C38   S    
C31   O7    A    
C4    C16   A    
C40   O15   D    
C37   O9    D    
C27   C37   S    
Cu2   O4    S    
C31   C32   S    
C33   C34   D    
C40   O16   S    
C12   O3    A    
C12   O4    A    
C9    C17   A    
C22   C24   A    
Cu1   O1    S    
C4    C23   S    
C30   N1    A    
C28   C39   S    
C24   C28   A    
O14   H16   S    
C13   H10   S    
C6    C7    A    
C1    C17   S    
O10   H14   S    
C4    C15   A    
C1    O2    A    
C11   C13   A    
Cu2   N2    S    
Cu1   O7    S    
C3    C11   A    
C10   C11   A    
C14   H2    S    
Cu2   O6    S    
C20   C21   A    
C8    C10   A    
C27   C28   A    
C39   O14   S    
C21   C22   A    
C3    C16   A    
C29   N1    A    
