data_mof_unit_pretest_345.cif
_audit_creation_date              2012-12-11T14:21:00-0500
_audit_creation_method            fapswitch 2.2
_symmetry_space_group_name_H-M    P1
_symmetry_Int_Tables_number       1
_space_group_crystal_system       triclinic
_cell_length_a                    21.947189
_cell_length_b                    7.206112
_cell_length_c                    14.906082
_cell_angle_alpha                 89.696587
_cell_angle_beta                  106.891169
_cell_angle_gamma                 89.931888
_cell_volume                      2255.70980707

loop_
_atom_site_label
_atom_site_type_symbol
_atom_type_description
_atom_site_fract_x
_atom_site_fract_y
_atom_site_fract_z
_atom_type_partial_charge
O1    O     O_R   0.584770 0.505770 0.002090 -0.545686
O2    O     O_R   0.415230 0.005770 0.997910 -0.545341
O3    O     O_R   0.467060 0.173340 0.861950 -0.532190
O4    O     O_R   0.532940 0.673340 0.138050 -0.529489
C1    C     C_R   0.455895 0.344978 0.825852 0.776723
C2    C     C_R   0.544103 0.843784 0.174256 0.777449
O5    O     O_R   0.587510 0.175890 0.993210 -0.537804
O6    O     O_R   0.412490 0.675890 0.006790 -0.534767
O7    O     O_R   0.536540 0.008150 0.130100 -0.535258
O8    O     O_R   0.463460 0.508150 0.869900 -0.532585
C3    C     C_R   0.612934 0.344870 0.997308 0.775049
C4    C     C_R   0.387024 0.844975 0.002518 0.780751
O9    O     O_3   0.483140 0.340040 0.044760 -0.375070
O10   O     O_3   0.516860 0.840040 0.955240 -0.375745
V1    V     V_3+5 0.503130 0.064190 0.991700 1.532824
V2    V     V_3+5 0.496870 0.564190 0.008300 1.543020
C5    C     C_2   0.214425 0.727600 0.005281 -0.129942
C6    C     C_2   0.785773 0.227878 0.995128 -0.126863
C7    C     C_2   0.180445 0.886606 0.996768 -0.305683
C8    C     C_2   0.819545 0.386852 0.003265 -0.305302
H1    H     H_    0.191559 0.596899 0.012136 0.139949
H2    H     H_    0.808832 0.097286 0.988654 0.139452
H3    H     H_    0.201831 0.018801 0.989123 0.127941
H4    H     H_    0.798004 0.518896 0.010728 0.127019
C9    C     C_2   0.282356 0.714647 0.005210 -0.108510
C10   C     C_2   0.717881 0.214640 0.995339 -0.103052
C11   C     C_2   0.319927 0.861517 0.003455 -0.290069
C12   C     C_2   0.679936 0.361393 0.995935 -0.272908
H5    H     H_    0.301933 0.575689 0.007224 0.143286
H6    H     H_    0.698664 0.075628 0.994435 0.137333
C13   C     C_R   0.926228 0.890351 0.723985 -0.028559
C14   C     C_R   0.073918 0.383387 0.275712 -0.025884
C15   C     C_R   0.571145 0.848810 0.276447 -0.153887
C16   C     C_R   0.428866 0.355582 0.723837 -0.154208
C17   C     C_R   0.934732 0.934568 0.567616 -0.162984
C18   C     C_R   0.064101 0.348006 0.431788 -0.162582
C19   C     C_R   0.963187 0.926408 0.663995 -0.173802
C20   C     C_R   0.035915 0.362856 0.335517 -0.175957
C21   C     C_R   0.860533 0.863800 0.687722 -0.201848
C22   C     C_R   0.140229 0.388961 0.311916 -0.202773
C23   C     C_R   0.829928 0.876654 0.590091 0.085888
C24   C     C_R   0.170322 0.373321 0.409529 0.086200
C25   C     C_R   0.868677 0.911259 0.530333 0.141058
C26   C     C_R   0.130667 0.352764 0.469142 0.141188
C27   C     C_R   0.762429 0.859631 0.550106 0.043388
C28   C     C_R   0.238060 0.376620 0.449719 0.041973
C29   C     C_R   0.735089 0.875165 0.450653 0.081681
C30   C     C_R   0.264840 0.359823 0.549194 0.081928
C31   C     C_R   0.776125 0.907871 0.394623 -0.183277
C32   C     C_R   0.222996 0.339626 0.605032 -0.182543
C33   C     C_R   0.841357 0.925298 0.433853 -0.205344
C34   C     C_R   0.157487 0.336309 0.565618 -0.205195
C35   C     C_R   0.721294 0.829922 0.606249 -0.165706
C36   C     C_R   0.279899 0.395776 0.393844 -0.170484
C37   C     C_R   0.655932 0.816391 0.567114 -0.071644
C38   C     C_R   0.345406 0.398878 0.433319 -0.071688
C39   C     C_R   0.628632 0.829993 0.470540 0.045864
C40   C     C_R   0.372214 0.383720 0.529924 0.043372
C41   C     C_R   0.667563 0.858660 0.410682 0.095507
C42   C     C_R   0.332585 0.363827 0.589420 0.096351
C43   C     C_R   0.562333 0.813988 0.433621 -0.192222
C44   C     C_R   0.438730 0.389083 0.567245 -0.191950
C45   C     C_R   0.533121 0.823248 0.336968 0.454162
C46   C     C_R   0.467533 0.375338 0.663888 0.452661
C47   C     C_R   0.637178 0.867526 0.313030 -0.287790
C48   C     C_R   0.362582 0.349694 0.686972 -0.286495
H7    H     H_    0.870754 0.951774 0.387954 0.123091
H8    H     H_    0.127419 0.320325 0.611426 0.122493
H9    H     H_    0.663348 0.884254 0.262614 0.110900
H10   H     H_    0.336071 0.335308 0.737078 0.110100
H11   H     H_    0.626386 0.794247 0.613229 0.179007
H12   H     H_    0.375473 0.413760 0.387437 0.189326
H13   H     H_    0.964298 0.962331 0.522129 0.115948
H14   H     H_    0.033796 0.331856 0.477208 0.115942
H15   H     H_    0.834913 0.838091 0.738127 0.099426
H16   H     H_    0.166511 0.404436 0.261565 0.097596
H17   H     H_    0.759529 0.923119 0.319619 0.120994
H18   H     H_    0.239052 0.325454 0.680105 0.120676
H19   H     H_    0.737824 0.817286 0.681383 0.128806
H20   H     H_    0.263804 0.408806 0.318708 0.133153
H21   H     H_    0.533384 0.792867 0.480593 0.184277
H22   H     H_    0.468178 0.404984 0.520604 0.184294
O11   O     O_R   0.036450 0.233070 0.130130 -0.537331
O12   O     O_R   0.963550 0.733070 0.869870 -0.537748
O13   O     O_R   0.912470 0.560570 0.006790 -0.545299
O14   O     O_R   0.087530 0.060570 0.993210 -0.545081
C49   C     C_R   0.886942 0.392004 0.002412 0.733546
C50   C     C_R   0.113059 0.891860 0.997595 0.733983
O15   O     O_R   0.032920 0.562940 0.138050 -0.538671
O16   O     O_R   0.967080 0.062940 0.861950 -0.538484
O17   O     O_R   0.084790 0.730500 0.002090 -0.537450
O18   O     O_R   0.915210 0.230500 0.997910 -0.537079
C51   C     C_R   0.044967 0.393863 0.174436 0.684680
C52   C     C_R   0.954992 0.895067 0.825475 0.685352
O19   O     O_3   0.016820 0.396170 0.955260 -0.378822
O20   O     O_3   0.983180 0.896170 0.044740 -0.378817
V3    V     V_3+5 0.996880 0.672090 0.008300 1.418344
V4    V     V_3+5 0.003120 0.172090 0.991700 1.419858
H23   H     H_    0.013975 0.949121 0.691901 0.105935
H24   H     H_    0.984532 0.357610 0.307589 0.105219
H25   H     H_    0.301700 0.001380 0.002605 0.124513
H26   H     H_    0.697839 0.501263 0.995657 0.118371
S1    S     S_3+6 0.449241 0.804588 0.293544 -0.025564
O21   O     O_2   0.432410 0.629925 0.237173 -0.342339
O22   O     O_2   0.419804 0.799557 0.372891 -0.348564
O23   O     O_3   0.420618 0.988570 0.224200 -0.512238
H27   H     H_    0.373712 0.975798 0.207046 0.356666
S2    S     S_3+6 0.551568 0.384936 0.708233 -0.022434
O24   O     O_2   0.575461 0.212531 0.764769 -0.342030
O25   O     O_2   0.581435 0.399311 0.629566 -0.343967
O26   O     O_3   0.571905 0.571449 0.777759 -0.510021
H28   H     H_    0.619009 0.567566 0.801005 0.350514

loop_
_geom_bond_atom_site_label_1
_geom_bond_atom_site_label_2
_ccdc_geom_bond_type
C40   C44   A    
O26   H28   S    
C6    C10   S    
O2    C4    A    
C16   C48   A    
C2    O7    A    
O19   V4    S    
C15   C47   A    
C29   C31   A    
O5    C3    A    
O12   V3    S    
C17   C19   A    
O14   C50   A    
C39   C41   A    
O23   H27   S    
C40   C42   A    
O11   C51   A    
C8    C49   S    
S2    O24   D    
C24   C28   A    
C27   C29   A    
C43   C45   A    
C44   C46   A    
C8    H4    S    
C31   H17   S    
C31   C33   A    
O11   V4    S    
O1    C3    A    
C32   C34   A    
C30   C42   A    
C21   H15   S    
C45   S1    S    
C17   C25   A    
C34   H8    S    
O6    C4    A    
C26   C34   A    
C30   C32   A    
C14   C51   S    
C44   H22   S    
C42   C48   A    
O6    V2    S    
C49   O18   A    
O20   V3    S    
C23   C25   A    
C24   C26   A    
C32   H18   S    
O16   C52   A    
C36   H20   S    
C35   C37   A    
C9    H5    S    
C36   C38   A    
O13   C49   A    
O18   V4    S    
C20   H24   S    
C7    C50   S    
C33   H7    S    
C4    C11   S    
C38   H12   S    
C11   H25   S    
C5    H1    S    
C13   C19   A    
O15   V3    S    
O4    V2    S    
C7    H3    S    
C12   H26   S    
C50   O17   A    
C15   C45   A    
C1    C16   S    
C28   C36   A    
C16   C46   A    
S1    O22   D    
O1    V2    S    
O12   C52   A    
O17   V3    S    
O2    V1    S    
C18   H14   S    
O4    C2    A    
C10   H6    S    
C14   C20   A    
C37   C39   A    
C18   C26   A    
C19   H23   S    
O3    V1    S    
C17   H13   S    
C35   H19   S    
C6    H2    S    
C22   C24   A    
O3    C1    A    
S2    O26   S    
C39   C43   A    
C9    C11   D    
C13   C52   S    
C10   C12   D    
C2    C15   S    
C5    C9    S    
C18   C20   A    
O7    V1    S    
C1    O8    A    
C43   H21   S    
C41   C47   A    
C25   C33   A    
C48   H10   S    
S2    O25   D    
C3    C12   S    
C47   H9    S    
C27   C35   A    
O5    V1    S    
C5    C7    D    
C38   C40   A    
S1    O23   S    
C6    C8    D    
C14   C22   A    
O15   C51   A    
O14   V4    S    
O13   V3    S    
C29   C41   A    
C28   C30   A    
C22   H16   S    
C21   C23   A    
O9    V2    S    
S1    O21   D    
C13   C21   A    
C23   C27   A    
O10   V1    S    
O8    V2    S    
O16   V4    S    
C37   H11   S    
C46   S2    S    
