data_mof_unit_pretest_1395.cif
_audit_creation_date              2013-03-05T15:43:38-0500
_audit_creation_method            fapswitch 2.2
_symmetry_space_group_name_H-M    P1
_symmetry_Int_Tables_number       1
_space_group_crystal_system       triclinic
_cell_length_a                    8.283911
_cell_length_b                    15.076295
_cell_length_c                    18.885543
_cell_angle_alpha                 100.492182
_cell_angle_beta                  91.075669
_cell_angle_gamma                 99.88318
_cell_volume                      2281.72510877

loop_
_atom_site_label
_atom_site_type_symbol
_atom_site_description
_atom_site_fract_x
_atom_site_fract_y
_atom_site_fract_z
_atom_type_partial_charge
P1    P     P_3+3 0.038110 0.412300 0.335300 0.505019
O1    O     O_2   0.871030 0.438240 0.324420 -0.347244
O2    O     O_3   0.120590 0.445310 0.413740 -0.402382
O3    O     O_3   0.663040 0.605930 0.370050 -0.377401
O4    O     O_2   0.760195 0.531651 0.242735 -0.419532
O5    O     O_3   0.003326 0.291504 0.307878 -0.569632
O6    O     O_3   0.722957 0.702134 0.250414 -0.615484
H1    H     H_    0.736962 0.770487 0.357453 0.062019
C1    C     C_3   0.792844 0.866913 0.287254 -0.923067
H2    H     H_    0.925416 0.871934 0.298507 0.263008
H3    H     H_    0.771547 0.872402 0.230084 0.276833
P2    P     P_3+3 0.679950 0.711710 0.558590 0.530538
P3    P     P_3+3 0.137362 0.772515 0.410197 0.493307
O7    O     O_2   0.855660 0.723510 0.537160 -0.332603
O8    O     O_3   0.086340 0.654970 0.406630 -0.411218
O9    O     O_2   0.996035 0.817670 0.444654 -0.397300
O10   O     O_3   0.698598 0.741336 0.652867 -0.521748
O11   O     O_3   0.140893 0.791636 0.321024 -0.503694
C2    C     C_3   0.090220 0.707699 0.272847 0.560429
H4    H     H_    0.973055 0.672312 0.287922 0.137095
H5    H     H_    0.176748 0.660062 0.273885 0.101524
C3    C     C_3   0.075030 0.723483 0.195736 -0.907970
H6    H     H_    0.012153 0.659339 0.160335 0.218644
H7    H     H_    0.002898 0.778156 0.192504 0.273582
C4    C     C_3   0.248832 0.745584 0.629229 0.402778
H8    H     H_    0.364213 0.722031 0.613252 0.086299
H9    H     H_    0.156398 0.726681 0.583197 0.124039
C5    C     C_3   0.282596 0.849473 0.652668 -0.899634
H10   H     H_    0.384128 0.870444 0.694841 0.271114
H11   H     H_    0.317344 0.882985 0.606386 0.214643
H12   H     H_    0.170981 0.873378 0.674803 0.287959
Ba1   Ba    Ba6+2 0.854120 0.540280 0.465540 1.602534
C6    C     C_3   0.937026 0.238407 0.357850 0.832533
H13   H     H_    0.916733 0.281685 0.409808 -0.041798
C7    C     C_3   0.055842 0.174041 0.368748 -0.892462
H14   H     H_    0.027053 0.108266 0.329361 0.251524
H15   H     H_    0.049637 0.158189 0.423674 0.234173
H16   H     H_    0.181210 0.203723 0.358226 0.265208
C8    C     C_3   0.732370 0.667715 0.682578 0.448878
H17   H     H_    0.848877 0.648782 0.662928 0.086094
H18   H     H_    0.631479 0.607682 0.668870 0.119965
C9    C     C_3   0.748619 0.697728 0.764232 -0.980650
H19   H     H_    0.853481 0.755383 0.779583 0.274871
H20   H     H_    0.769594 0.640466 0.790426 0.217698
H21   H     H_    0.634247 0.720340 0.784248 0.260227
P4    P     P_3+3 0.151600 0.587780 0.664700 0.456254
O12   O     O_2   0.318670 0.561790 0.675630 -0.378586
O13   O     O_3   0.069120 0.554770 0.586270 -0.409719
O14   O     O_3   0.526680 0.394150 0.629950 -0.401098
O15   O     O_3   0.190639 0.707538 0.687815 -0.571634
P5    P     P_3+3 0.059455 0.227144 0.590003 0.474934
O16   O     O_3   0.607620 0.388570 0.462320 -0.401307
O17   O     O_3   0.103380 0.345110 0.593380 -0.366468
O18   O     O_2   0.196877 0.183330 0.550891 -0.404967
O19   O     O_3   0.075257 0.208365 0.678632 -0.521362
Ba2   Ba    Ba6+2 0.335710 0.459790 0.534460 1.567257
P6    P     P_3+3 0.644274 0.596265 0.275925 0.444645
C10   C     C_3   0.695536 0.777005 0.302633 0.799425
H22   H     H_    0.754482 0.926100 0.322779 0.265177
O20   O     O_3   0.582100 0.611510 0.537680 -0.416100
C11   C     C_3   0.448981 0.311570 0.314465 0.404101
H23   H     H_    0.357884 0.346578 0.345568 0.064492
H24   H     H_    0.561389 0.362647 0.312134 0.143975
C12   C     C_3   0.374653 0.273130 0.238259 -0.790454
H25   H     H_    0.250068 0.232895 0.240047 0.261725
H26   H     H_    0.366267 0.329778 0.208986 0.201982
H27   H     H_    0.450609 0.226864 0.207929 0.310969
P7    P     P_3+3 0.513102 0.273811 0.438793 0.471530
O21   O     O_2   0.334040 0.276520 0.462890 -0.377803
O22   O     O_3   0.489082 0.239342 0.345086 -0.510133
H28   H     H_    0.198338 0.743312 0.175510 0.282187
C13   C     C_3   0.004717 0.273898 0.725295 0.407471
H29   H     H_    0.103342 0.330135 0.752271 0.131556
H30   H     H_    0.918282 0.305821 0.696757 0.000714
C14   C     C_3   0.906487 0.228440 0.781385 -0.508594
H31   H     H_    0.809170 0.268543 0.799223 0.177709
H32   H     H_    0.841766 0.158712 0.756223 0.249333
P8    P     P_3+3 0.543567 0.399440 0.721948 0.491043
C15   C     C_3   0.515175 0.224668 0.680167 0.458573
H33   H     H_    0.650562 0.236260 0.678422 0.000947
O23   O     O_2   0.416597 0.457898 0.753434 -0.338699
O24   O     O_3   0.464161 0.288541 0.735137 -0.478594
H34   H     H_    0.461062 0.228833 0.627088 0.142692
H35   H     H_    0.499607 0.078019 0.651010 0.249092
C16   C     C_3   0.456768 0.128205 0.693559 -0.911475
H36   H     H_    0.320817 0.112481 0.691372 0.281241
H37   H     H_    0.505769 0.121194 0.747013 0.270662
C17   C     C_R   0.991217 0.470508 0.049631 0.008165
C18   C     C_R   0.901640 0.414584 0.092149 -0.274527
C19   C     C_R   0.763271 0.443382 0.959165 -0.292332
C20   C     C_R   0.928507 0.476055 0.980357 0.015136
C21   C     C_R   0.704407 0.431143 0.888353 0.375079
C22   C     C_R   0.807551 0.462207 0.834988 -0.213865
C23   C     C_R   0.971672 0.507928 0.857934 -0.009326
C24   C     C_R   0.031758 0.514322 0.931084 0.036069
C25   C     C_R   0.755891 0.451116 0.760702 0.162792
C26   C     C_R   0.867369 0.484082 0.711926 -0.519542
C27   C     C_R   0.024350 0.534436 0.734014 0.254099
C28   C     C_R   0.076443 0.547216 0.808342 -0.007071
C29   C     C_R   0.152959 0.512255 0.073663 0.042708
C30   C     C_R   0.212218 0.507576 0.144861 -0.026654
C31   C     C_R   0.109998 0.459010 0.190949 -0.218431
C32   C     C_R   0.961162 0.405195 0.159065 0.448211
H38   H     H_    0.827839 0.474513 0.655713 0.172140
C33   C     C_R   0.230343 0.598734 0.835108 -0.066952
C34   C     C_R   0.288382 0.603676 0.905935 -0.133888
C35   C     C_R   0.194413 0.558419 0.954747 0.091274
C36   C     C_R   0.256207 0.556395 0.026263 0.077643
C37   C     C_R   0.420438 0.592217 0.050938 -0.170577
C38   C     C_R   0.375790 0.547875 0.168400 -0.000337
C39   C     C_R   0.478491 0.587491 0.119805 -0.124060
C40   C     C_R   0.432064 0.546468 0.239491 0.284440
C41   C     C_R   0.323811 0.509378 0.287079 -0.466877
C42   C     C_R   0.163841 0.464780 0.265100 0.219104
H39   H     H_    0.310077 0.635557 0.801562 0.160316
H40   H     H_    0.606562 0.614510 0.133663 0.181982
H41   H     H_    0.367085 0.512706 0.342067 0.174944
H42   H     H_    0.674149 0.424470 0.997255 0.172246
H43   H     H_    0.790540 0.367884 0.070932 0.171687
H44   H     H_    0.408691 0.643937 0.920880 0.115250
H45   H     H_    0.509421 0.622608 0.017441 0.131883
C43   C     C_R   0.761569 0.237750 0.524139 -0.515336
C44   C     C_R   0.855854 0.179050 0.546334 0.209674
C45   C     C_R   0.794699 0.085237 0.535303 -0.187753
C46   C     C_R   0.629122 0.049601 0.511143 0.112421
C47   C     C_R   0.536985 0.111369 0.488342 -0.177674
C48   C     C_R   0.607962 0.202575 0.489952 0.313286
C49   C     C_R   0.405534 0.911487 0.465807 -0.265883
C50   C     C_R   0.337225 0.819171 0.458860 0.357804
C51   C     C_R   0.579338 0.792758 0.519529 0.161878
C52   C     C_R   0.635726 0.888297 0.538141 0.214473
C53   C     C_R   0.556757 0.949041 0.505346 -0.094148
C54   C     C_R   0.428772 0.759437 0.481729 -0.481134
H46   H     H_    0.336893 0.951519 0.439313 0.170316
H47   H     H_    0.880468 0.042235 0.544501 0.188471
H48   H     H_    0.412878 0.090756 0.466209 0.149021
H49   H     H_    0.379716 0.686722 0.472016 0.188226
H50   H     H_    0.811861 0.309925 0.529351 0.174908
N1    N     N_R   0.782798 0.179450 0.327062 0.232991
O25   O     O_R   0.717632 0.112468 0.357945 -0.448713
O26   O     O_R   0.733816 0.177306 0.260937 -0.264694
N2    N     N_R   0.522282 0.781530 0.301429 0.212067
O27   O     O_R   0.458900 0.824229 0.256885 -0.375296
O28   O     O_R   0.427201 0.723474 0.331332 -0.503656
C55   C     C_3   0.009104 0.225681 0.849383 -0.318718
C56   C     C_3   0.144492 0.167576 0.835925 -0.143111
C57   C     C_3   0.078484 0.066370 0.805627 -0.803061
H51   H     H_    0.982384 0.038366 0.839862 0.259892
H52   H     H_    0.027079 0.057064 0.749541 0.302248
H53   H     H_    0.180268 0.026943 0.804654 0.239268
H54   H     H_    0.232893 0.196132 0.799167 0.270587
H55   H     H_    0.212774 0.172484 0.888119 0.207737
H56   H     H_    0.925414 0.198530 0.888833 0.210080
H57   H     H_    0.066233 0.296915 0.874863 0.197532
N3    N     N_R   0.541997 0.380010 0.873588 0.255778
O29   O     O_R   0.419590 0.422529 0.888819 -0.408885
O30   O     O_R   0.520245 0.292856 0.875226 -0.424651
N4    N     N_R   0.882950 0.326840 0.184712 0.263081
O31   O     O_R   0.942637 0.251916 0.166745 -0.352910
O32   O     O_R   0.727534 0.320126 0.195920 -0.388745
N5    N     N_R   0.752652 0.922549 0.598172 0.236136
O33   O     O_R   0.900609 0.904369 0.595347 -0.382269
O34   O     O_R   0.711258 0.972804 0.656127 -0.443377

loop_
_geom_bond_atom_site_label_1
_geom_bond_atom_site_label_2
_geom_bond_distance
_ccdc_geom_bond_type
C11   O22   1.406023 S    
C54   H49   1.082425 S    
C22   C23   1.434828 A    
N3    O30   1.301389 A    
P5    C44   1.833226 S    
C41   H41   1.081809 S    
C2    H4    1.093465 S    
C46   C53   1.514895 S    
C49   C50   1.390987 A    
C26   C27   1.402428 A    
C44   C45   1.393984 A    
C8    H18   1.109756 S    
C16   H36   1.108736 S    
O14   P8    1.726610 S    
C4    C5    1.523103 S    
C47   C48   1.394263 A    
P2    C51   1.840291 S    
P3    O11   1.759505 S    
C19   H42   1.079899 S    
C5    H10   1.110669 S    
C57   H52   1.109681 S    
O11   C2    1.410454 S    
P1    O2    1.576632 S    
C37   C39   1.396388 A    
C55   C56   1.535156 S    
P6    C40   1.854935 S    
C34   C35   1.412434 A    
C52   N5    1.436674 S    
C36   C37   1.411402 A    
O1    Ba1   2.843223 S    
P1    O1    1.521588 D    
O10   C8    1.397345 S    
C43   C48   1.389263 A    
C11   H24   1.108941 S    
C10   N2    1.448437 S    
C4    O15   1.393483 S    
Ba1   O16   2.783199 S    
C57   H51   1.110589 S    
H1    C10   1.111111 S    
C38   C39   1.406157 A    
C18   H43   1.079011 S    
P8    C25   1.873460 S    
P7    O21   1.564745 D    
P2    O10   1.752084 S    
C35   C36   1.442749 A    
C34   H44   1.077385 S    
C39   H40   1.078143 S    
C1    H2    1.101730 S    
O6    C10   1.410427 S    
P5    O19   1.753860 S    
O19   C13   1.412311 S    
O16   P7    1.745220 S    
C55   H56   1.111883 S    
C11   H23   1.110640 S    
P4    C27   1.901517 S    
C47   H48   1.074783 S    
P2    Ba1   3.401578 S    
N4    O32   1.298424 A    
Ba1   O13   2.819759 S    
C31   C32   1.411307 A    
C9    H20   1.106339 S    
C13   C14   1.535978 S    
C49   C53   1.419456 A    
C40   C41   1.402045 A    
N5    O34   1.300327 A    
N5    O33   1.301017 A    
C8    C9    1.522522 S    
C16   H37   1.110512 S    
C28   C33   1.406069 A    
P4    O13   1.576466 S    
C29   C36   1.423395 A    
C56   C57   1.529178 S    
P1    O5    1.771608 S    
C30   C31   1.434466 A    
O8    Ba1   2.750866 S    
C7    H16   1.094944 S    
H35   C16   1.107057 S    
C43   H50   1.082188 S    
C13   H30   1.110444 S    
C8    H17   1.104589 S    
Ba2   O21   2.843849 S    
C4    H8    1.104085 S    
P1    Ba1   3.393761 S    
C14   C55   1.537564 S    
Ba2   O20   2.782763 S    
C56   H54   1.106011 S    
C1    H22   1.111157 S    
C9    H21   1.110934 S    
C12   H26   1.109376 S    
O3    P6    1.758636 S    
C11   C12   1.525361 S    
C14   H31   1.110074 S    
C12   H27   1.108699 S    
C31   C42   1.444458 A    
C49   H46   1.074730 S    
C1    H3    1.110898 S    
O2    Ba2   2.820237 S    
P8    O24   1.752258 S    
C19   C21   1.383854 A    
C17   C20   1.420463 A    
C25   C26   1.410501 A    
C57   H53   1.110522 S    
C6    H13   1.107935 S    
O2    Ba1   2.921582 S    
C17   C29   1.407476 A    
C14   H32   1.110584 S    
P7    C48   1.828527 S    
O3    Ba1   2.796076 S    
C24   C35   1.420887 A    
C56   H55   1.111373 S    
C55   H57   1.112489 S    
P2    O7    1.507834 D    
C27   C28   1.429684 A    
C22   C25   1.430643 A    
P3    O8    1.738384 S    
N4    O31   1.301532 A    
C3    H7    1.107342 S    
C51   C54   1.392322 A    
P1    C42   1.902482 S    
Ba1   O20   2.915517 S    
C52   C53   1.430823 A    
C3    H28   1.109098 S    
C15   C16   1.519886 S    
C41   C42   1.397253 A    
O17   Ba2   2.751425 S    
O13   Ba2   2.922556 S    
P4    O12   1.521996 D    
C1    C10   1.532501 S    
C50   C54   1.391572 A    
C45   H47   1.072283 S    
C7    H15   1.106262 S    
C3    H6    1.109958 S    
C33   H39   1.078777 S    
C5    H12   1.110662 S    
O7    Ba1   2.843783 S    
C13   H29   1.111371 S    
C15   O24   1.405599 S    
N1    O25   1.300214 A    
C32   N4    1.416784 S    
C4    H9    1.110485 S    
O14   Ba2   2.795428 S    
C33   C34   1.397555 A    
P4    O15   1.749912 S    
O5    C6    1.405991 S    
O4    P6    1.544452 D    
P5    O18   1.545922 D    
C12   H25   1.108188 S    
C5    H11   1.105646 S    
C51   C52   1.412413 A    
C30   C38   1.413948 A    
C15   H34   1.107016 S    
N1    O26   1.298836 A    
P8    O23   1.545150 D    
C37   H45   1.077312 S    
C19   C20   1.397350 A    
C46   C47   1.418753 A    
C23   C28   1.427367 A    
C6    N1    1.467805 S    
C21   C22   1.425472 A    
C6    C7    1.531608 S    
Ba1   Ba2   4.596148 S    
C21   N3    1.426085 S    
N2    O28   1.290542 A    
C23   C24   1.440384 A    
C38   C40   1.417946 A    
C26   H38   1.081664 S    
C20   C24   1.409385 A    
C15   H33   1.107101 S    
P2    O20   1.563780 S    
C17   C18   1.400145 A    
P7    O22   1.748672 S    
C2    C3    1.524093 S    
C9    H19   1.110744 S    
P3    O9    1.548675 D    
P4    Ba2   3.394395 S    
N3    O29   1.299540 A    
P3    C50   1.840706 S    
N2    O27   1.301698 A    
C45   C46   1.418613 A    
C29   C30   1.440688 A    
C7    H14   1.112233 S    
P5    O17   1.742167 S    
C43   C44   1.388886 A    
O6    P6    1.771803 S    
C18   C32   1.387787 A    
O16   Ba2   2.914684 S    
O12   Ba2   2.843961 S    
C2    H5    1.100576 S    
