data_mof_unit_pretest_917.cif
_audit_creation_date              2012-12-11T15:17:36-0500
_audit_creation_method            fapswitch 2.2
_symmetry_space_group_name_H-M    P1
_symmetry_Int_Tables_number       1
_space_group_crystal_system       triclinic
_cell_length_a                    6.934266
_cell_length_b                    20.080474
_cell_length_c                    22.365121
_cell_angle_alpha                 90.019253
_cell_angle_beta                  89.976018
_cell_angle_gamma                 90.012671
_cell_volume                      3114.19380452

loop_
_atom_site_label
_atom_site_type_symbol
_atom_type_description
_atom_site_fract_x
_atom_site_fract_y
_atom_site_fract_z
_atom_type_partial_charge
O1    O     O_R   0.620180 0.810610 0.187990 -0.540435
O2    O     O_R   0.379820 0.189390 0.812010 -0.540435
O3    O     O_R   0.379820 0.189390 0.687990 -0.539594
O4    O     O_R   0.620180 0.810610 0.312010 -0.539594
O5    O     O_R   0.120180 0.689390 0.312010 -0.540215
O6    O     O_R   0.879820 0.310610 0.687990 -0.540215
O7    O     O_R   0.879820 0.310610 0.812010 -0.539636
O8    O     O_R   0.120180 0.689390 0.187990 -0.539636
O9    O     O_R   0.290420 0.818570 0.311590 -0.542226
O10   O     O_R   0.709580 0.181430 0.688410 -0.542226
O11   O     O_R   0.709580 0.181430 0.811590 -0.542485
O12   O     O_R   0.290420 0.818570 0.188410 -0.542485
O13   O     O_R   0.790420 0.681430 0.188410 -0.542676
O14   O     O_R   0.209580 0.318570 0.811590 -0.542676
O15   O     O_R   0.209580 0.318570 0.688410 -0.541846
O16   O     O_R   0.790420 0.681430 0.311590 -0.541846
H1    H     H_    0.572508 0.509082 0.590550 0.134302
H2    H     H_    0.427492 0.490918 0.409450 0.134302
H3    H     H_    0.427365 0.490858 0.090496 0.134325
H4    H     H_    0.572634 0.509142 0.909504 0.134325
H5    H     H_    0.947140 0.979163 0.920790 0.135658
H6    H     H_    0.052860 0.020837 0.079210 0.135658
H7    H     H_    0.927580 0.009087 0.409482 0.134327
H8    H     H_    0.072420 0.990913 0.590518 0.134327
C1    C     C_R   0.459366 0.834759 0.332194 0.711340
C2    C     C_R   0.540634 0.165241 0.667806 0.711340
C3    C     C_R   0.540544 0.165422 0.832358 0.710983
C4    C     C_R   0.459456 0.834578 0.167642 0.710983
C5    C     C_R   0.959388 0.665250 0.167800 0.709121
C6    C     C_R   0.040612 0.334750 0.832200 0.709121
C7    C     C_R   0.040649 0.334767 0.667803 0.710439
C8    C     C_R   0.959350 0.665233 0.332197 0.710439
H9    H     H_    0.746836 0.420074 0.643239 0.127552
H10   H     H_    0.253164 0.579925 0.356760 0.127552
H11   H     H_    0.253107 0.579908 0.143221 0.127498
H12   H     H_    0.746892 0.420092 0.856779 0.127498
H13   H     H_    0.808788 0.072666 0.864233 0.128560
H14   H     H_    0.191212 0.927334 0.135767 0.128560
H15   H     H_    0.753233 0.920058 0.356771 0.128115
H16   H     H_    0.246767 0.079942 0.643229 0.128115
H17   H     H_    0.310400 0.360024 0.582380 0.124153
H18   H     H_    0.689600 0.639976 0.417620 0.124153
H19   H     H_    0.689836 0.640113 0.082402 0.123478
H20   H     H_    0.310164 0.359887 0.917598 0.123478
H21   H     H_    0.247131 0.148405 0.911419 0.125226
H22   H     H_    0.752869 0.851595 0.088581 0.125226
H23   H     H_    0.189599 0.859975 0.417579 0.124208
H24   H     H_    0.810401 0.140025 0.582421 0.124208
O17   O     O_3   0.453640 0.707610 0.250000 -0.370239
O18   O     O_3   0.546360 0.292390 0.750000 -0.370239
O19   O     O_3   0.953640 0.792390 0.250000 -0.369571
O20   O     O_3   0.046360 0.207610 0.750000 -0.369571
V1    V     V_3+5 0.178800 0.757860 0.250000 1.397802
V2    V     V_3+5 0.821200 0.242140 0.750000 1.397802
V3    V     V_3+5 0.678800 0.742140 0.250000 1.397738
V4    V     V_3+5 0.321200 0.257860 0.750000 1.397738
C9    C     C_R   0.183380 0.391078 0.577743 -0.221548
C10   C     C_R   0.816620 0.608922 0.422256 -0.221548
C11   C     C_R   0.816771 0.609008 0.077750 -0.222660
C12   C     C_R   0.183229 0.390991 0.922250 -0.222660
C13   C     C_R   0.365034 0.113950 0.918929 -0.216970
C14   C     C_R   0.634966 0.886049 0.081070 -0.216970
C15   C     C_R   0.316626 0.891046 0.422235 -0.221804
C16   C     C_R   0.683374 0.108954 0.577765 -0.221804
C17   C     C_R   0.030205 0.384416 0.618670 -0.083747
C18   C     C_R   0.969795 0.615584 0.381330 -0.083747
C19   C     C_R   0.969883 0.615622 0.118660 -0.083087
C20   C     C_R   0.030117 0.384378 0.881340 -0.083087
C21   C     C_R   0.529316 0.116226 0.881867 -0.084996
C22   C     C_R   0.470684 0.883773 0.118133 -0.084996
C23   C     C_R   0.469831 0.884398 0.381327 -0.084076
C24   C     C_R   0.530169 0.115602 0.618673 -0.084076
C25   C     C_R   0.865208 0.424603 0.611807 -0.219253
C26   C     C_R   0.134792 0.575396 0.388192 -0.219253
C27   C     C_R   0.134800 0.575399 0.111790 -0.218885
C28   C     C_R   0.865200 0.424601 0.888210 -0.218885
C29   C     C_R   0.681963 0.071558 0.892583 -0.223240
C30   C     C_R   0.318036 0.928442 0.107417 -0.223240
C31   C     C_R   0.634848 0.924590 0.388199 -0.218921
C32   C     C_R   0.365152 0.075410 0.611801 -0.218920
C33   C     C_R   0.853256 0.471303 0.565164 0.089264
C34   C     C_R   0.146744 0.528697 0.434836 0.089264
C35   C     C_R   0.146728 0.528685 0.065143 0.089098
C36   C     C_R   0.853271 0.471315 0.934857 0.089098
C37   C     C_R   0.670359 0.024673 0.939113 0.090382
C38   C     C_R   0.329641 0.975327 0.060887 0.090382
C39   C     C_R   0.646791 0.971300 0.434847 0.089058
C40   C     C_R   0.353209 0.028699 0.565153 0.089058
C41   C     C_R   0.006175 0.476915 0.523812 0.053257
C42   C     C_R   0.993825 0.523085 0.476188 0.053257
C43   C     C_R   0.993847 0.523097 0.023810 0.053190
C44   C     C_R   0.006153 0.476903 0.976190 0.053190
C45   C     C_R   0.505898 0.023267 0.976344 0.053466
C46   C     C_R   0.494102 0.976733 0.023656 0.053466
C47   C     C_R   0.493833 0.976909 0.476186 0.053300
C48   C     C_R   0.506167 0.023091 0.523814 0.053300
C49   C     C_R   0.171296 0.436372 0.529953 0.090521
C50   C     C_R   0.828703 0.563628 0.470047 0.090521
C51   C     C_R   0.828807 0.563689 0.029966 0.090933
C52   C     C_R   0.171193 0.436311 0.970034 0.090933
C53   C     C_R   0.353185 0.068306 0.966344 0.088570
C54   C     C_R   0.646815 0.931694 0.033656 0.088570
C55   C     C_R   0.328690 0.936351 0.470030 0.090598
C56   C     C_R   0.671309 0.063649 0.529970 0.090598
C57   C     C_R   0.691001 0.512544 0.559097 -0.190256
C58   C     C_R   0.308998 0.487456 0.440903 -0.190257
C59   C     C_R   0.308910 0.487405 0.059057 -0.190182
C60   C     C_R   0.691090 0.512595 0.940943 -0.190182
C61   C     C_R   0.820172 0.979016 0.949053 -0.181726
C62   C     C_R   0.179828 0.020984 0.050947 -0.181726
C63   C     C_R   0.809067 0.012553 0.440928 -0.190146
C64   C     C_R   0.190933 0.987447 0.559072 -0.190146
C65   C     C_R   0.679007 0.558347 0.512048 -0.182290
C66   C     C_R   0.320993 0.441652 0.487952 -0.182290
C67   C     C_R   0.320863 0.441573 0.012007 -0.182338
C68   C     C_R   0.679137 0.558427 0.987993 -0.182337
C69   C     C_R   0.808618 0.933003 0.995927 -0.189999
C70   C     C_R   0.191382 0.066997 0.004073 -0.189999
C71   C     C_R   0.821047 0.058373 0.487986 -0.182293
C72   C     C_R   0.178953 0.941627 0.512014 -0.182293
H25   H     H_    0.551709 0.589352 0.508279 0.135866
H26   H     H_    0.448291 0.410648 0.491720 0.135866
H27   H     H_    0.448098 0.410533 0.008214 0.135789
H28   H     H_    0.551902 0.589467 0.991786 0.135789
H29   H     H_    0.927032 0.898662 0.002884 0.133383
H30   H     H_    0.072968 0.101338 0.997116 0.133383
H31   H     H_    0.948355 0.089392 0.491774 0.135837
H32   H     H_    0.051644 0.910608 0.508225 0.135837

loop_
_geom_bond_atom_site_label_1
_geom_bond_atom_site_label_2
_ccdc_geom_bond_type
O14   V4    S    
C40   C48   A    
C45   C46   A    
C14   C54   A    
C22   C30   A    
C11   C51   A    
C49   C66   A    
C21   C29   A    
C47   C48   A    
H8    C64   S    
C60   C68   A    
C27   C35   A    
H18   C10   S    
C23   C31   A    
O4    C1    A    
C61   C69   A    
H11   C27   S    
O18   V2    S    
H22   C14   S    
C53   C70   A    
C57   C65   A    
C38   C62   A    
C26   C34   A    
C37   C61   A    
H23   C15   S    
H24   C16   S    
C39   C63   A    
C13   C21   A    
C18   C26   A    
C17   C25   A    
C14   C22   A    
C63   C71   A    
C25   C33   A    
C38   C46   A    
C11   C19   A    
C5    C19   S    
C37   C45   A    
C10   C18   A    
C55   C72   A    
C47   C55   A    
H6    C62   S    
C10   C50   A    
O1    C4    A    
H16   C32   S    
O2    C3    A    
C1    C23   S    
H12   C28   S    
O12   V1    S    
C3    C21   S    
H19   C11   S    
C56   C71   A    
C33   C41   A    
O10   C2    A    
C34   C58   A    
O6    C7    A    
C29   C37   A    
O7    C6    A    
C62   C70   A    
C52   C67   A    
O6    V2    S    
C31   C39   A    
O20   V2    S    
H3    C59   S    
C33   C57   A    
C28   C36   A    
C67   H27   S    
O9    C1    A    
C15   C55   A    
C45   C53   A    
C51   C68   A    
C64   C72   A    
C7    C17   S    
C50   C65   A    
H14   C30   S    
O17   V3    S    
H13   C29   S    
O18   V4    S    
C41   C49   A    
O19   V1    S    
H15   C31   S    
C13   C53   A    
H2    C58   S    
O9    V1    S    
H1    C57   S    
O3    V4    S    
O11   C3    A    
C9    C49   A    
C2    C24   S    
C36   C44   A    
O11   V2    S    
C59   C67   A    
C54   C69   A    
H10   C26   S    
H9    C25   S    
C58   C66   A    
C48   C56   A    
O4    V3    S    
C19   C27   A    
O8    C5    A    
C43   C44   A    
H7    C63   S    
C44   C52   A    
C8    C18   S    
O13   C5    A    
C16   C56   A    
C39   C47   A    
C68   H28   S    
O3    C2    A    
C4    C22   S    
C15   C23   A    
C12   C52   A    
O8    V1    S    
H5    C61   S    
C72   H32   S    
O15   C7    A    
O16   C8    A    
C35   C43   A    
C34   C42   A    
C12   C20   A    
O15   V4    S    
O5    C8    A    
O5    V1    S    
O16   V3    S    
O14   C6    A    
C32   C40   A    
O2    V4    S    
C20   C28   A    
C30   C38   A    
H20   C12   S    
O17   V1    S    
C9    C17   A    
C66   H26   S    
H21   C13   S    
C36   C60   A    
C35   C59   A    
O19   V3    S    
C16   C24   A    
O1    V3    S    
O10   V2    S    
H17   C9    S    
C40   C64   A    
C65   H25   S    
O12   C4    A    
C24   C32   A    
C70   H30   S    
O7    V2    S    
C43   C51   A    
C41   C42   A    
C69   H29   S    
C42   C50   A    
C6    C20   S    
O20   V4    S    
C46   C54   A    
H4    C60   S    
O13   V3    S    
C71   H31   S    
