data_mof_unit_pretest_902.cif
_audit_creation_date              2012-12-11T16:43:17-0500
_audit_creation_method            fapswitch 2.2
_symmetry_space_group_name_H-M    P1
_symmetry_Int_Tables_number       1
_space_group_crystal_system       triclinic
_cell_length_a                    6.928318
_cell_length_b                    23.254164
_cell_length_c                    25.811654
_cell_angle_alpha                 104.761526
_cell_angle_beta                  90.310545
_cell_angle_gamma                 90.413289
_cell_volume                      4021.10062476

loop_
_atom_site_label
_atom_site_type_symbol
_atom_type_description
_atom_site_fract_x
_atom_site_fract_y
_atom_site_fract_z
_atom_type_partial_charge
O1    O     O_R   0.505750 0.453350 0.547660 -0.540207
O2    O     O_R   0.170990 0.432220 0.437590 -0.541003
O3    O     O_R   0.005600 0.546650 0.452340 -0.539041
C1    C     C_R   0.339797 0.415155 0.417624 0.710590
O4    O     O_R   0.175720 0.446240 0.546340 -0.541751
O5    O     O_R   0.010370 0.560770 0.561860 -0.538774
C2    C     C_R   0.344720 0.434110 0.562785 0.689835
O6    O     O_R   0.500990 0.439230 0.438140 -0.538677
O7    O     O_3   0.340820 0.537560 0.504970 -0.368174
V1    V     V_3+5 0.064050 0.493030 0.499080 1.396908
O8    O     O_R   0.680940 0.567780 0.562410 -0.542055
C3    C     C_R   0.850778 0.584546 0.582475 0.712409
O9    O     O_R   0.676210 0.553760 0.453660 -0.542249
C4    C     C_R   0.844942 0.565899 0.437201 0.701005
V2    V     V_3+5 0.564640 0.506970 0.500920 1.396569
O10   O     O_3   0.837740 0.462440 0.495030 -0.369309
C5    C     C_R   0.773456 0.878201 0.117456 -0.161156
H1    H     H_    0.640294 0.892902 0.103024 0.120484
C6    C     C_R   0.762686 0.842175 0.153332 -0.143105
H2    H     H_    0.621843 0.830688 0.165889 0.101005
C7    C     C_R   0.931328 0.822215 0.173591 0.094196
C8    C     C_R   0.111234 0.839146 0.156871 -0.142777
H3    H     H_    0.243885 0.824015 0.171195 0.100506
C9    C     C_R   0.122120 0.875037 0.120794 -0.160067
H4    H     H_    0.263126 0.887099 0.108807 0.117919
C10   C     C_R   0.953290 0.895158 0.100645 -0.055645
C11   C     C_R   0.046312 0.792957 0.256177 -0.150815
H5    H     H_    0.155415 0.827679 0.262836 0.113310
C12   C     C_R   0.031123 0.758022 0.292945 -0.163062
H6    H     H_    0.129339 0.766185 0.326869 0.123472
C13   C     C_R   0.888303 0.713560 0.286528 0.092262
C14   C     C_R   0.764360 0.703594 0.241857 -0.139827
H7    H     H_    0.657531 0.668202 0.234976 0.113090
C15   C     C_R   0.778416 0.738746 0.205307 -0.157023
H8    H     H_    0.680850 0.729840 0.171231 0.111093
C16   C     C_R   0.918937 0.784119 0.212107 0.080253
C17   C     C_R   0.702849 0.675477 0.356077 0.194474
C18   C     C_R   0.695300 0.638914 0.391996 -0.163635
H9    H     H_    0.565281 0.637899 0.414904 0.125786
C19   C     C_R   0.854701 0.604594 0.399336 -0.093383
C20   C     C_R   0.023240 0.607350 0.370007 -0.166668
H10   H     H_    0.148590 0.581468 0.374590 0.130732
C21   C     C_R   0.031261 0.642642 0.333563 -0.193582
H11   H     H_    0.161852 0.642885 0.310781 0.128233
C22   C     C_R   0.872278 0.676693 0.325788 0.074950
C23   C     C_R   0.713106 0.645016 0.668873 -0.222750
C24   C     C_R   0.864360 0.634269 0.631542 -0.084326
C25   C     C_R   0.031254 0.670432 0.641852 -0.218162
C26   C     C_R   0.047246 0.717039 0.688565 0.088823
C27   C     C_R   0.896386 0.726884 0.726228 0.053108
C28   C     C_R   0.729193 0.690530 0.716458 0.091294
C29   C     C_R   0.211612 0.753971 0.698341 -0.190840
C30   C     C_R   0.227702 0.799827 0.745356 -0.181656
C31   C     C_R   0.080105 0.809446 0.783558 0.091253
C32   C     C_R   0.912911 0.773093 0.773787 0.053070
C33   C     C_R   0.762052 0.782937 0.811451 0.088923
C34   C     C_R   0.597680 0.746007 0.801673 -0.191015
C35   C     C_R   0.581590 0.700151 0.754658 -0.182062
C36   C     C_R   0.096202 0.854955 0.831147 -0.222506
C37   C     C_R   0.944956 0.865695 0.868481 -0.084164
C38   C     C_R   0.778053 0.829538 0.858167 -0.217955
H12   H     H_    0.584689 0.617112 0.661441 0.124073
H13   H     H_    0.148140 0.662659 0.613199 0.128312
H14   H     H_    0.328565 0.747147 0.669765 0.134307
H15   H     H_    0.356490 0.827528 0.752008 0.136136
H16   H     H_    0.224617 0.882860 0.838581 0.124099
H17   H     H_    0.661171 0.837309 0.886820 0.128208
H18   H     H_    0.480726 0.752831 0.830248 0.134255
H19   H     H_    0.452801 0.672451 0.748006 0.135891
C39   C     C_R   0.288353 0.170367 0.140064 -0.213669
C40   C     C_R   0.456269 0.135350 0.131075 -0.085663
C41   C     C_R   0.604859 0.147262 0.169854 -0.224205
C42   C     C_R   0.584282 0.192430 0.217593 0.093557
C43   C     C_R   0.415474 0.227268 0.226059 0.052481
C44   C     C_R   0.267847 0.216460 0.186894 0.088040
C45   C     C_R   0.728570 0.203067 0.257355 -0.180307
C46   C     C_R   0.707741 0.248360 0.304516 -0.194186
C47   C     C_R   0.541545 0.283669 0.313022 0.087907
C48   C     C_R   0.393927 0.272868 0.273853 0.052506
C49   C     C_R   0.225119 0.307706 0.282322 0.093887
C50   C     C_R   0.080832 0.297070 0.242558 -0.180887
C51   C     C_R   0.101653 0.251772 0.195399 -0.194471
C52   C     C_R   0.521016 0.329746 0.359860 -0.213554
C53   C     C_R   0.353101 0.364758 0.368854 -0.085369
C54   C     C_R   0.204531 0.352865 0.330068 -0.225038
H20   H     H_    0.173224 0.161832 0.110391 0.128738
H21   H     H_    0.733920 0.120344 0.163565 0.123944
H22   H     H_    0.858519 0.176610 0.251829 0.137303
H23   H     H_    0.822496 0.256001 0.334241 0.134180
H24   H     H_    0.636124 0.338267 0.389540 0.128511
H25   H     H_    0.075470 0.379782 0.336363 0.123428
H26   H     H_    0.950881 0.323526 0.248085 0.137036
H27   H     H_    0.986890 0.244126 0.165677 0.134003
C55   C     C_R   0.273936 0.117314 0.879149 -0.161458
H28   H     H_    0.141306 0.100336 0.891880 0.121213
C56   C     C_R   0.262275 0.152262 0.842439 -0.145854
H29   H     H_    0.121240 0.161734 0.828505 0.101819
C57   C     C_R   0.429972 0.175292 0.824415 0.104322
C58   C     C_R   0.609901 0.162773 0.844450 -0.140198
H30   H     H_    0.742017 0.179300 0.831010 0.102630
C59   C     C_R   0.621739 0.127625 0.881158 -0.163927
H31   H     H_    0.762719 0.118480 0.895346 0.118830
C60   C     C_R   0.453794 0.104283 0.898917 -0.054953
C61   C     C_R   0.533548 0.262538 0.789625 -0.153753
H32   H     H_    0.635386 0.275948 0.822541 0.119575
C62   C     C_R   0.517720 0.297339 0.752897 -0.196406
H33   H     H_    0.608795 0.336501 0.758156 0.124184
C63   C     C_R   0.384366 0.282614 0.710229 0.063744
C64   C     C_R   0.268286 0.230776 0.704091 0.178596
C65   C     C_R   0.285097 0.196310 0.741527 -0.150862
H34   H     H_    0.197357 0.156489 0.736504 0.113464
C66   C     C_R   0.416352 0.211892 0.784691 0.041530
C67   C     C_R   0.198727 0.348043 0.663761 -0.132610
H35   H     H_    0.070351 0.341839 0.685500 0.106152
C68   C     C_R   0.188904 0.384026 0.627808 -0.166592
H36   H     H_    0.052027 0.403856 0.622109 0.118713
C69   C     C_R   0.354505 0.395204 0.600439 -0.053538
C70   C     C_R   0.530139 0.369457 0.610031 -0.164348
H37   H     H_    0.660686 0.377208 0.589838 0.123422
C71   C     C_R   0.539131 0.332821 0.645451 -0.151138
H38   H     H_    0.675778 0.313159 0.651717 0.107153
C72   C     C_R   0.373133 0.321236 0.672265 0.103367
O11   O     O_R   0.308350 0.060850 0.061810 -0.538658
O12   O     O_R   0.633860 0.053770 0.953650 -0.542053
O13   O     O_R   0.798960 0.939210 0.938150 -0.538526
C73   C     C_R   0.464815 0.065897 0.937099 0.690223
O14   O     O_R   0.638360 0.067800 0.062400 -0.540709
O15   O     O_R   0.803500 0.953330 0.047670 -0.540054
C74   C     C_R   0.469548 0.084919 0.082329 0.711610
O16   O     O_R   0.303810 0.046730 0.952290 -0.540593
O17   O     O_3   0.468430 0.962490 0.995010 -0.368656
V3    V     V_3+5 0.745300 0.006960 0.000930 1.396571
O18   O     O_R   0.132880 0.946160 0.046390 -0.542120
C75   C     C_R   0.964004 0.934013 0.062845 0.690609
O19   O     O_R   0.128380 0.932130 0.937650 -0.541932
C76   C     C_R   0.958548 0.915408 0.917554 0.712952
V4    V     V_3+5 0.244670 0.992930 0.999140 1.396738
O20   O     O_3   0.971670 0.037510 0.005000 -0.368840
C77   C     C_3   0.132433 0.210062 0.657078 -0.796934
H39   H     H_    0.007875 0.240452 0.660884 0.203557
H40   H     H_    0.209490 0.208448 0.619132 0.218093
H41   H     H_    0.074336 0.164801 0.654659 0.207169
C78   C     C_3   0.533006 0.714448 0.352402 -0.825571
H42   H     H_    0.465791 0.700564 0.312060 0.203813
H43   H     H_    0.581253 0.761530 0.360275 0.220633
H44   H     H_    0.420246 0.711750 0.382136 0.208008

loop_
_geom_bond_atom_site_label_1
_geom_bond_atom_site_label_2
_ccdc_geom_bond_type
C78   H44   S    
C32   C33   A    
O18   V4    S    
C59   H31   S    
C11   C12   A    
C42   C43   A    
C2    C69   S    
C6    H2    S    
C1    O6    A    
C70   C71   A    
C61   C62   A    
C50   C51   A    
C54   H25   S    
O19   C76   A    
C7    C16   S    
C46   C47   A    
C33   C34   A    
C46   H23   S    
C49   C54   A    
C23   H12   S    
O17   V4    S    
C5    C10   A    
C6    C7    A    
C17   C18   A    
C9    C10   A    
C36   H16   S    
O5    C3    A    
C18   H9    S    
C77   H41   S    
C62   H33   S    
C73   O16   A    
V3    O20   S    
V2    O10   S    
C63   C64   A    
O12   V3    S    
O19   V4    S    
C15   H8    S    
C20   H10   S    
C60   C73   S    
C70   H37   S    
O14   V3    S    
C50   H26   S    
O8    V2    S    
C47   C52   A    
C67   C72   A    
C24   C25   A    
C68   C69   A    
C56   C57   A    
C39   C40   A    
O1    V2    S    
C30   H15   S    
O7    V1    S    
C45   H22   S    
C36   C37   A    
C59   C60   A    
C51   H27   S    
O9    C4    A    
O11   C74   A    
C20   C21   A    
C3    C24   S    
O15   V3    S    
C61   H32   S    
C71   C72   A    
C5    H1    S    
O4    C2    A    
C31   C36   A    
C8    H3    S    
C57   C66   S    
C43   C44   A    
C9    H4    S    
C29   H14   S    
C61   C66   A    
C47   C48   A    
C41   C42   A    
C25   H13   S    
C30   C31   A    
C23   C28   A    
C65   H34   S    
C37   C38   A    
C14   C15   A    
O2    C1    A    
C21   H11   S    
O14   C74   A    
C12   H6    S    
C10   C75   S    
O15   C75   A    
C40   C74   S    
C38   H17   S    
C52   C53   A    
C1    C53   S    
C77   H39   S    
C26   C29   A    
C56   H29   S    
C27   C28   A    
C71   H38   S    
C44   C51   A    
C28   C35   A    
C23   C24   A    
C53   C54   A    
C55   C56   A    
C21   C22   A    
O3    C4    A    
O13   C76   A    
C19   C20   A    
C58   C59   A    
C55   C60   A    
C26   C27   A    
O6    V2    S    
C43   C48   A    
O9    V2    S    
O18   C75   A    
C42   C45   A    
C8    C9    A    
C34   H18   S    
C17   C22   A    
O17   V3    S    
C39   H20   S    
C11   H5    S    
C41   H21   S    
C29   C30   A    
O12   C73   A    
C67   H35   S    
C78   H43   S    
C52   H24   S    
C37   C76   S    
C31   C32   A    
C25   C26   A    
C17   C78   S    
O1    C2    A    
C13   C14   A    
C63   C72   S    
C49   C50   A    
O5    V1    S    
O8    C3    A    
C35   H19   S    
C11   C16   A    
V4    O20   S    
O11   V4    S    
C27   C32   A    
C58   H30   S    
C64   C77   S    
C14   H7    S    
O7    V2    S    
O4    V1    S    
C12   C13   A    
O3    V1    S    
V1    O10   S    
C69   C70   A    
C18   C19   A    
C45   C46   A    
C77   H40   S    
O13   V3    S    
C34   C35   A    
C62   C63   A    
C5    C6    A    
C15   C16   A    
C55   H28   S    
C65   C66   A    
C4    C19   S    
C48   C49   A    
C40   C41   A    
C57   C58   A    
C13   C22   S    
C64   C65   A    
C39   C44   A    
C33   C38   A    
C68   H36   S    
C7    C8    A    
O16   V4    S    
C78   H42   S    
C67   C68   A    
O2    V1    S    
