data_mof_unit_pretest_583.cif
_audit_creation_date              2012-12-11T15:49:24-0500
_audit_creation_method            fapswitch 2.2
_symmetry_space_group_name_H-M    P1
_symmetry_Int_Tables_number       1
_space_group_crystal_system       triclinic
_cell_length_a                    8.272344
_cell_length_b                    18.957776
_cell_length_c                    27.03328
_cell_angle_alpha                 94.698667
_cell_angle_beta                  92.960081
_cell_angle_gamma                 85.509105
_cell_volume                      4207.91458023

loop_
_atom_site_label
_atom_site_type_symbol
_atom_type_description
_atom_site_fract_x
_atom_site_fract_y
_atom_site_fract_z
_atom_type_partial_charge
Ba1   Ba    Ba6+2 0.854000 0.466860 0.523710 1.684195
Ba2   Ba    Ba6+2 0.335820 0.533080 0.476290 1.680414
Br1   Br    Br    0.721955 0.335486 0.305893 -0.542210
Br2   Br    Br    0.091667 0.323666 0.717654 -0.513726
C1    C     C_3   0.723842 0.205692 0.661118 -0.317922
C2    C     C_R   0.917081 0.575218 0.176931 0.569485
C3    C     C_2   0.763333 0.551555 0.272551 -0.044404
C4    C     C_3   0.191027 0.277411 0.659266 0.628811
C5    C     C_3   0.743619 0.566380 0.327744 -0.077384
C6    C     C_1   0.978350 0.484535 0.341641 0.022236
C7    C     C_2   0.022681 0.487427 0.294998 -0.081418
C8    C     C_2   0.905317 0.519045 0.256417 0.207114
C9    C     C_R   0.019458 0.508864 0.102173 -0.079301
C10   C     C_R   0.044463 0.448270 0.129322 -0.045871
C11   C     C_R   0.108270 0.384771 0.105265 -0.046613
C12   C     C_3   0.682486 0.276825 0.639417 0.433875
C13   C     C_R   0.954780 0.572594 0.126303 -0.021234
C14   C     C_2   0.834466 0.510175 0.356504 -0.193679
C15   C     C_2   0.344149 0.475912 0.640157 -0.284808
C16   C     C_3   0.289439 0.210507 0.674073 -0.353529
C17   C     C_R   0.162837 0.437693 0.975876 0.020044
C18   C     C_R   0.070644 0.564278 0.972768 0.020618
C19   C     C_R   0.135992 0.499403 0.948973 0.052372
C20   C     C_R   0.228575 0.374627 0.950336 -0.097070
C21   C     C_R   0.265905 0.372177 0.900621 -0.045928
C22   C     C_R   0.239984 0.432381 0.873681 -0.039888
C23   C     C_3   0.518947 0.631910 0.625607 0.289206
C24   C     C_R   0.175070 0.496142 0.897661 -0.081149
C25   C     C_R   0.149621 0.556573 0.870337 -0.030670
C26   C     C_R   0.189579 0.552486 0.819640 0.586760
C27   C     C_R   0.277591 0.429497 0.823102 0.637591
C28   C     C_3   0.195548 0.318896 0.420970 0.311095
C29   C     C_2   0.430879 0.450817 0.727669 -0.078198
C30   C     C_3   0.446767 0.428480 0.673156 -0.039608
C31   C     C_1   0.210202 0.510648 0.656766 0.039794
C32   C     C_2   0.170988 0.513478 0.704302 -0.045191
C33   C     C_2   0.290083 0.484725 0.743399 0.230197
C34   C     C_3   0.518996 0.648641 0.681568 -0.362132
C35   C     C_R   0.123634 0.440816 0.027027 0.019601
C36   C     C_R   0.058504 0.505701 0.050863 0.051262
C37   C     C_R   0.031784 0.567450 0.023995 0.020251
C38   C     C_R   0.147011 0.381006 0.055528 -0.094587
C39   C     C_R   0.929231 0.632903 0.099429 -0.058049
C40   C     C_3   0.250839 0.241772 0.406466 -0.390925
C41   C     C_R   0.046620 0.623947 0.944127 -0.099044
C42   C     C_R   0.085252 0.620061 0.894317 -0.057652
C43   C     C_R   0.966560 0.630539 0.049659 -0.101016
C44   C     C_R   0.403271 0.299845 0.525130 -0.266024
C45   C     C_3   0.069591 0.683120 0.339495 0.339059
C46   C     C_R   0.538535 0.277093 0.497839 0.051991
C47   C     C_R   0.590892 0.204950 0.493343 -0.137881
C48   C     C_R   0.503220 0.154570 0.513781 -0.003632
C49   C     C_R   0.359640 0.177934 0.538133 -0.142592
C50   C     C_R   0.309144 0.250445 0.543067 -0.018629
C51   C     C_R   0.547887 0.033732 0.546087 -0.079129
C52   C     C_3   0.999806 0.684471 0.583149 0.321233
C53   C     C_R   0.598719 0.961566 0.539922 -0.079408
C54   C     C_R   0.659249 0.931484 0.494565 0.059332
C55   C     C_R   0.669845 0.975577 0.455762 -0.077170
C56   C     C_3   0.082559 0.703040 0.286596 -0.311391
C57   C     C_R   0.619024 0.047830 0.461935 -0.074664
C58   C     C_R   0.557026 0.077735 0.507156 0.062047
C59   C     C_R   0.848972 0.827999 0.463264 -0.138392
C60   C     C_R   0.893873 0.754777 0.458956 0.017017
C61   C     C_R   0.658519 0.733100 0.503382 0.036110
C62   C     C_R   0.611888 0.805602 0.507537 -0.121868
C63   C     C_R   0.706381 0.854055 0.487555 -0.009141
C64   C     C_3   0.945653 0.761128 0.601259 -0.209489
C65   C     C_R   0.794855 0.707797 0.477352 -0.289147
C66   C     C_3   0.754811 0.311140 0.374127 0.565585
C67   C     C_3   0.532830 0.722440 0.359856 0.341622
C68   C     C_3   0.800666 0.231515 0.374294 -0.358386
C69   C     C_3   0.084939 0.804186 0.624094 -0.199923
C70   C     C_3   0.187632 0.829675 0.584718 -0.405620
C71   C     C_3   0.489450 0.795185 0.340950 -0.356604
C72   C     C_R   0.004515 0.452091 0.179940 0.620325
H1    H     H_    0.734556 0.274780 0.602204 0.073348
H2    H     H_    0.857123 0.194098 0.664861 0.163850
H3    H     H_    0.855549 0.218656 0.411031 0.064377
H4    H     H_    0.891144 0.214639 0.345957 0.125080
H5    H     H_    0.691722 0.201200 0.365726 0.114508
H6    H     H_    0.548242 0.284639 0.635072 -0.137012
H7    H     H_    0.671350 0.162816 0.636352 0.045567
H8    H     H_    0.394310 0.620303 0.612073 0.019690
H9    H     H_    0.603722 0.584367 0.617775 0.068662
H10   H     H_    0.431957 0.694917 0.690749 0.127395
H11   H     H_    0.482566 0.602257 0.699689 0.066701
H12   H     H_    0.362980 0.238923 0.385317 0.143398
H13   H     H_    0.642510 0.660942 0.696116 0.131595
H14   H     H_    0.673268 0.206478 0.698408 0.119779
H15   H     H_    0.380097 0.224337 0.704304 0.120867
H16   H     H_    0.154639 0.635799 0.345066 0.086873
H17   H     H_    0.943396 0.669997 0.344317 -0.066356
H18   H     H_    0.195562 0.729650 0.282885 0.145301
H19   H     H_    0.086384 0.654282 0.261022 0.113733
H20   H     H_    0.976772 0.739364 0.276046 0.126264
H21   H     H_    0.667083 0.712335 0.359489 -0.059679
H22   H     H_    0.493541 0.723750 0.398657 0.073169
H23   H     H_    0.274806 0.212071 0.439901 0.059755
H24   H     H_    0.554840 0.835743 0.364355 0.069001
H25   H     H_    0.357025 0.809176 0.342778 0.149686
H26   H     H_    0.525205 0.795367 0.301926 0.122825
H27   H     H_    0.142035 0.465434 0.284334 0.137635
H28   H     H_    0.129004 0.337117 0.124966 0.132913
H29   H     H_    0.523060 0.430779 0.754064 0.117862
H30   H     H_    0.315817 0.322206 0.883245 0.129606
H31   H     H_    0.253433 0.325510 0.967524 0.072204
H32   H     H_    0.195156 0.329734 0.040690 0.073504
H33   H     H_    0.671620 0.573451 0.246757 0.114938
H34   H     H_    0.155557 0.215657 0.383013 0.127604
H35   H     H_    0.879683 0.682869 0.116905 0.123004
H36   H     H_    0.997814 0.675143 0.958922 0.069817
H37   H     H_    0.272809 0.315210 0.646437 -0.075145
H38   H     H_    0.064015 0.667590 0.874504 0.121891
H39   H     H_    0.052049 0.535993 0.715016 0.124074
H40   H     H_    0.942315 0.679726 0.032506 0.070161
H41   H     H_    0.772142 0.483661 0.383308 0.074582
H42   H     H_    0.367411 0.470782 0.600846 0.075454
H43   H     H_    0.504852 0.824175 0.527574 0.068713
H44   H     H_    0.591830 0.929343 0.570915 0.059978
H45   H     H_    0.891748 0.658112 0.567604 -0.013442
H46   H     H_    0.503255 0.055350 0.581575 0.061922
H47   H     H_    0.698736 0.188023 0.473398 0.074649
H48   H     H_    0.713919 0.953839 0.420237 0.066146
H49   H     H_    0.208280 0.172756 0.687343 0.133184
H50   H     H_    0.625384 0.080028 0.430904 0.059379
H51   H     H_    0.927285 0.864345 0.449402 0.076573
H52   H     H_    0.284127 0.139942 0.551358 0.071846
H53   H     H_    0.830744 0.651530 0.474691 0.067290
H54   H     H_    0.362762 0.355623 0.528415 0.061858
H55   H     H_    0.354199 0.184260 0.641883 0.049379
H56   H     H_    0.088309 0.683929 0.553698 0.049299
H57   H     H_    0.300029 0.346710 0.437506 0.025652
H58   H     H_    0.100409 0.320643 0.448520 0.045106
H59   H     H_    0.250807 0.783960 0.563911 0.167998
H60   H     H_    0.110563 0.861267 0.558405 0.131767
H61   H     H_    0.280613 0.863546 0.602940 0.115713
H62   H     H_    0.031466 0.851729 0.645989 0.113575
H63   H     H_    0.163856 0.772815 0.650110 0.153465
H64   H     H_    0.854392 0.759473 0.629845 0.120943
H65   H     H_    0.884674 0.789041 0.570296 0.054849
H66   H     H_    0.852685 0.342740 0.390724 0.019940
N1    N     N_R   0.942886 0.515390 0.203697 -0.427209
N2    N     N_R   0.252170 0.489163 0.796143 -0.422969
O1    O     O_2   0.913240 0.537010 0.617740 -0.454928
O2    O     O_2   0.231702 0.749986 0.463253 -0.490223
O3    O     O_3   0.110287 0.740386 0.372753 -0.601836
O4    O     O_3   0.145240 0.536960 0.557560 -0.490404
O5    O     O_3   0.557280 0.416300 0.475860 -0.454486
O6    O     O_2   0.376710 0.670070 0.522470 -0.464015
O7    O     O_3   0.568244 0.690583 0.603388 -0.651088
O8    O     O_2   0.412826 0.533966 0.322458 -0.467527
O9    O     O_3   0.453527 0.670633 0.329419 -0.605710
O10   O     O_2   0.022405 0.398579 0.202548 -0.552202
O11   O     O_2   0.331940 0.373188 0.803005 -0.562983
O12   O     O_3   0.608944 0.329789 0.397714 -0.618077
O13   O     O_2   0.862182 0.631320 0.197193 -0.621070
O14   O     O_2   0.170643 0.605701 0.796741 -0.603220
O15   O     O_3   0.669960 0.410470 0.588880 -0.490186
O16   O     O_2   0.771012 0.468996 0.677365 -0.465050
O17   O     O_3   0.069368 0.649776 0.623573 -0.643324
O18   O     O_3   0.748030 0.331172 0.671084 -0.529665
O19   O     O_2   0.812980 0.329910 0.477500 -0.495187
O20   O     O_3   0.078660 0.374870 0.564770 -0.464408
O21   O     O_2   0.975587 0.249172 0.530927 -0.491523
O22   O     O_3   0.066345 0.258890 0.624355 -0.596304
O23   O     O_2   0.276450 0.462960 0.382230 -0.422651
O24   O     O_3   0.044470 0.462980 0.442430 -0.503234
O25   O     O_3   0.519740 0.589470 0.411120 -0.471102
O26   O     O_3   0.133409 0.350002 0.378259 -0.605598
O27   O     O_3   0.632420 0.583650 0.524140 -0.472748
O28   O     O_3   0.111040 0.625070 0.435230 -0.497619
P1    P     P_3+3 0.082480 0.557670 0.610090 0.998667
P2    P     P_3+3 0.635220 0.340300 0.462910 0.981931
P3    P     P_3+3 0.108714 0.282401 0.565443 0.954503
P4    P     P_3+3 0.107220 0.442270 0.389900 1.027411
P5    P     P_3+3 0.087209 0.717830 0.433299 0.940313
P6    P     P_3+3 0.659840 0.412544 0.653271 1.004553
P7    P     P_3+3 0.560910 0.671610 0.538896 0.934896
P8    P     P_3+3 0.531038 0.587367 0.346800 0.983062

loop_
_geom_bond_atom_site_label_1
_geom_bond_atom_site_label_2
_ccdc_geom_bond_type
O28   P5    S    
Ba2   O6    S    
C67   C71   S    
C72   N1    Am   
C33   N2    S    
C47   H47   S    
C69   C70   S    
Ba1   O1    S    
C31   C32   D    
Br2   C4    S    
C44   H54   S    
C41   H36   S    
O26   P4    S    
C41   C42   A    
C44   C50   A    
C67   H21   S    
C34   H13   S    
O12   P2    S    
O22   P3    S    
C4    C16   S    
C45   C56   S    
C34   H10   S    
C66   O12   S    
C23   H8    S    
C12   H1    S    
C68   H3    S    
C28   H57   S    
C1    H7    S    
C40   H23   S    
C18   C37   A    
C69   H62   S    
C23   C34   S    
Ba2   O4    S    
C67   O9    S    
C51   C58   A    
Ba1   O19   S    
C26   N2    Am   
C45   O3    S    
O20   P3    S    
C26   O14   D    
Ba1   Ba2   S    
C27   N2    Am   
C23   H9    S    
C9    C36   A    
Ba2   P4    S    
C15   H42   S    
C1    C12   S    
C70   H60   S    
C71   H26   S    
Ba1   O5    S    
C57   H50   S    
C11   H28   S    
O25   P8    S    
C1    H14   S    
Ba2   O27   S    
Ba2   O5    S    
C44   C46   A    
C62   C63   A    
O9    P8    S    
C22   C27   A    
C9    C10   A    
O27   P7    S    
C43   H40   S    
C39   H35   S    
C16   H15   S    
C21   H30   S    
C29   C30   S    
C35   C38   A    
C6    P4    S    
C3    C8    D    
C70   H61   S    
C59   C63   A    
Ba1   P2    S    
C55   C57   A    
C66   H66   S    
C42   H38   S    
C47   C48   A    
C31   P1    S    
Ba1   O15   S    
Br1   C66   S    
C29   H29   S    
C20   C21   A    
Ba1   O20   S    
C35   C36   A    
C61   P7    S    
Ba1   O24   S    
C12   O18   S    
C64   C69   S    
C52   C64   S    
C52   O17   S    
Ba1   O27   S    
C29   C33   D    
C3    H33   S    
O2    P5    D    
C10   C72   A    
C50   P3    S    
O8    P8    D    
C13   C39   A    
C25   C26   A    
C49   H52   S    
O17   P1    S    
O3    P5    S    
O7    P7    S    
C17   C35   A    
Ba1   P1    S    
C70   H59   S    
C12   H6    S    
C46   C47   A    
C37   C43   A    
C64   H65   S    
C20   H31   S    
C60   C65   A    
O5    P2    S    
C14   H41   S    
O16   P6    D    
C52   H56   S    
C5    P8    S    
C4    O22   S    
C4    H37   S    
C53   H44   S    
C56   H20   S    
C65   H53   S    
C36   C37   A    
O1    P1    D    
C15   C31   D    
C62   H43   S    
C17   C19   A    
C64   H64   S    
C19   C24   A    
C45   H16   S    
Ba2   O24   S    
C2    O13   D    
C48   C49   A    
C55   H48   S    
O24   P4    S    
C2    C13   A    
C28   O26   S    
C67   H22   S    
C24   C25   A    
O18   P6    S    
C23   O7    S    
C18   C19   A    
C68   H5    S    
C11   C38   A    
O15   P6    S    
C15   C30   S    
C27   O11   D    
C7    C8    S    
C49   C50   A    
O21   P3    D    
C69   H63   S    
C34   H11   S    
C22   C24   A    
O4    P1    S    
C8    N1    S    
C9    C13   A    
C25   C42   A    
C46   P2    S    
C52   H45   S    
C51   C53   A    
C21   C22   A    
C16   H49   S    
C68   H4    S    
C48   C58   S    
C28   H58   S    
C60   P5    S    
O19   P2    D    
C53   C54   A    
C39   C43   A    
C5    C14   S    
C6    C14   D    
C61   C65   A    
C72   O10   D    
C71   H24   S    
C57   C58   A    
C54   C55   A    
C51   H46   S    
C30   P6    S    
C6    C7    D    
Ba2   O25   S    
C59   C60   A    
C1    H2    S    
C56   H19   S    
C3    C5    S    
C54   C63   S    
C18   C41   A    
C66   C68   S    
C28   C40   S    
C32   C33   S    
C61   C62   A    
C40   H34   S    
C17   C20   A    
C71   H25   S    
C10   C11   A    
O23   P4    D    
Ba1   O4    S    
C7    H27   S    
C16   H55   S    
C45   H17   S    
C2    N1    Am   
C40   H12   S    
C32   H39   S    
C38   H32   S    
Ba2   O23   S    
C59   H51   S    
Ba2   O28   S    
O6    P7    D    
C56   H18   S    
