data_mof_unit_pretest_799.cif
_audit_creation_date              2012-10-26T20:38:23-0400
_audit_creation_method            fapswitch 2.2
_symmetry_space_group_name_H-M    P1
_symmetry_Int_Tables_number       1
_space_group_crystal_system       triclinic
_cell_length_a                    15.862281
_cell_length_b                    11.099771
_cell_length_c                    10.291707
_cell_angle_alpha                 112.298558
_cell_angle_beta                  100.227203
_cell_angle_gamma                 94.353389
_cell_volume                      1629.33902053

loop_
_atom_site_label
_atom_site_type_symbol
_atom_type_description
_atom_site_fract_x
_atom_site_fract_y
_atom_site_fract_z
_atom_type_partial_charge
C1    C     C_R   0.493597 0.254099 0.439647 0.542277
C2    C     C_3   0.027072 0.593027 0.456378 -0.100279
C3    C     C_3   0.009970 0.381030 0.407601 -0.101855
C4    C     C_3   0.990030 0.618970 0.592399 -0.101856
C5    C     C_1   0.249686 0.498341 0.493652 -0.038808
C6    C     C_1   0.750314 0.501659 0.506347 -0.038807
C7    C     C_3   0.046685 0.525027 0.632274 -0.100257
C8    C     C_3   0.953315 0.474973 0.367726 -0.100256
C9    C     C_3   0.082245 0.499090 0.496265 0.052872
C10   C     C_3   0.917755 0.500911 0.503735 0.052871
C11   C     C_1   0.173898 0.498379 0.493473 -0.065723
C12   C     C_R   0.506403 0.745901 0.560353 0.542273
C13   C     C_1   0.826102 0.501621 0.506527 -0.065723
C14   C     C_2   0.488889 0.112323 0.406527 -0.138662
C15   C     C_2   0.511110 0.887677 0.593474 -0.138662
C16   C     C_3   0.422847 0.376646 0.806778 -0.306930
C17   C     C_3   0.577153 0.623351 0.193220 -0.306931
C18   C     C_3   0.612151 0.658163 0.951329 -0.090418
C19   C     C_3   0.647583 0.760421 0.898132 -0.256727
C20   C     C_3   0.730187 0.847386 0.004759 -0.511801
C21   C     C_3   0.387857 0.341827 0.048663 -0.090427
C22   C     C_3   0.352415 0.239577 0.101863 -0.256738
C23   C     C_2   0.503760 0.070215 0.514221 -0.162866
C24   C     C_3   0.269826 0.152588 0.995207 -0.511803
C25   C     C_2   0.496239 0.929785 0.485780 -0.162866
C26   C     C_2   0.507893 0.512433 0.082854 0.127366
C27   C     C_2   0.492109 0.487564 0.917145 0.127365
C28   C     C_R   0.340221 0.499093 0.497747 0.535881
C29   C     C_R   0.659779 0.500907 0.502253 0.535879
C30   C     C_3   0.972928 0.406973 0.543623 -0.100280
Cu1   Cu    Cu3+1 0.514700 0.521810 0.644910 0.898524
Cu2   Cu    Cu3+1 0.485300 0.478190 0.355090 0.898527
H1    H     H_    0.019320 0.283319 0.331539 0.099562
H2    H     H_    0.472127 0.042274 0.294685 0.091708
H3    H     H_    0.357786 0.387867 0.828702 0.066337
H4    H     H_    0.407454 0.367291 0.698634 0.210872
H5    H     H_    0.445125 0.280508 0.788017 0.073804
H6    H     H_    0.642215 0.612133 0.171293 0.066335
H7    H     H_    0.554873 0.719487 0.211977 0.073810
H8    H     H_    0.592548 0.632709 0.301366 0.210870
H9    H     H_    0.717297 0.898670 0.113561 0.149658
H10   H     H_    0.782124 0.786919 0.011923 0.149676
H11   H     H_    0.753514 0.923055 0.967680 0.143911
H12   H     H_    0.980680 0.716681 0.668461 0.099562
H13   H     H_    0.665958 0.718800 0.794619 0.214007
H14   H     H_    0.600257 0.828751 0.894820 0.170420
H15   H     H_    0.591252 0.730025 0.040400 0.118511
H16   H     H_    0.667455 0.609847 0.978449 0.128064
H17   H     H_    0.217899 0.213047 0.987934 0.149674
H18   H     H_    0.282753 0.101240 0.886445 0.149660
H19   H     H_    0.246465 0.076973 0.032333 0.143911
H20   H     H_    0.399742 0.171256 0.105208 0.170442
H21   H     H_    0.334020 0.281209 0.205358 0.213990
H22   H     H_    0.332552 0.390135 0.021529 0.128061
H23   H     H_    0.949537 0.330646 0.579642 0.101957
H24   H     H_    0.408767 0.269964 0.959605 0.118522
H25   H     H_    0.050463 0.669355 0.420358 0.101957
H26   H     H_    0.913726 0.454414 0.259051 0.102268
H27   H     H_    0.086274 0.545586 0.740949 0.102268
H28   H     H_    0.478031 0.860026 0.373985 0.158513
H29   H     H_    0.521968 0.139974 0.626015 0.158512
H30   H     H_    0.527872 0.957725 0.705315 0.091708
N1    N     N_2   0.463210 0.445420 0.137360 -0.229319
N2    N     N_2   0.536790 0.554580 0.862640 -0.229321
O1    O     O_R   0.507840 0.332340 0.577400 -0.512732
O2    O     O_R   0.492160 0.667660 0.422600 -0.512731
O3    O     O_R   0.483020 0.295500 0.332650 -0.508285
O4    O     O_R   0.516980 0.704500 0.667350 -0.508291
O5    O     O_R   0.391490 0.518400 0.622350 -0.509021
O6    O     O_R   0.608510 0.481600 0.377650 -0.509022
O7    O     O_R   0.366660 0.481570 0.377600 -0.502494
O8    O     O_R   0.633340 0.518430 0.622400 -0.502497

loop_
_geom_bond_atom_site_label_1
_geom_bond_atom_site_label_2
_ccdc_geom_bond_type
C14   C23   D    
C14   H2    S    
C21   H24   S    
C2    C4    S    
C26   N1    D    
C19   H13   S    
Cu2   O7    S    
C3    C9    S    
C25   H28   S    
C3    C30   S    
C5    C28   S    
C9    C11   S    
C30   H23   S    
C10   C30   S    
C20   H10   S    
C28   O5    A    
C12   C15   S    
C23   H29   S    
C16   H5    S    
C29   O8    A    
C18   H15   S    
C20   H11   S    
C24   H19   S    
C20   H9    S    
C2    H25   S    
C7    C30   S    
C21   C22   S    
C16   H4    S    
C6    C13   T    
C12   O4    A    
C18   N2    S    
C26   C27   S    
C21   H22   S    
C16   C27   S    
Cu2   O3    S    
C17   C26   S    
Cu1   N2    S    
C7    H27   S    
Cu1   O8    S    
C1    O3    A    
C15   H30   S    
C5    C11   T    
C22   H21   S    
C17   H6    S    
C23   C25   S    
C16   H3    S    
C24   H18   S    
Cu1   O4    S    
C22   C24   S    
C19   H14   S    
C28   O7    A    
C15   C25   D    
C27   N2    D    
C3    H1    S    
C4    C10   S    
Cu1   O5    S    
C6    C29   S    
Cu2   N1    S    
Cu2   O2    S    
C3    C8    S    
C17   H7    S    
C2    C8    S    
C24   H17   S    
C7    C9    S    
Cu1   O1    S    
C4    C7    S    
C18   C19   S    
Cu2   O6    S    
C1    C14   S    
C4    H12   S    
C19   C20   S    
C8    H26   S    
C29   O6    A    
C2    C9    S    
C12   O2    A    
C1    O1    A    
C17   H8    S    
C8    C10   S    
C22   H20   S    
Cu1   Cu2   S    
C21   N1    S    
C10   C13   S    
C18   H16   S    
