data_mof_unit_pretest_175.cif
_audit_creation_date              2012-12-11T16:07:18-0500
_audit_creation_method            fapswitch 2.2
_symmetry_space_group_name_H-M    P1
_symmetry_Int_Tables_number       1
_space_group_crystal_system       monoclinic
_cell_length_a                    17.103322
_cell_length_b                    17.102358
_cell_length_c                    17.266256
_cell_angle_alpha                 90.178636
_cell_angle_beta                  90.0
_cell_angle_gamma                 90.0
_cell_volume                      5050.4785422

loop_
_atom_site_label
_atom_site_type_symbol
_atom_type_description
_atom_site_fract_x
_atom_site_fract_y
_atom_site_fract_z
_atom_type_partial_charge
C1    C     C_R   0.394100 0.698636 0.605772 -0.154159
C2    C     C_R   0.577847 0.671351 0.645138 -0.105647
C3    C     C_3   0.769693 0.187084 0.639084 0.783167
C4    C     C_3   0.714567 0.756897 0.274096 0.766351
C5    C     C_3   0.285434 0.243103 0.725904 0.766350
C6    C     C_3   0.813005 0.229220 0.362039 0.787367
C7    C     C_3   0.186995 0.770780 0.637961 0.787367
C8    C     C_3   0.686995 0.729220 0.862039 0.787368
C9    C     C_3   0.313004 0.270780 0.137961 0.787368
C10   C     C_3   0.785434 0.256897 0.774096 0.766349
C11   C     C_3   0.214566 0.743103 0.225904 0.766350
C12   C     C_3   0.269693 0.312916 0.860916 0.783167
C13   C     C_R   0.698510 0.393105 0.394669 -0.148525
C14   C     C_3   0.730307 0.687084 0.139083 0.783166
C15   C     C_3   0.255726 0.785636 0.773422 0.769600
C16   C     C_3   0.744274 0.214364 0.226578 0.769601
C17   C     C_3   0.137961 0.257942 0.350583 -0.274513
C18   C     C_3   0.862043 0.742051 0.649420 -0.274530
C19   C     C_3   0.207394 0.917931 0.440968 -0.232260
C20   C     C_3   0.792605 0.082068 0.559032 -0.232257
C21   C     C_3   0.741466 0.864022 0.350835 -0.267467
C22   C     C_3   0.258533 0.135978 0.649165 -0.267463
C23   C     C_3   0.917440 0.205608 0.442164 -0.237125
C24   C     C_R   0.301490 0.606894 0.605331 -0.148524
C25   C     C_3   0.082560 0.794391 0.557836 -0.237126
C26   C     C_3   0.582560 0.705609 0.942164 -0.237128
C27   C     C_3   0.417440 0.294391 0.057836 -0.237131
C28   C     C_3   0.758525 0.364018 0.850838 -0.267455
C29   C     C_3   0.241466 0.635977 0.149165 -0.267466
C30   C     C_3   0.292607 0.417931 0.940969 -0.232253
C31   C     C_3   0.707394 0.582069 0.059031 -0.232253
C32   C     C_3   0.362041 0.757946 0.850581 -0.274523
C33   C     C_3   0.637957 0.242050 0.149421 -0.274529
C34   C     C_R   0.578235 0.670264 0.354286 -0.052763
C35   C     C_R   0.421765 0.329736 0.645714 -0.052763
C36   C     C_R   0.301529 0.605704 0.393928 -0.160780
C37   C     C_R   0.698471 0.394295 0.606072 -0.160781
C38   C     C_R   0.922153 0.171351 0.145138 -0.105646
C39   C     C_R   0.077847 0.828649 0.854862 -0.105646
C40   C     C_R   0.198510 0.106894 0.105331 -0.148524
C41   C     C_R   0.605900 0.301363 0.394227 -0.154159
C42   C     C_R   0.801490 0.893105 0.894669 -0.148524
C43   C     C_R   0.078235 0.829736 0.145714 -0.052763
C44   C     C_R   0.921765 0.170264 0.854286 -0.052761
C45   C     C_R   0.801529 0.894295 0.106072 -0.160780
C46   C     C_R   0.198471 0.105704 0.893928 -0.160780
C47   C     C_R   0.894100 0.801363 0.894227 -0.154159
C48   C     C_R   0.105900 0.198636 0.105773 -0.154160
C49   C     C_R   0.169789 0.922166 0.853878 -0.050804
C50   C     C_R   0.830211 0.077834 0.146122 -0.050804
C51   C     C_R   0.106685 0.198343 0.894320 -0.152774
C52   C     C_R   0.669789 0.577834 0.646122 -0.050803
C53   C     C_R   0.893315 0.801657 0.105680 -0.152774
C54   C     C_R   0.828246 0.078180 0.855246 -0.108214
C55   C     C_R   0.171754 0.921819 0.144754 -0.108212
C56   C     C_3   0.323213 0.321062 0.250831 -0.017731
C57   C     C_3   0.676787 0.678938 0.749169 -0.017732
C58   C     C_3   0.264394 0.734021 0.337348 -0.001326
C59   C     C_3   0.735606 0.265979 0.662652 -0.001325
C60   C     C_3   0.679724 0.677539 0.251718 -0.018980
C61   C     C_3   0.320276 0.322461 0.748282 -0.018980
C62   C     C_3   0.734534 0.263875 0.338251 0.000019
C63   C     C_R   0.330211 0.422166 0.353878 -0.050804
C64   C     C_3   0.265466 0.736125 0.661749 0.000019
C65   C     C_3   0.765466 0.763875 0.838251 0.000019
C66   C     C_3   0.234534 0.236125 0.161749 0.000019
C67   C     C_3   0.820276 0.177539 0.751718 -0.018979
C68   C     C_3   0.179724 0.822461 0.248282 -0.018981
C69   C     C_3   0.235606 0.234021 0.837348 -0.001325
C70   C     C_3   0.764394 0.765978 0.162652 -0.001325
C71   C     C_3   0.176787 0.821062 0.750831 -0.017732
C72   C     C_3   0.823213 0.178938 0.249169 -0.017733
C73   C     C_R   0.317617 0.683380 0.622534 0.148142
C74   C     C_R   0.606684 0.301657 0.605680 -0.152774
C75   C     C_R   0.682382 0.316620 0.377466 0.148142
C76   C     C_R   0.636115 0.637521 0.688506 0.067972
C77   C     C_R   0.363885 0.362479 0.311494 0.067972
C78   C     C_R   0.683058 0.317931 0.623174 0.152830
C79   C     C_R   0.316942 0.682069 0.376826 0.152830
C80   C     C_R   0.361743 0.363145 0.687838 0.071483
C81   C     C_R   0.638256 0.636854 0.312162 0.071483
C82   C     C_R   0.863885 0.137521 0.188506 0.067972
C83   C     C_R   0.136115 0.862479 0.811494 0.067972
C84   C     C_R   0.182382 0.183380 0.122534 0.148143
C85   C     C_R   0.393315 0.698343 0.394320 -0.152774
C86   C     C_R   0.817618 0.816620 0.877466 0.148142
C87   C     C_R   0.138256 0.863145 0.187837 0.071484
C88   C     C_R   0.861744 0.136855 0.812162 0.071483
C89   C     C_R   0.816942 0.817931 0.123174 0.152829
C90   C     C_R   0.183058 0.182069 0.876826 0.152830
C91   C     C_3   0.711229 0.649593 0.826287 -0.346620
C92   C     C_3   0.288770 0.350407 0.173714 -0.346621
C93   C     C_3   0.707009 0.231900 0.740020 -0.357655
C94   C     C_3   0.292991 0.768100 0.259980 -0.357647
C95   C     C_3   0.241444 0.348155 0.783765 -0.381835
C96   C     C_R   0.328246 0.421820 0.644754 -0.108211
C97   C     C_3   0.758556 0.651845 0.216234 -0.381835
C98   C     C_3   0.291224 0.814698 0.697469 -0.364622
C99   C     C_3   0.708776 0.185302 0.302531 -0.364626
C100  C     C_3   0.769484 0.292500 0.261252 -0.358561
C101  C     C_3   0.230516 0.707500 0.738748 -0.358565
C102  C     C_3   0.650432 0.711117 0.174209 -0.342993
C103  C     C_3   0.349567 0.288883 0.825791 -0.342994
C104  C     C_3   0.185553 0.708446 0.302262 -0.361698
C105  C     C_3   0.814447 0.291554 0.697739 -0.361691
C106  C     C_3   0.349099 0.242512 0.214745 -0.383565
C107  C     C_R   0.671754 0.578180 0.355246 -0.108211
C108  C     C_3   0.650901 0.757488 0.785254 -0.383565
C109  C     C_3   0.269485 0.207500 0.238748 -0.358566
C110  C     C_3   0.730516 0.792500 0.761252 -0.358562
C111  C     C_3   0.150433 0.788884 0.325791 -0.342993
C112  C     C_3   0.849567 0.211116 0.674209 -0.342993
C113  C     C_3   0.685553 0.791554 0.197739 -0.361699
C114  C     C_3   0.314447 0.208446 0.802261 -0.361698
C115  C     C_3   0.849099 0.257488 0.285254 -0.383565
C116  C     C_3   0.150901 0.742512 0.714746 -0.383564
C117  C     C_3   0.211229 0.850407 0.673713 -0.346621
C118  C     C_R   0.422153 0.328649 0.354862 -0.105646
C119  C     C_3   0.788771 0.149593 0.326287 -0.346621
C120  C     C_3   0.207009 0.268100 0.759980 -0.357647
C121  C     C_3   0.792991 0.731900 0.240020 -0.357645
C122  C     C_3   0.741444 0.151845 0.716235 -0.381834
C123  C     C_3   0.258556 0.848155 0.283765 -0.381835
C124  C     C_3   0.791224 0.685302 0.802531 -0.364624
C125  C     C_3   0.208776 0.314697 0.197470 -0.364621
C126  C     C_3   0.244274 0.285635 0.273422 0.769600
C127  C     C_3   0.755726 0.714364 0.726578 0.769600
C128  C     C_3   0.230307 0.812916 0.360916 0.783167
H1    H     H_    0.422355 0.755171 0.604706 0.103505
H2    H     H_    0.543346 0.722187 0.659609 0.094774
H3    H     H_    0.233790 0.610923 0.090318 0.175273
H4    H     H_    0.265340 0.460229 0.900329 0.120948
H5    H     H_    0.356707 0.414209 0.930720 0.117689
H6    H     H_    0.283883 0.440809 0.000520 0.163065
H7    H     H_    0.643294 0.585789 0.069282 0.117688
H8    H     H_    0.734662 0.539770 0.099670 0.120950
H9    H     H_    0.716116 0.559192 0.999479 0.163064
H10   H     H_    0.404131 0.785034 0.809565 0.127986
H11   H     H_    0.356710 0.694159 0.839039 0.131359
H12   H     H_    0.386368 0.764966 0.909744 0.175972
H13   H     H_    0.755391 0.420740 0.395262 0.112528
H14   H     H_    0.643283 0.305837 0.160970 0.131357
H15   H     H_    0.595867 0.214955 0.190432 0.127989
H16   H     H_    0.613633 0.235036 0.090255 0.175973
H17   H     H_    0.244609 0.579260 0.604738 0.112528
H18   H     H_    0.543556 0.720614 0.338710 0.102577
H19   H     H_    0.456444 0.279386 0.661289 0.102577
H20   H     H_    0.245029 0.577368 0.394784 0.107153
H21   H     H_    0.754971 0.422632 0.605217 0.107153
H22   H     H_    0.956654 0.222187 0.159609 0.094774
H23   H     H_    0.043346 0.777813 0.840391 0.094774
H24   H     H_    0.255391 0.079260 0.104738 0.112527
H25   H     H_    0.577645 0.244829 0.395294 0.103505
H26   H     H_    0.744609 0.920740 0.895262 0.112528
H27   H     H_    0.043556 0.779386 0.161289 0.102578
H28   H     H_    0.956444 0.220614 0.838710 0.102579
H29   H     H_    0.745029 0.922632 0.105216 0.107153
H30   H     H_    0.254971 0.077368 0.894784 0.107153
H31   H     H_    0.922355 0.744829 0.895294 0.103505
H32   H     H_    0.077645 0.255171 0.104706 0.103506
H33   H     H_    0.220145 0.956751 0.838130 0.099139
H34   H     H_    0.779855 0.043249 0.161870 0.099138
H35   H     H_    0.078974 0.255194 0.894699 0.116406
H36   H     H_    0.720145 0.543249 0.661870 0.099138
H37   H     H_    0.921026 0.744806 0.105301 0.116405
H38   H     H_    0.777468 0.043530 0.840922 0.097163
H39   H     H_    0.222532 0.956470 0.159078 0.097162
H40   H     H_    0.700906 0.590856 0.851441 0.136784
H41   H     H_    0.299093 0.409144 0.148559 0.136784
H42   H     H_    0.648614 0.241998 0.766357 0.149960
H43   H     H_    0.351385 0.758001 0.233642 0.149962
H44   H     H_    0.212941 0.405974 0.776581 0.148263
H45   H     H_    0.787058 0.594025 0.223419 0.148262
H46   H     H_    0.349070 0.843225 0.690542 0.145783
H47   H     H_    0.279855 0.456751 0.338130 0.099139
H48   H     H_    0.650930 0.156775 0.309458 0.145782
H49   H     H_    0.760000 0.351026 0.235175 0.147188
H50   H     H_    0.240000 0.648973 0.764825 0.147188
H51   H     H_    0.591857 0.700179 0.148756 0.140081
H52   H     H_    0.408143 0.299821 0.851244 0.140080
H53   H     H_    0.156708 0.650837 0.309724 0.148138
H54   H     H_    0.843291 0.349163 0.690276 0.148139
H55   H     H_    0.407180 0.214392 0.221465 0.144496
H56   H     H_    0.592821 0.785609 0.778534 0.144497
H57   H     H_    0.260001 0.148973 0.264824 0.147187
H58   H     H_    0.578974 0.244806 0.605301 0.116405
H59   H     H_    0.740000 0.851026 0.735175 0.147188
H60   H     H_    0.091857 0.799821 0.351244 0.140081
H61   H     H_    0.908143 0.200179 0.648756 0.140081
H62   H     H_    0.656709 0.849163 0.190277 0.148138
H63   H     H_    0.343291 0.150837 0.809724 0.148138
H64   H     H_    0.907179 0.285609 0.278534 0.144498
H65   H     H_    0.092821 0.714391 0.721466 0.144497
H66   H     H_    0.200906 0.909144 0.648559 0.136784
H67   H     H_    0.799094 0.090856 0.351441 0.136784
H68   H     H_    0.148615 0.258001 0.733643 0.149962
H69   H     H_    0.421026 0.755194 0.394699 0.116405
H70   H     H_    0.851385 0.741998 0.266357 0.149962
H71   H     H_    0.712941 0.094026 0.723420 0.148262
H72   H     H_    0.287059 0.905974 0.276580 0.148262
H73   H     H_    0.849070 0.656775 0.809458 0.145783
H74   H     H_    0.150930 0.343224 0.190543 0.145783
H75   H     H_    0.143296 0.194154 0.339044 0.131358
H76   H     H_    0.095869 0.285025 0.309564 0.127982
H77   H     H_    0.113633 0.264964 0.409746 0.175972
H78   H     H_    0.904132 0.714958 0.690432 0.127990
H79   H     H_    0.856715 0.805837 0.660967 0.131359
H80   H     H_    0.277468 0.456470 0.659078 0.097162
H81   H     H_    0.886367 0.735036 0.590255 0.175974
H82   H     H_    0.143294 0.914211 0.430719 0.117690
H83   H     H_    0.234662 0.960230 0.400329 0.120950
H84   H     H_    0.216118 0.940809 0.500520 0.163065
H85   H     H_    0.765335 0.039770 0.599670 0.120951
H86   H     H_    0.856705 0.085788 0.569283 0.117688
H87   H     H_    0.783882 0.059191 0.499480 0.163065
H88   H     H_    0.714659 0.905525 0.309104 0.132061
H89   H     H_    0.805370 0.858750 0.340140 0.129933
H90   H     H_    0.733791 0.889076 0.409683 0.175273
H91   H     H_    0.722532 0.543530 0.340922 0.097163
H92   H     H_    0.194629 0.141251 0.659858 0.129932
H93   H     H_    0.285338 0.094474 0.690898 0.132060
H94   H     H_    0.266210 0.110923 0.590318 0.175273
H95   H     H_    0.959955 0.232855 0.401710 0.113004
H96   H     H_    0.913590 0.141541 0.431547 0.118554
H97   H     H_    0.940120 0.214143 0.501760 0.166470
H98   H     H_    0.086409 0.858458 0.568454 0.118554
H99   H     H_    0.040045 0.767143 0.598290 0.113005
H100  H     H_    0.059880 0.785856 0.498240 0.166470
H101  H     H_    0.586408 0.641543 0.931545 0.118553
H102  H     H_    0.456654 0.277813 0.340391 0.094774
H103  H     H_    0.540045 0.732858 0.901711 0.113005
H104  H     H_    0.559880 0.714143 0.001760 0.166471
H105  H     H_    0.459955 0.267138 0.098287 0.113008
H106  H     H_    0.413594 0.358457 0.068459 0.118552
H107  H     H_    0.440118 0.285859 0.998239 0.166471
H108  H     H_    0.694619 0.358733 0.840163 0.129937
H109  H     H_    0.785312 0.405522 0.809095 0.132051
H110  H     H_    0.766213 0.389078 0.909681 0.175272
H111  H     H_    0.214660 0.594475 0.190898 0.132061
H112  H     H_    0.305370 0.641250 0.159859 0.129933
N1    N     N_R   0.424590 0.632770 0.578330 -0.046523
N2    N     N_R   0.575410 0.632770 0.578330 -0.043096
N3    N     N_R   0.632770 0.424590 0.421670 -0.048199
N4    N     N_R   0.367230 0.575410 0.578330 -0.048199
N5    N     N_R   0.575410 0.632770 0.421670 -0.045506
N6    N     N_R   0.424590 0.367230 0.578330 -0.045506
N7    N     N_R   0.367230 0.575410 0.421670 -0.048952
N8    N     N_R   0.632770 0.424590 0.578330 -0.048952
N9    N     N_R   0.924590 0.132770 0.078330 -0.043096
N10   N     N_R   0.075410 0.867230 0.921670 -0.043096
N11   N     N_R   0.132770 0.075410 0.078330 -0.048199
N12   N     N_R   0.575410 0.367230 0.421670 -0.046523
N13   N     N_R   0.867230 0.924590 0.921670 -0.048199
N14   N     N_R   0.075410 0.867230 0.078330 -0.045506
N15   N     N_R   0.924590 0.132770 0.921670 -0.045506
N16   N     N_R   0.867230 0.924590 0.078330 -0.048952
N17   N     N_R   0.132770 0.075410 0.921670 -0.048952
N18   N     N_R   0.924590 0.867230 0.921670 -0.046523
N19   N     N_R   0.075410 0.132770 0.078330 -0.046523
N20   N     N_R   0.132770 0.924590 0.921670 -0.044756
N21   N     N_R   0.867230 0.075410 0.078330 -0.044756
N22   N     N_R   0.075410 0.132770 0.921670 -0.050985
N23   N     N_R   0.632770 0.575410 0.578330 -0.044756
N24   N     N_R   0.924590 0.867230 0.078330 -0.050985
N25   N     N_R   0.867230 0.075410 0.921670 -0.043328
N26   N     N_R   0.132770 0.924590 0.078330 -0.043328
N27   N     N_R   0.367230 0.424590 0.421670 -0.044756
N28   N     N_R   0.575410 0.367230 0.578330 -0.050985
N29   N     N_R   0.424590 0.632770 0.421670 -0.050985
N30   N     N_R   0.367230 0.424590 0.578330 -0.043328
N31   N     N_R   0.632770 0.575410 0.421670 -0.043328
N32   N     N_R   0.424590 0.367230 0.421670 -0.043096
Ni1   Ni    Ni4+2 0.500000 0.631570 0.500000 0.225050
Ni2   Ni    Ni4+2 0.500000 0.368430 0.500000 0.225049
Ni3   Ni    Ni4+2 0.631570 0.500000 0.500000 0.225188
Ni4   Ni    Ni4+2 0.368430 0.500000 0.500000 0.225187
Ni5   Ni    Ni4+2 0.000000 0.131570 0.000000 0.225050
Ni6   Ni    Ni4+2 0.000000 0.868430 0.000000 0.225050
Ni7   Ni    Ni4+2 0.131570 0.000000 0.000000 0.225187
Ni8   Ni    Ni4+2 0.868430 0.000000 0.000000 0.225187
O1    O     O_3   0.211263 0.295425 0.347830 -0.614330
O2    O     O_3   0.343578 0.258455 0.063100 -0.590543
O3    O     O_3   0.795720 0.290538 0.848236 -0.615193
O4    O     O_3   0.204282 0.709462 0.151763 -0.615191
O5    O     O_3   0.256864 0.343958 0.935572 -0.591399
O6    O     O_3   0.743135 0.656042 0.064428 -0.591400
O7    O     O_3   0.288738 0.795426 0.847830 -0.614329
O8    O     O_3   0.711263 0.204575 0.152170 -0.614328
O9    O     O_3   0.788737 0.704575 0.652170 -0.614327
O10   O     O_3   0.243136 0.843958 0.435572 -0.591400
O11   O     O_3   0.756864 0.156042 0.564428 -0.591400
O12   O     O_3   0.704283 0.790537 0.348237 -0.615191
O13   O     O_3   0.295718 0.209463 0.651763 -0.615191
O14   O     O_3   0.843579 0.241546 0.436900 -0.590544
O15   O     O_3   0.156421 0.758453 0.563100 -0.590544
O16   O     O_3   0.656421 0.741546 0.936900 -0.590544

loop_
_geom_bond_atom_site_label_1
_geom_bond_atom_site_label_2
_ccdc_geom_bond_type
C12   C69   S    
C32   O7    S    
C127  O9    S    
C120  H68   S    
C53   N24   A    
C57   C76   S    
N5    N31   A    
C1    H1    S    
C49   N20   A    
C14   C102  S    
C38   N9    A    
C61   C80   S    
C35   C80   A    
C59   C78   S    
C112  H61   S    
N13   N18   A    
C36   H20   S    
C99   H48   S    
C15   O7    S    
C42   C86   A    
C34   C81   A    
C56   C126  S    
C105  H54   S    
C31   H9    S    
C71   C83   S    
C104  H53   S    
N15   Ni5   S    
C100  C115  S    
C11   O4    S    
C23   H97   S    
C33   H16   S    
C110  H59   S    
C51   N22   A    
C125  H74   S    
C97   H45   S    
C108  H56   S    
C19   H84   S    
C47   C86   A    
C4    C113  S    
N6    Ni2   S    
C32   H11   S    
C40   N11   A    
C109  H57   S    
N13   Ni8   S    
C28   H109  S    
N27   N32   A    
C91   H40   S    
C3    C112  S    
C21   H88   S    
C56   C106  S    
C58   C79   S    
C124  C127  S    
C107  H91   S    
C105  C112  S    
N16   N24   A    
C53   C89   A    
C62   C75   S    
C31   O6    S    
C79   C85   A    
C52   N23   A    
N14   N26   A    
C31   H8    S    
N6    N30   A    
C37   C78   A    
C124  H73   S    
C54   C88   A    
C34   H18   S    
C49   C83   A    
N21   Ni8   S    
N9    Ni5   S    
C24   N4    A    
C119  H67   S    
C106  H55   S    
C96   H80   S    
C99   C119  S    
C62   C99   S    
C67   C112  S    
N28   Ni2   S    
C22   O13   S    
N12   Ni2   S    
C50   N21   A    
C58   C128  S    
C50   H34   S    
C19   H82   S    
C7    C117  S    
C92   C125  S    
C47   H31   S    
C113  H62   S    
C48   H32   S    
C72   C115  S    
C111  H60   S    
C42   H26   S    
C24   H17   S    
C51   C90   A    
C47   N18   A    
C85   N29   A    
C46   H30   S    
C126  O1    S    
C39   H23   S    
C40   H24   S    
C103  H52   S    
C65   C124  S    
C17   H75   S    
C97   C121  S    
C101  H50   S    
C13   C75   A    
C30   H6    S    
C19   O10   S    
C30   O5    S    
C64   C73   S    
C12   C95   S    
C23   O14   S    
C95   H44   S    
C49   H33   S    
N11   N19   A    
C128  O10   S    
C8    C65   S    
C21   H89   S    
C25   O15   S    
C26   O16   S    
C60   C102  S    
C9    C92   S    
C41   H25   S    
C70   C113  S    
C65   C110  S    
C54   N25   A    
C71   C117  S    
C44   H28   S    
C103  C114  S    
C45   H29   S    
N8    Ni3   S    
C77   C118  A    
N20   Ni7   S    
C16   C100  S    
N22   Ni5   S    
C25   H99   S    
C18   H79   S    
C20   H86   S    
C7    C116  S    
C32   H10   S    
C60   C81   S    
C4    C60   S    
C5    C61   S    
C21   O12   S    
C15   C101  S    
C2    N2    A    
C28   H108  S    
C23   H95   S    
N17   Ni7   S    
N23   Ni3   S    
N19   Ni5   S    
C70   C89   S    
C58   C104  S    
N3    Ni3   S    
C6    C119  S    
C11   C68   S    
C114  H63   S    
N2    Ni1   S    
C52   C76   A    
C57   C127  S    
N25   Ni8   S    
N26   Ni7   S    
C91   C124  S    
N1    N4    A    
C17   H77   S    
C68   C123  S    
C29   H3    S    
C39   N10   A    
C14   O6    S    
C29   O4    S    
C30   H4    S    
C108  C110  S    
C9    O2    S    
C55   C87   A    
N11   Ni7   S    
C121  H70   S    
C109  C126  S    
C57   C108  S    
N32   Ni2   S    
C111  C128  S    
N4    Ni4   S    
C36   N7    A    
C106  C109  S    
C81   C107  A    
C40   C84   A    
C16   C72   S    
C55   H39   S    
C27   O2    S    
C65   C86   S    
C33   H15   S    
C22   H94   S    
C67   C88   S    
C59   C105  S    
C98   C117  S    
C19   H83   S    
N10   Ni6   S    
C61   C103  S    
C32   H12   S    
C24   C73   A    
N1    Ni1   S    
C27   H106  S    
C28   H110  S    
N18   Ni6   S    
C51   H35   S    
C11   C104  S    
C13   H13   S    
C45   C89   A    
C29   H112  S    
C17   O1    S    
C94   C123  S    
C64   C98   S    
C38   C82   A    
C14   C70   S    
C55   N26   A    
C54   H38   S    
C43   H27   S    
C22   H93   S    
C26   H101  S    
C93   H42   S    
N27   Ni4   S    
C5    C120  S    
C107  N31   A    
N17   N22   A    
C18   H81   S    
C93   C122  S    
C12   C103  S    
C31   H7    S    
C60   C97   S    
C8    O16   S    
C10   C93   S    
C10   O3    S    
C4    O12   S    
C5    O13   S    
C94   H43   S    
C41   C75   A    
C92   H41   S    
C34   N5    A    
C8    C91   S    
C52   H36   S    
C62   C100  S    
C115  H64   S    
C11   C94   S    
C85   H69   S    
C125  C126  S    
C26   H103  S    
C15   C98   S    
C2    C76   A    
C50   C82   A    
C22   H92   S    
C35   N6    A    
C57   C91   S    
C37   H21   S    
C36   C79   A    
C61   C95   S    
C44   N15   A    
C46   C90   A    
C95   C120  S    
C15   C71   S    
C69   C120  S    
C42   N13   A    
N29   Ni1   S    
C1    C73   A    
C6    C62   S    
C39   C83   A    
C102  C113  S    
N14   Ni6   S    
C98   H46   S    
C41   N12   A    
C2    H2    S    
C4    C121  S    
C66   C109  S    
C6    C115  S    
C45   N16   A    
C74   C78   A    
C101  C116  S    
N7    Ni4   S    
C74   H58   S    
C28   O3    S    
C48   N19   A    
C5    C114  S    
C3    O11   S    
C10   C67   S    
N31   Ni3   S    
C37   N8    A    
N7    N29   A    
C96   N30   A    
C25   H98   S    
N5    Ni1   S    
C9    C66   S    
C117  H66   S    
C74   N28   A    
C71   C116  S    
N24   Ni6   S    
N2    N23   A    
C122  H71   S    
C16   O8    S    
C3    C122  S    
C27   H107  S    
C110  C127  S    
C46   N17   A    
C102  H51   S    
C100  H49   S    
C8    C108  S    
N10   N20   A    
C64   C101  S    
C18   O9    S    
C69   C114  S    
N30   Ni4   S    
C123  H72   S    
C7    O15   S    
C26   H104  S    
C9    C106  S    
N15   N25   A    
C118  N32   A    
C56   C77   S    
C48   C84   A    
C68   C111  S    
C17   H76   S    
C12   O5    S    
C33   O8    S    
C30   H5    S    
C20   H87   S    
C35   H19   S    
C1    N1    A    
C116  H65   S    
C21   H90   S    
C80   C96   A    
C69   C90   S    
C67   C122  S    
C43   N14   A    
C14   C97   S    
C63   C77   A    
C53   H37   S    
C68   C87   S    
N3    N12   A    
C20   O11   S    
N16   Ni8   S    
C104  C111  S    
C6    O14   S    
C16   C99   S    
C63   H47   S    
N8    N28   A    
C33   H14   S    
C25   H100  S    
C66   C125  S    
C18   H78   S    
C43   C87   A    
C20   H85   S    
C58   C94   S    
C70   C121  S    
C123  C128  S    
C13   N3    A    
C118  H102  S    
C72   C119  S    
C29   H111  S    
C7    C64   S    
C27   H105  S    
C66   C84   S    
C56   C92   S    
C23   H96   S    
C10   C105  S    
C59   C93   S    
N9    N21   A    
C44   C88   A    
C63   N27   A    
C38   H22   S    
C72   C82   S    
C3    C59   S    
