data_mof_unit_pretest_281.cif
_audit_creation_date              2012-12-11T16:25:27-0500
_audit_creation_method            fapswitch 2.2
_symmetry_space_group_name_H-M    P1
_symmetry_Int_Tables_number       1
_space_group_crystal_system       triclinic
_cell_length_a                    20.173253
_cell_length_b                    7.265296
_cell_length_c                    13.458518
_cell_angle_alpha                 90.430974
_cell_angle_beta                  103.225353
_cell_angle_gamma                 89.347012
_cell_volume                      1920.07760965

loop_
_atom_site_label
_atom_site_type_symbol
_atom_type_description
_atom_site_fract_x
_atom_site_fract_y
_atom_site_fract_z
_atom_type_partial_charge
O1    O     O_R   0.449520 0.506760 0.599710 -0.537109
O2    O     O_R   0.550480 0.006760 0.400290 -0.537017
O3    O     O_R   0.587930 0.180200 0.595790 -0.538582
O4    O     O_R   0.412070 0.680200 0.404210 -0.538590
C1    C     C_R   0.614499 0.343986 0.617295 0.693282
C2    C     C_R   0.385507 0.844759 0.382711 0.693677
O5    O     O_R   0.452350 0.177380 0.611700 -0.540777
O6    O     O_R   0.547650 0.677380 0.388300 -0.541070
O7    O     O_R   0.413930 0.001760 0.416320 -0.535178
O8    O     O_R   0.586070 0.501760 0.583680 -0.535916
C3    C     C_R   0.436531 0.346816 0.637956 0.679458
C4    C     C_R   0.563539 0.844343 0.362022 0.679308
O9    O     O_3   0.487550 0.337460 0.435880 -0.377215
O10   O     O_3   0.512450 0.837460 0.564120 -0.377347
V1    V     V_3+5 0.502310 0.064670 0.511900 1.418992
V2    V     V_3+5 0.497690 0.564670 0.488100 1.418287
C5    C     C_R   0.610853 0.791198 0.109618 -0.166279
C6    C     C_R   0.388666 0.443385 0.886712 -0.164941
H1    H     H_    0.517333 0.786810 0.159619 0.101815
H2    H     H_    0.482237 0.438096 0.836672 0.102251
H3    H     H_    0.694951 0.762160 0.985153 0.139786
H4    H     H_    0.304248 0.493280 0.009352 0.140427
H5    H     H_    0.585562 0.761396 0.031142 0.114945
H6    H     H_    0.413710 0.485454 0.963448 0.114911
C7    C     C_R   0.603140 0.846109 0.283775 -0.025144
C8    C     C_R   0.396819 0.360686 0.715835 -0.025100
C9    C     C_R   0.930468 0.901370 0.317360 -0.174507
C10   C     C_R   0.069927 0.302477 0.685297 -0.174717
C11   C     C_R   0.894556 0.913377 0.393734 -0.124212
C12   C     C_R   0.106051 0.276181 0.609984 -0.122832
C13   C     C_R   0.824032 0.895159 0.370304 -0.163981
C14   C     C_R   0.176451 0.297213 0.632443 -0.165472
C15   C     C_R   0.787341 0.862583 0.268680 0.064958
C16   C     C_R   0.212800 0.347103 0.731917 0.063446
C17   C     C_R   0.824805 0.845059 0.191082 0.059881
C18   C     C_R   0.175137 0.378132 0.808279 0.060383
C19   C     C_R   0.714847 0.847645 0.241421 0.060140
C20   C     C_R   0.285137 0.366526 0.758238 0.058909
C21   C     C_R   0.681856 0.810190 0.138113 0.132185
C22   C     C_R   0.317804 0.420386 0.859310 0.131717
C23   C     C_R   0.719818 0.790732 0.063977 -0.193389
C24   C     C_R   0.279650 0.452053 0.932250 -0.195594
C25   C     C_R   0.790037 0.809336 0.089673 -0.202470
C26   C     C_R   0.209556 0.430257 0.907515 -0.201864
C27   C     C_R   0.673716 0.867564 0.313104 -0.222165
C28   C     C_R   0.326413 0.335408 0.687681 -0.221924
C29   C     C_R   0.571852 0.806940 0.182297 -0.179977
C30   C     C_R   0.427833 0.415441 0.815047 -0.180555
C31   C     C_R   0.896442 0.866640 0.216404 -0.068946
C32   C     C_R   0.103640 0.353853 0.784032 -0.068849
H7    H     H_    0.694777 0.895212 0.392769 0.104061
H8    H     H_    0.305595 0.295363 0.609635 0.103583
H9    H     H_    0.985112 0.920428 0.336984 0.100831
H10   H     H_    0.015391 0.281434 0.666667 0.101006
H11   H     H_    0.800019 0.907127 0.433751 0.120977
H12   H     H_    0.200633 0.273486 0.569960 0.120553
H13   H     H_    0.921520 0.939221 0.471793 0.121718
H14   H     H_    0.079354 0.237169 0.533609 0.121715
H15   H     H_    0.816855 0.795010 0.028938 0.134659
H16   H     H_    0.182536 0.455189 0.967225 0.134322
H17   H     H_    0.101266 0.684493 0.462414 0.119265
H18   H     H_    0.897133 0.504551 0.531313 0.119342
C33   C     C_R   0.233751 0.942965 0.040631 -0.139994
C34   C     C_R   0.767129 0.288913 0.962057 -0.140222
C35   C     C_R   0.290309 0.983559 0.001931 -0.101721
C36   C     C_R   0.710899 0.253055 0.002471 -0.099914
C37   C     C_R   0.355024 0.983289 0.065945 -0.135479
C38   C     C_R   0.646106 0.246825 0.938928 -0.135762
C39   C     C_R   0.363726 0.941301 0.169064 -0.146293
C40   C     C_R   0.636988 0.277712 0.834552 -0.146607
C41   C     C_R   0.307313 0.898651 0.210479 0.067841
C42   C     C_R   0.693063 0.315280 0.791303 0.068780
C43   C     C_R   0.240958 0.900085 0.145046 0.058498
C44   C     C_R   0.759521 0.320253 0.856297 0.058530
C45   C     C_R   0.316220 0.852439 0.314902 -0.178167
C46   C     C_R   0.683651 0.350939 0.685486 -0.178927
C47   C     C_R   0.258836 0.806950 0.353844 0.064421
C48   C     C_R   0.740619 0.392845 0.644746 0.064150
C49   C     C_R   0.192481 0.808625 0.288436 0.070714
C50   C     C_R   0.807088 0.397363 0.709704 0.071376
C51   C     C_R   0.183520 0.856341 0.184232 -0.176882
C52   C     C_R   0.816590 0.359680 0.815312 -0.177331
C53   C     C_R   0.266126 0.761164 0.457912 -0.147545
C54   C     C_R   0.732857 0.428383 0.539347 -0.148635
C55   C     C_R   0.209684 0.717493 0.496218 -0.123797
C56   C     C_R   0.788897 0.468651 0.499341 -0.124378
C57   C     C_R   0.144946 0.718516 0.432259 -0.125920
C58   C     C_R   0.853741 0.473527 0.562805 -0.126439
C59   C     C_R   0.136147 0.763743 0.329549 -0.141018
C60   C     C_R   0.863037 0.437884 0.666736 -0.140472
H19   H     H_    0.184519 0.944191 0.987626 0.113151
H20   H     H_    0.816405 0.293146 0.014811 0.113953
H21   H     H_    0.283854 0.015372 0.921798 0.130818
H22   H     H_    0.717677 0.229814 0.083569 0.129254
H23   H     H_    0.398771 0.015253 0.035495 0.118749
H24   H     H_    0.602607 0.218641 0.970722 0.118788
H25   H     H_    0.415088 0.941954 0.215720 0.094467
H26   H     H_    0.585515 0.273190 0.788448 0.094577
H27   H     H_    0.315356 0.759430 0.510913 0.114334
H28   H     H_    0.683573 0.424911 0.486598 0.115467
H29   H     H_    0.216243 0.683090 0.576032 0.130181
H30   H     H_    0.781954 0.495759 0.418590 0.129003
H31   H     H_    0.084794 0.763157 0.282886 0.094907
H32   H     H_    0.914510 0.442106 0.712808 0.094465
O11   O     O_R   0.913760 0.203480 0.916370 -0.533210
O12   O     O_R   0.086240 0.703480 0.083630 -0.535471
O13   O     O_R   0.047590 0.535230 0.888250 -0.541293
O14   O     O_R   0.952410 0.035230 0.111750 -0.539590
C61   C     C_R   0.063806 0.367178 0.862219 0.672074
C62   C     C_R   0.936120 0.869492 0.137805 0.672008
O15   O     O_R   0.912020 0.532880 0.904260 -0.539461
O16   O     O_R   0.087980 0.032880 0.095740 -0.536670
O17   O     O_R   0.949590 0.708460 0.099750 -0.538645
O18   O     O_R   0.050410 0.208460 0.900250 -0.536502
C63   C     C_R   0.885806 0.365436 0.883328 0.683182
C64   C     C_R   0.114207 0.864446 0.116582 0.683588
O19   O     O_3   0.012370 0.375360 0.064120 -0.376536
O20   O     O_3   0.987630 0.875360 0.935880 -0.376516
V3    V     V_3+5 0.997700 0.648160 0.988110 1.412725
V4    V     V_3+5 0.002300 0.148160 0.011890 1.420325

loop_
_geom_bond_atom_site_label_1
_geom_bond_atom_site_label_2
_ccdc_geom_bond_type
C36   C38   A    
C33   C35   A    
O12   V3    S    
C9    C11   A    
C23   C25   A    
O14   V4    S    
O1    C3    A    
C42   C46   A    
O2    C4    A    
C2    O7    A    
C18   C32   A    
C2    C45   S    
C21   C23   A    
O16   V4    S    
O5    C3    A    
C38   H24   S    
C27   H7    S    
C6    H6    S    
C46   C48   A    
C52   C63   S    
C48   C50   A    
C47   C53   A    
C28   H8    S    
O15   V3    S    
C5    C21   A    
C43   C51   A    
C39   C41   A    
C6    C22   A    
O20   V3    S    
H17   C57   S    
O17   V3    S    
C10   C32   A    
C35   C37   A    
C17   C31   A    
C13   C15   A    
O11   V4    S    
C12   C14   A    
C17   C25   A    
C7    C29   A    
C8    C30   A    
C36   H22   S    
C55   C57   A    
O6    V2    S    
C53   H27   S    
C59   H31   S    
C37   H23   S    
O13   C61   A    
C24   C26   A    
C44   C52   A    
O13   V3    S    
C47   C49   A    
C41   C45   A    
C49   C59   A    
C56   C58   A    
C9    C31   A    
C54   H28   S    
C42   C44   A    
O19   V4    S    
C49   C51   A    
C10   H10   S    
O5    V1    S    
C33   C43   A    
C3    C8    S    
H18   C58   S    
C32   C61   S    
C15   C19   A    
O12   C64   A    
C37   C39   A    
C14   C16   A    
O4    V2    S    
O6    C4    A    
O1    V2    S    
C5    H5    S    
O2    V1    S    
C45   C47   A    
C62   O17   A    
C60   H32   S    
H2    C30   S    
C61   O18   A    
H3    C23   S    
C50   C52   A    
C53   C55   A    
C58   C60   A    
C57   C59   A    
C18   C26   A    
O4    C2    A    
C34   H20   S    
C19   C27   A    
C56   H30   S    
C7    C27   A    
O16   C64   A    
C55   H29   S    
C41   C43   A    
C16   C20   A    
O11   C63   A    
C5    C29   A    
C11   H13   S    
O3    C1    A    
C6    C30   A    
O15   C63   A    
C9    H9    S    
O9    V2    S    
C25   H15   S    
C4    C7    S    
C1    C46   S    
C10   C12   A    
O7    V1    S    
C1    O8    A    
C19   C21   A    
O8    V2    S    
C20   C22   A    
H4    C24   S    
C26   H16   S    
C12   H14   S    
C51   C64   S    
C22   C24   A    
C35   H21   S    
C15   C17   A    
O14   C62   A    
C16   C18   A    
C50   C60   A    
C20   C28   A    
C8    C28   A    
C48   C54   A    
C11   C13   A    
H1    C29   S    
C33   H19   S    
C38   C40   A    
C34   C44   A    
O10   V1    S    
C54   C56   A    
O3    V1    S    
C40   C42   A    
C13   H11   S    
C14   H12   S    
O18   V4    S    
C40   H26   S    
C34   C36   A    
C31   C62   S    
C39   H25   S    
