data_mof_unit_pretest_14.cif
_audit_creation_date              2012-12-11T15:41:04-0500
_audit_creation_method            fapswitch 2.2
_symmetry_space_group_name_H-M    P1
_symmetry_Int_Tables_number       1
_space_group_crystal_system       triclinic
_cell_length_a                    19.027355
_cell_length_b                    10.987774
_cell_length_c                    18.799986
_cell_angle_alpha                 89.986316
_cell_angle_beta                  90.260464
_cell_angle_gamma                 89.989033
_cell_volume                      3930.43987441

loop_
_atom_site_label
_atom_site_type_symbol
_atom_type_description
_atom_site_fract_x
_atom_site_fract_y
_atom_site_fract_z
_atom_type_partial_charge
C1    C     C_R   0.724071 0.963321 0.856574 0.544590
C2    C     C_R   0.272310 0.954128 0.147283 0.536990
C3    C     C_R   0.227691 0.454116 0.852714 0.539161
C4    C     C_R   0.775928 0.463334 0.143423 0.544604
C5    C     C_R   0.703853 0.483450 0.033980 0.029094
C6    C     C_R   0.300374 0.464648 0.961497 0.010417
C7    C     C_R   0.199618 0.964677 0.038484 0.011109
C8    C     C_R   0.796091 0.983587 0.966027 0.028911
C9    C     C_R   0.695919 0.469735 0.961171 0.018661
C10   C     C_R   0.309699 0.436192 0.032958 0.026382
C11   C     C_R   0.190300 0.936223 0.967027 0.027267
C12   C     C_R   0.804017 0.969903 0.038841 0.018318
C13   C     C_R   0.817961 0.413608 0.951380 -0.152548
C14   C     C_R   0.218030 0.285213 0.023897 -0.154031
C15   C     C_R   0.282024 0.785287 0.976116 -0.153794
C16   C     C_R   0.682024 0.913533 0.048607 -0.153171
C17   C     C_R   0.824750 0.421128 0.024870 -0.149952
C18   C     C_R   0.209013 0.312806 0.952468 -0.150616
C19   C     C_R   0.291034 0.812872 0.047540 -0.151092
C20   C     C_R   0.675256 0.920989 0.975113 -0.149771
C21   C     C_3   0.630812 0.442078 0.048616 -0.285928
C22   C     C_3   0.377811 0.471457 0.949324 -0.283291
C23   C     C_3   0.122177 0.971471 0.050650 -0.283910
C24   C     C_3   0.869185 0.942422 0.951427 -0.285585
C25   C     C_3   0.622155 0.424774 0.969016 -0.260122
C26   C     C_3   0.387732 0.442323 0.027432 -0.267204
C27   C     C_3   0.112266 0.942340 0.972547 -0.267116
C28   C     C_3   0.877834 0.925137 0.031034 -0.260196
C29   C     C_R   0.751387 0.425621 0.919621 0.015816
C30   C     C_R   0.268939 0.345639 0.064882 0.019860
C31   C     C_R   0.231089 0.845689 0.935119 0.019882
C32   C     C_R   0.748579 0.925670 0.080382 0.015157
C33   C     C_R   0.504356 0.160871 0.422718 -0.035502
C34   C     C_R   0.512624 0.171615 0.570314 -0.026205
C35   C     C_R   0.984197 0.669046 0.431437 -0.026354
C36   C     C_R   0.991206 0.671619 0.579252 -0.020692
C37   C     C_R   0.536213 0.260371 0.455546 -0.053768
C38   C     C_R   0.539416 0.265051 0.527971 -0.032367
C39   C     C_R   0.979386 0.777614 0.468840 -0.037818
C40   C     C_R   0.982192 0.780077 0.541062 -0.044232
C41   C     C_R   0.490731 0.063528 0.537991 0.342288
C42   C     C_R   0.488724 0.056459 0.464106 0.348076
C43   C     C_R   0.981592 0.560389 0.543886 0.338616
C44   C     C_R   0.980516 0.558720 0.469550 0.342068
C45   C     C_R   0.529675 0.177738 0.850570 0.547510
C46   C     C_R   0.469612 0.177288 0.148929 0.536266
C47   C     C_R   0.030390 0.677283 0.851072 0.539893
C48   C     C_R   0.970325 0.677745 0.149431 0.543589
C49   C     C_3   0.524239 0.395240 0.450216 -0.252769
C50   C     C_3   0.525485 0.398599 0.530549 -0.245499
C51   C     C_3   0.019956 0.892289 0.459420 -0.267332
C52   C     C_3   0.023874 0.896705 0.539457 -0.252891
C53   C     C_R   0.748348 0.414895 0.421859 0.023113
C54   C     C_R   0.249849 0.399447 0.580923 0.017306
C55   C     C_R   0.260487 0.935901 0.428761 -0.004589
C56   C     C_R   0.749421 0.896391 0.581612 0.017844
C57   C     C_R   0.776360 0.311259 0.453921 0.004183
C58   C     C_R   0.201110 0.329324 0.542631 -0.002151
C59   C     C_R   0.313411 0.876924 0.466358 0.121328
C60   C     C_R   0.699280 0.830447 0.542578 -0.005877
C61   C     C_R   0.775977 0.300663 0.526779 0.029252
C62   C     C_R   0.206013 0.318099 0.470146 0.003793
C63   C     C_R   0.311238 0.867128 0.538884 0.111062
C64   C     C_R   0.704377 0.820475 0.470208 -0.003029
C65   C     C_R   0.707562 0.482926 0.538398 -0.161943
C66   C     C_R   0.315023 0.427972 0.471501 -0.160955
C67   C     C_R   0.206792 0.991090 0.541813 -0.176507
C68   C     C_R   0.817677 0.915381 0.473471 -0.152845
C69   C     C_R   0.708615 0.495619 0.464296 -0.157313
C70   C     C_R   0.311138 0.437178 0.545914 -0.167041
C71   C     C_R   0.209357 0.000823 0.467387 -0.172848
C72   C     C_R   0.812974 0.924820 0.547988 -0.156024
C73   C     C_3   0.846798 0.251873 0.448327 -0.261348
C74   C     C_3   0.122621 0.338694 0.538124 -0.200261
C75   C     C_3   0.340912 0.751352 0.455969 -0.266664
C76   C     C_3   0.620889 0.841667 0.537913 -0.210535
C77   C     C_3   0.847793 0.246990 0.528774 -0.246927
C78   C     C_3   0.128711 0.325083 0.458560 -0.231704
C79   C     C_3   0.338383 0.739290 0.535850 -0.255857
C80   C     C_3   0.627263 0.830496 0.458054 -0.240090
C81   C     C_R   0.745726 0.388836 0.570516 0.037108
C82   C     C_R   0.258897 0.376640 0.432620 0.014009
C83   C     C_R   0.254922 0.915191 0.577415 0.008905
C84   C     C_R   0.759601 0.873471 0.433413 0.016367
C85   C     C_R   0.738388 0.364966 0.852238 0.547933
C86   C     C_R   0.275386 0.314824 0.139870 0.561012
C87   C     C_R   0.224627 0.814838 0.860144 0.560411
C88   C     C_R   0.761603 0.864984 0.147768 0.548745
C89   C     C_R   0.728388 0.952384 0.648595 0.538814
C90   C     C_R   0.273355 0.959124 0.354054 0.547933
C91   C     C_R   0.228304 0.453163 0.648303 0.535711
C92   C     C_R   0.771711 0.455543 0.352369 0.549569
C93   C     C_R   0.530550 0.176757 0.644258 0.585063
C94   C     C_R   0.470714 0.175383 0.354695 0.573051
C95   C     C_R   0.028165 0.676784 0.646091 0.570895
C96   C     C_R   0.968048 0.676121 0.356764 0.570273
C97   C     C_R   0.738994 0.359952 0.645388 0.550570
C98   C     C_R   0.262881 0.354358 0.356585 0.555880
C99   C     C_R   0.239942 0.863081 0.646780 0.555321
C100  C     C_R   0.763387 0.852434 0.357167 0.547914
C101  C     C_2   0.496924 0.170237 0.920566 -0.115458
C102  C     C_2   0.500539 0.166147 0.078132 -0.126728
C103  C     C_2   0.999473 0.666131 0.921874 -0.126232
C104  C     C_2   0.003083 0.670259 0.079437 -0.116709
C105  C     C_2   0.485235 0.069638 0.036605 -0.164319
C106  C     C_2   0.499834 0.068435 0.959789 -0.159294
C107  C     C_2   0.000219 0.568447 0.040248 -0.159780
C108  C     C_2   0.014822 0.569642 0.963432 -0.164272
C109  C     C_R   0.765968 0.446885 0.067464 0.021683
C110  C     C_R   0.250354 0.403060 0.920340 0.019676
C111  C     C_R   0.249659 0.903100 0.079656 0.019524
C112  C     C_R   0.734027 0.946859 0.932533 0.021592
Cr1   Cr    Cr6+3 0.769260 0.163750 0.750730 1.025828
Cr2   Cr    Cr6+3 0.230740 0.163750 0.249270 1.013335
Cr3   Cr    Cr6+3 0.269260 0.663750 0.750730 1.017098
Cr4   Cr    Cr6+3 0.730740 0.663750 0.249270 1.016029
Cr5   Cr    Cr6+3 0.612640 0.009910 0.748780 1.050909
Cr6   Cr    Cr6+3 0.387360 0.009910 0.251220 1.053534
Cr7   Cr    Cr6+3 0.112640 0.509910 0.748780 1.046152
Cr8   Cr    Cr6+3 0.887360 0.509910 0.251220 1.054645
Cr9   Cr    Cr6+3 0.614190 0.322400 0.747710 1.013217
Cr10  Cr    Cr6+3 0.385810 0.322400 0.252290 1.007884
Cr11  Cr    Cr6+3 0.114190 0.822400 0.747710 1.008064
Cr12  Cr    Cr6+3 0.885810 0.822400 0.252290 1.010777
H1    H     H_    0.988049 0.967118 0.436134 0.147458
H2    H     H_    0.078505 0.885433 0.558906 0.170401
H3    H     H_    0.472519 0.422329 0.428522 0.160795
H4    H     H_    0.569897 0.451008 0.553029 0.156128
H5    H     H_    0.569459 0.442920 0.425628 0.141335
H6    H     H_    0.473569 0.420161 0.554245 0.134703
H7    H     H_    0.071726 0.876921 0.433700 0.137007
H8    H     H_    0.994600 0.974638 0.562672 0.139085
H9    H     H_    0.679460 0.548640 0.570430 0.117542
H10   H     H_    0.359587 0.466604 0.444380 0.123077
H11   H     H_    0.164703 0.035339 0.570462 0.127447
H12   H     H_    0.865205 0.944403 0.447331 0.136557
H13   H     H_    0.683484 0.574380 0.441084 0.138060
H14   H     H_    0.352110 0.484975 0.574588 0.118592
H15   H     H_    0.170733 0.056106 0.440163 0.137718
H16   H     H_    0.856391 0.962005 0.578243 0.121262
H17   H     H_    0.888256 0.310769 0.426426 0.252248
H18   H     H_    0.103992 0.430449 0.553474 0.212737
H19   H     H_    0.395229 0.750088 0.434593 0.210555
H20   H     H_    0.602784 0.932749 0.554774 0.194687
H21   H     H_    0.843214 0.160828 0.422990 0.125426
H22   H     H_    0.095681 0.260850 0.564158 0.163172
H23   H     H_    0.302915 0.691202 0.427780 0.111471
H24   H     H_    0.593422 0.763348 0.562885 0.155706
H25   H     H_    0.848122 0.154474 0.550728 0.139118
H26   H     H_    0.105989 0.238679 0.438260 0.150763
H27   H     H_    0.297944 0.673639 0.553649 0.142788
H28   H     H_    0.603860 0.745281 0.436741 0.147951
H29   H     H_    0.886839 0.309197 0.553218 0.236761
H30   H     H_    0.113124 0.408058 0.428539 0.187239
H31   H     H_    0.391101 0.729618 0.560974 0.187978
H32   H     H_    0.612662 0.914900 0.428905 0.165871
H33   H     H_    0.526792 0.244969 0.056118 0.097679
H34   H     H_    0.479902 0.254812 0.944460 0.096338
H35   H     H_    0.020081 0.754841 0.055521 0.096704
H36   H     H_    0.973189 0.744942 0.943865 0.097586
H37   H     H_    0.875522 0.402082 0.048301 0.136035
H38   H     H_    0.168010 0.266009 0.923116 0.139444
H39   H     H_    0.332053 0.766081 0.076899 0.138651
H40   H     H_    0.624512 0.901810 0.951673 0.136088
H41   H     H_    0.104018 0.064256 0.064942 0.131212
H42   H     H_    0.902326 0.016887 0.929738 0.143849
H43   H     H_    0.597590 0.516446 0.070297 0.143321
H44   H     H_    0.395946 0.564243 0.935005 0.131634
H45   H     H_    0.629726 0.355774 0.079435 0.132075
H46   H     H_    0.396492 0.398853 0.912932 0.142951
H47   H     H_    0.103512 0.898860 0.087057 0.141882
H48   H     H_    0.870381 0.856127 0.920629 0.132768
H49   H     H_    0.583039 0.487763 0.944870 0.144264
H50   H     H_    0.410071 0.519251 0.058556 0.138886
H51   H     H_    0.089908 0.019268 0.941404 0.139628
H52   H     H_    0.916871 0.988231 0.055177 0.143938
O1    O     O_R   0.784290 0.290360 0.830540 -0.518731
O2    O     O_R   0.215710 0.290360 0.169460 -0.514319
O3    O     O_R   0.284290 0.790360 0.830540 -0.510750
O4    O     O_R   0.715710 0.790360 0.169460 -0.520053
O5    O     O_R   0.554690 0.080440 0.673480 -0.455027
O6    O     O_R   0.445310 0.080440 0.326520 -0.431463
O7    O     O_R   0.054690 0.580440 0.673480 -0.445689
O8    O     O_R   0.945310 0.580440 0.326520 -0.437664
O9    O     O_R   0.543980 0.282110 0.666770 -0.527921
O10   O     O_R   0.456020 0.282110 0.333230 -0.536893
O11   O     O_R   0.043980 0.782110 0.666770 -0.535299
O12   O     O_R   0.956020 0.782110 0.333230 -0.529877
O13   O     O_R   0.679070 0.374030 0.674430 -0.508183
O14   O     O_R   0.320930 0.374030 0.325570 -0.504087
O15   O     O_R   0.179070 0.874030 0.674430 -0.508989
O16   O     O_R   0.820930 0.874030 0.325570 -0.508794
O17   O     O_3   0.665360 0.165350 0.749070 -0.261896
O18   O     O_3   0.334640 0.165350 0.250930 -0.277042
O19   O     O_3   0.165360 0.665350 0.749070 -0.277369
O20   O     O_3   0.834640 0.665350 0.250930 -0.261151
O21   O     O_R   0.762610 0.041070 0.825230 -0.497368
O22   O     O_R   0.237390 0.041070 0.174770 -0.517107
O23   O     O_R   0.262610 0.541070 0.825230 -0.516184
O24   O     O_R   0.737390 0.541070 0.174770 -0.497155
O25   O     O_R   0.667390 0.924160 0.829970 -0.526810
O26   O     O_R   0.332610 0.924160 0.170030 -0.529794
O27   O     O_R   0.167390 0.424160 0.829970 -0.526298
O28   O     O_R   0.832610 0.424160 0.170030 -0.528313
O29   O     O_R   0.553980 0.081420 0.821780 -0.494160
O30   O     O_R   0.446020 0.081420 0.178220 -0.501664
O31   O     O_R   0.053980 0.581420 0.821780 -0.495337
O32   O     O_R   0.946020 0.581420 0.178220 -0.498767
O33   O     O_R   0.543210 0.283170 0.826740 -0.526773
O34   O     O_R   0.456790 0.283170 0.173260 -0.529281
O35   O     O_R   0.043210 0.783170 0.826740 -0.528367
O36   O     O_R   0.956790 0.783170 0.173260 -0.526947
O37   O     O_R   0.678350 0.375000 0.822720 -0.500737
O38   O     O_R   0.321650 0.375000 0.177280 -0.493384
O39   O     O_R   0.178350 0.875000 0.822720 -0.492627
O40   O     O_R   0.821650 0.875000 0.177280 -0.498916
O41   O     O_R   0.785060 0.289300 0.670580 -0.507224
O42   O     O_R   0.214940 0.289300 0.329420 -0.510349
O43   O     O_R   0.285060 0.789300 0.670580 -0.502540
O44   O     O_R   0.714940 0.789300 0.329420 -0.518363
O45   O     O_R   0.763330 0.040090 0.676940 -0.505929
O46   O     O_R   0.236670 0.040090 0.323060 -0.512966
O47   O     O_R   0.263330 0.540090 0.676940 -0.512649
O48   O     O_R   0.736670 0.540090 0.323060 -0.515049
O49   O     O_R   0.668160 0.923110 0.670000 -0.516918
O50   O     O_R   0.331840 0.923110 0.330000 -0.477357
O51   O     O_R   0.168160 0.423110 0.670000 -0.511171
O52   O     O_R   0.831840 0.423110 0.330000 -0.499002
H53   H     H_    0.459984 0.989547 0.058724 0.158014
H54   H     H_    0.513196 0.982066 0.935436 0.143697
H55   H     H_    0.986886 0.482074 0.064627 0.143073
H56   H     H_    0.040109 0.489566 0.941339 0.158122
H57   H     H_    0.863155 0.384943 0.920770 0.141805
H58   H     H_    0.184735 0.216873 0.047376 0.138385
H59   H     H_    0.315339 0.716956 0.952655 0.138384
H60   H     H_    0.636843 0.884789 0.079208 0.140200
H61   H     H_    0.616416 0.327620 0.953695 0.153766
H62   H     H_    0.412920 0.352937 0.036975 0.145086
H63   H     H_    0.087100 0.852950 0.963024 0.144518
H64   H     H_    0.883678 0.827998 0.046380 0.154438
F1    F     F_    0.469963 0.966611 0.577539 -0.622912
F2    F     F_    0.465042 0.951900 0.434088 -0.622505
F3    F     F_    0.980786 0.454045 0.580507 -0.648553
F4    F     F_    0.980275 0.450383 0.435359 -0.652172

loop_
_geom_bond_atom_site_label_1
_geom_bond_atom_site_label_2
_ccdc_geom_bond_type
C58   C62   A    
Cr1   O1    S    
C4    C109  S    
C67   C83   A    
C100  O44   A    
C47   O35   A    
C3    O27   A    
C41   C42   A    
C14   C18   A    
C35   C39   A    
Cr2   O18   S    
C2    O26   A    
C34   C93   S    
C14   H58   S    
C98   O14   A    
C53   C69   A    
C33   C94   S    
C27   H63   S    
C63   C79   S    
C35   C96   S    
Cr6   O50   S    
C15   C19   A    
C46   C102  S    
C44   F4    S    
Cr8   O20   S    
C81   C97   S    
C48   O32   A    
C12   C28   S    
C33   C42   A    
C13   C29   A    
Cr6   O30   S    
C96   O8    A    
C90   O46   A    
C55   C90   S    
Cr11  O39   S    
C8    C112  A    
C1    C112  S    
Cr9   O13   S    
Cr4   O24   S    
Cr5   O5    S    
C103  H36   S    
Cr10  O10   S    
C45   O33   A    
C26   H50   S    
C3    C110  S    
C48   C104  S    
Cr6   O26   S    
C63   C83   A    
C65   C69   A    
C86   O2    A    
C102  C105  D    
C46   O30   A    
C57   C73   S    
C65   H9    S    
C98   O42   A    
C10   C30   A    
C64   C84   A    
C89   O45   A    
Cr3   O19   S    
C52   H2    S    
C50   H6    S    
C77   H29   S    
C39   C51   S    
C20   C112  A    
C93   O5    A    
C48   O36   A    
C61   C77   S    
C56   C72   A    
Cr11  O35   S    
C73   H21   S    
C3    O23   A    
C107  C108  S    
Cr10  O34   S    
Cr10  O14   S    
C103  C108  D    
Cr9   O33   S    
Cr4   O48   S    
Cr4   O44   S    
C24   C28   S    
Cr8   O52   S    
C4    O24   A    
C29   C85   S    
C7    C23   S    
C8    C12   A    
C17   H37   S    
C22   H44   S    
C10   C26   S    
C6    C22   S    
C97   O13   A    
C74   H18   S    
C1    O25   A    
C83   C99   S    
C12   C32   A    
Cr11  O11   S    
C64   C80   S    
Cr11  O19   S    
C100  O16   A    
C34   C41   A    
C24   H48   S    
Cr10  O18   S    
C16   H60   S    
Cr5   O25   S    
C102  H33   S    
Cr9   O17   S    
C34   C38   A    
C90   O50   A    
C11   C27   S    
C7    C11   A    
C52   H8    S    
Cr6   O6    S    
C69   H13   S    
C62   C78   S    
C49   H3    S    
C1    O21   A    
C2    C111  S    
C31   C87   S    
C107  H55   S    
C82   C98   S    
Cr7   O51   S    
C51   C52   S    
C68   C84   A    
C76   C80   S    
C50   H4    S    
C36   C40   A    
C47   C103  S    
Cr11  O15   S    
C93   O9    A    
C77   H25   S    
C39   C40   A    
Cr12  O12   S    
C53   C57   A    
C7    C111  A    
C78   H30   S    
C73   H17   S    
Cr12  O36   S    
C43   F3    S    
C46   O34   A    
C51   H1    S    
Cr3   O23   S    
C42   F2    S    
C33   C37   A    
Cr10  O38   S    
C106  H54   S    
C68   C72   A    
Cr9   O9    S    
C105  H53   S    
C6    C110  A    
C67   H11   S    
C43   C44   A    
C86   O38   A    
C5    C9    A    
C37   C38   A    
C88   O4    A    
C85   O37   A    
C66   C82   A    
C37   C49   S    
C26   H62   S    
C65   C81   A    
C54   C70   A    
C92   O48   A    
C16   C20   A    
Cr5   O49   S    
C49   H5    S    
C53   C92   S    
C54   C58   A    
Cr7   O27   S    
C78   H26   S    
Cr7   O7    S    
Cr2   O46   S    
C68   H12   S    
C57   C61   A    
C35   C44   A    
Cr8   O8    S    
C92   O52   A    
C95   O11   A    
C22   H46   S    
C75   H19   S    
C38   C50   S    
C76   H20   S    
C85   O1    A    
C56   C89   S    
C84   C100  S    
C99   O43   A    
C101  H34   S    
C70   H14   S    
C23   C27   S    
C45   C101  S    
C74   C78   S    
Cr8   O28   S    
C25   H61   S    
C97   O41   A    
C59   C63   A    
Cr7   O19   S    
C32   C88   S    
C30   C86   S    
C104  H35   S    
C91   O47   A    
Cr5   O17   S    
C59   C75   S    
Cr12  O16   S    
C80   H32   S    
C55   C59   A    
C58   C74   S    
C13   H57   S    
Cr12  O40   S    
C79   H27   S    
Cr3   O47   S    
C101  C106  D    
C80   H28   S    
C21   C25   S    
C19   H39   S    
C45   O29   A    
C88   O40   A    
C91   O51   A    
C2    O22   A    
Cr1   O17   S    
Cr2   O22   S    
C74   H22   S    
C18   C110  A    
C28   H52   S    
Cr2   O2    S    
C94   O10   A    
C89   O49   A    
C17   C109  A    
C9    C25   S    
Cr8   O32   S    
C71   H15   S    
C15   C31   A    
C62   C82   A    
C19   C111  A    
C16   C32   A    
C79   H31   S    
C105  C106  S    
Cr5   O29   S    
C21   H43   S    
C87   O39   A    
C47   O31   A    
C60   C64   A    
Cr6   O18   S    
C75   H23   S    
C108  H56   S    
Cr4   O4    S    
C14   C30   A    
C54   C91   S    
Cr1   O41   S    
C40   C52   S    
C28   H64   S    
C87   O3    A    
C99   O15   A    
C9    C29   A    
C18   H38   S    
C36   C95   S    
C95   O7    A    
C66   C70   A    
C5    C109  A    
C21   H45   S    
C8    C24   S    
C60   C76   S    
Cr1   O21   S    
C67   C71   A    
C25   H49   S    
C27   H51   S    
C24   H42   S    
Cr12  O20   S    
C41   F1    S    
Cr3   O3    S    
C4    O28   A    
C6    C10   A    
Cr1   O45   S    
C11   C31   A    
C13   C17   A    
Cr4   O20   S    
C56   C60   A    
C72   H16   S    
Cr2   O42   S    
C5    C21   S    
C76   H24   S    
C51   H7    S    
C49   C50   S    
C22   C26   S    
C15   H59   S    
C23   H41   S    
C73   C77   S    
C36   C43   A    
C61   C81   A    
Cr7   O31   S    
C94   O6    A    
C66   H10   S    
C75   C79   S    
C96   O12   A    
C104  C107  D    
C55   C71   A    
Cr9   O37   S    
Cr3   O43   S    
C23   H47   S    
C20   H40   S    
