data_mof_unit_pretest_1669.cif
_audit_creation_date              2013-03-05T15:39:58-0500
_audit_creation_method            fapswitch 2.2
_symmetry_space_group_name_H-M    P1
_symmetry_Int_Tables_number       1
_space_group_crystal_system       triclinic
_cell_length_a                    14.138749
_cell_length_b                    16.424803
_cell_length_c                    15.139448
_cell_angle_alpha                 90.054122
_cell_angle_beta                  92.011396
_cell_angle_gamma                 90.016484
_cell_volume                      3513.60804101

loop_
_atom_site_label
_atom_site_type_symbol
_atom_site_description
_atom_site_fract_x
_atom_site_fract_y
_atom_site_fract_z
_atom_type_partial_charge
Zn1   Zn    Zn3+2 0.493670 0.096680 0.574000 1.019400
Zn2   Zn    Zn3+2 0.493670 0.903320 0.574000 1.010737
Zn3   Zn    Zn3+2 0.993670 0.596680 0.574000 1.017743
Zn4   Zn    Zn3+2 0.993670 0.403320 0.574000 1.012320
Zn5   Zn    Zn3+2 0.617760 0.000000 0.438070 0.978554
Zn6   Zn    Zn3+2 0.117760 0.500000 0.438070 0.978594
Zn7   Zn    Zn3+2 0.394920 0.000000 0.413930 1.009422
Zn8   Zn    Zn3+2 0.894920 0.500000 0.413930 1.009691
O1    O     O_3   0.500000 0.000000 0.500000 -0.510588
O2    O     O_3   0.000000 0.500000 0.500000 -0.510617
O3    O     O_R   0.605310 0.837110 0.563680 -0.628247
O4    O     O_R   0.605310 0.162890 0.563680 -0.629982
O5    O     O_R   0.105310 0.337110 0.563680 -0.627926
O6    O     O_R   0.105310 0.662890 0.563680 -0.630391
O7    O     O_R   0.385830 0.162890 0.539910 -0.626965
O8    O     O_R   0.385830 0.837110 0.539910 -0.629273
O9    O     O_R   0.885830 0.662890 0.539910 -0.627586
O10   O     O_R   0.885830 0.337110 0.539910 -0.628902
O11   O     O_R   0.692160 0.095230 0.468550 -0.633024
O12   O     O_R   0.692160 0.904770 0.468550 -0.635168
O13   O     O_R   0.192160 0.595230 0.468550 -0.632955
O14   O     O_R   0.192160 0.404770 0.468550 -0.635093
O15   O     O_R   0.316720 0.904790 0.427870 -0.636651
O16   O     O_R   0.316720 0.095210 0.427870 -0.635532
O17   O     O_R   0.816720 0.404790 0.427870 -0.636588
O18   O     O_R   0.816720 0.595210 0.427870 -0.635335
O19   O     O_R   0.594900 0.000000 0.310900 -0.642343
O20   O     O_R   0.094900 0.500000 0.310900 -0.642548
O21   O     O_R   0.483090 0.932320 0.697550 -0.631519
O22   O     O_R   0.483090 0.067680 0.697550 -0.623868
O23   O     O_R   0.983090 0.432320 0.697550 -0.629681
O24   O     O_R   0.983090 0.567680 0.697550 -0.625444
O25   O     O_R   0.438930 0.000000 0.294000 -0.642184
O26   O     O_R   0.938930 0.500000 0.294000 -0.642244
C1    C     C_R   0.680109 0.844654 0.519992 0.853638
C2    C     C_R   0.680080 0.155401 0.519975 0.854824
C3    C     C_R   0.180109 0.344654 0.519993 0.853549
C4    C     C_R   0.180080 0.655401 0.519975 0.854913
C5    C     C_R   0.319968 0.156172 0.480423 0.910179
C6    C     C_R   0.319959 0.843848 0.480401 0.906041
C7    C     C_R   0.819968 0.656172 0.480422 0.909781
C8    C     C_R   0.819958 0.343849 0.480402 0.906511
C9    C     C_R   0.520623 0.999761 0.260614 0.810782
C10   C     C_R   0.020626 0.499791 0.260600 0.810972
C11   C     C_R   0.478856 0.000090 0.738589 0.901341
C12   C     C_R   0.978827 0.500084 0.738571 0.901469
C13   C     C_R   0.528925 0.997495 0.164630 -0.045392
C14   C     C_R   0.028954 0.497805 0.164588 -0.046045
C15   C     C_R   0.469351 0.000818 0.833862 -0.208556
C16   C     C_R   0.969367 0.500735 0.833822 -0.208014
C17   C     C_R   0.377714 0.034415 0.961915 0.213681
C18   C     C_R   0.876691 0.531851 0.961901 0.213854
C19   C     C_R   0.384424 0.028290 0.869745 0.194629
C20   C     C_R   0.883590 0.526095 0.869718 0.194186
C21   C     C_R   0.548141 0.980473 0.888695 -0.017860
C22   C     C_R   0.048783 0.482168 0.888611 -0.017575
C23   C     C_R   0.542150 0.987608 0.980567 0.147902
C24   C     C_R   0.042543 0.488850 0.980493 0.148080
C25   C     C_R   0.456332 0.013559 0.017509 -0.053310
C26   C     C_R   0.955937 0.512694 0.017470 -0.053602
C27   C     C_R   0.450477 0.016512 0.109692 -0.156363
C28   C     C_R   0.949979 0.515251 0.109657 -0.156536
C29   C     C_R   0.614306 0.974848 0.127658 -0.195544
C30   C     C_R   0.114987 0.477149 0.127567 -0.195241
C31   C     C_R   0.620729 0.969205 0.036543 -0.109500
C32   C     C_R   0.121623 0.472010 0.036442 -0.109176
H1    H     H_    0.384906 0.033390 0.139573 0.205864
H2    H     H_    0.883901 0.530568 0.139530 0.206375
H3    H     H_    0.675688 0.959734 0.169256 0.177692
H4    H     H_    0.176815 0.463297 0.169120 0.178289
H5    H     H_    0.687486 0.950044 0.010410 0.182525
H6    H     H_    0.188952 0.454458 0.010276 0.182764
C33   C     C_2   0.247932 0.219044 0.472840 -0.328487
C34   C     C_2   0.247869 0.780976 0.472807 -0.331381
C35   C     C_2   0.747931 0.719043 0.472840 -0.328456
C36   C     C_2   0.747868 0.280977 0.472808 -0.331047
H7    H     H_    0.691414 0.713393 0.422582 0.155671
H8    H     H_    0.691350 0.286531 0.422556 0.154705
H9    H     H_    0.191418 0.213396 0.422579 0.155678
H10   H     H_    0.191352 0.786529 0.422554 0.154577
C37   C     C_2   0.751682 0.782798 0.527360 -0.265668
C38   C     C_2   0.751606 0.217324 0.527344 -0.271797
C39   C     C_2   0.251681 0.282798 0.527362 -0.264611
C40   C     C_2   0.251606 0.717324 0.527344 -0.272355
H11   H     H_    0.307316 0.289902 0.578117 0.174517
H12   H     H_    0.307257 0.710306 0.578078 0.172320
H13   H     H_    0.807321 0.789906 0.578111 0.174012
H14   H     H_    0.807258 0.210306 0.578078 0.172459
N1    N     N_R   0.290534 0.060744 0.998527 0.229419
O27   O     O_R   0.212417 0.021383 0.980147 -0.316008
O28   O     O_R   0.287521 0.128434 0.043067 -0.363925
N2    N     N_R   0.788688 0.555963 0.998553 0.229484
O29   O     O_R   0.711904 0.514717 0.980164 -0.315444
O30   O     O_R   0.783442 0.623464 0.043179 -0.364266
N3    N     N_R   0.305528 0.051529 0.812585 0.237984
O31   O     O_R   0.262259 0.120365 0.824622 -0.309283
O32   O     O_R   0.276874 0.004220 0.748032 -0.387623
N4    N     N_R   0.803993 0.547591 0.812576 0.237216
O33   O     O_R   0.758420 0.615273 0.824827 -0.309626
O34   O     O_R   0.776901 0.499807 0.747895 -0.387060
N5    N     N_3   0.635269 0.954362 0.851456 -0.444650
H15   H     H_    0.622385 0.901319 0.814772 0.225527
H16   H     H_    0.658733 0.999770 0.809092 0.182532
N6    N     N_3   0.136689 0.458190 0.851306 -0.444599
H17   H     H_    0.158759 0.504294 0.809120 0.182948
H18   H     H_    0.125421 0.405040 0.814384 0.224303

loop_
_geom_bond_atom_site_label_1
_geom_bond_atom_site_label_2
_geom_bond_distance
_ccdc_geom_bond_type
C10   C14   1.462784 S    
C29   C31   1.388603 A    
N5    H15   1.045251 S    
C19   N3    1.439439 S    
Zn8   O18   1.931124 S    
O22   C11   1.275125 A    
N3    O31   1.301382 A    
N6    H18   1.045307 S    
C1    C37   1.435816 S    
Zn5   O12   1.932415 S    
C16   C20   1.409195 A    
Zn2   O21   1.940603 S    
C36   H8    1.087743 S    
C6    C34   1.452386 S    
O11   C2    1.272802 A    
O10   C8    1.277755 A    
C34   C40   1.332717 D    
C13   C29   1.398667 A    
C15   C19   1.409322 A    
C23   C25   1.419228 A    
O6    C4    1.272610 A    
C24   C26   1.419215 A    
O15   C6    1.278855 A    
Zn6   O14   1.932415 S    
O16   C5    1.278129 A    
C26   C28   1.401743 A    
Zn4   O5    1.927826 S    
N2    O29   1.301177 A    
C18   C26   1.413037 A    
Zn5   O19   1.941007 S    
O12   C1    1.273264 A    
C24   C32   1.406494 A    
C32   H6    1.082899 S    
O13   C4    1.272801 A    
C29   H3    1.083268 S    
C2    C38   1.435574 S    
O23   C12   1.276503 A    
Zn1   O7    1.928872 S    
C30   H4    1.083274 S    
O4    C2    1.272608 A    
Zn2   O8    1.927827 S    
O5    C3    1.272957 A    
Zn7   O15   1.930933 S    
Zn4   O10   1.927827 S    
N5    H16   1.045637 S    
C34   H10   1.087743 S    
Zn8   O17   1.930933 S    
Zn7   O25   1.939889 S    
Zn1   O4    1.927481 S    
Zn2   O3    1.927826 S    
N6    H17   1.045689 S    
C18   C20   1.405499 A    
Zn6   O20   1.941007 S    
C25   C27   1.401755 A    
O25   C9    1.276950 A    
O26   C10   1.277071 A    
C22   N6    1.438039 S    
C36   C38   1.332716 D    
C35   C37   1.332646 D    
C15   C21   1.406274 A    
O14   C3    1.273268 A    
O20   C10   1.275364 A    
C16   C22   1.406088 A    
O21   C11   1.276701 A    
C17   C19   1.405459 A    
C30   C32   1.388545 A    
Zn5   O1    1.939279 S    
C7    C35   1.452417 S    
C27   H1    1.081825 S    
C14   C28   1.398551 A    
C11   C15   1.453352 S    
C23   C31   1.406574 A    
N2    O30   1.301264 A    
C33   H9    1.087758 S    
Zn1   O1    1.946399 S    
Zn8   O26   1.939889 S    
C35   H7    1.087758 S    
O7    C5    1.277216 A    
C37   H13   1.086354 S    
Zn3   O6    1.927481 S    
O8    C6    1.277755 A    
C39   H11   1.086354 S    
N4    O34   1.301410 A    
C21   C23   1.401229 A    
C18   N2    1.435715 S    
N1    O28   1.301233 A    
Zn4   O2    1.948084 S    
Zn7   O1    1.941483 S    
C12   C16   1.452944 S    
C4    C40   1.435573 S    
O24   C12   1.275095 A    
C20   N4    1.439464 S    
C40   H12   1.086343 S    
O17   C8    1.278854 A    
C13   C27   1.398388 A    
N3    O32   1.301389 A    
Zn5   O11   1.931218 S    
C21   N5    1.438020 S    
C8    C36   1.452386 S    
C28   H2    1.081784 S    
O3    C1    1.272958 A    
Zn3   O2    1.946399 S    
C31   H5    1.082869 S    
C17   N1    1.435756 S    
Zn6   O13   1.931218 S    
C38   H14   1.086344 S    
Zn1   O22   1.941449 S    
C22   C24   1.401128 A    
Zn3   O9    1.928872 S    
C5    C33   1.452415 S    
Zn3   O24   1.941449 S    
O9    C7    1.277218 A    
Zn4   O23   1.940603 S    
C14   C30   1.398783 A    
Zn6   O2    1.939279 S    
O19   C9    1.275279 A    
C17   C25   1.412934 A    
Zn8   O2    1.941483 S    
N4    O33   1.301445 A    
C3    C39   1.435818 S    
N1    O27   1.301135 A    
Zn2   O1    1.948084 S    
C9    C13   1.462416 S    
C33   C39   1.332648 D    
Zn7   O16   1.931124 S    
O18   C7    1.278127 A    
