data_mof_unit_pretest_1105.cif
_audit_creation_date              2012-12-10T18:58:49-0500
_audit_creation_method            fapswitch 2.2
_symmetry_space_group_name_H-M    P1
_symmetry_Int_Tables_number       1
_space_group_crystal_system       triclinic
_cell_length_a                    13.11573
_cell_length_b                    10.910205
_cell_length_c                    9.634722
_cell_angle_alpha                 92.128106
_cell_angle_beta                  94.948089
_cell_angle_gamma                 94.899092
_cell_volume                      1367.15152517

loop_
_atom_site_label
_atom_site_type_symbol
_atom_type_description
_atom_site_fract_x
_atom_site_fract_y
_atom_site_fract_z
_atom_type_partial_charge
Br1   Br    Br    0.739731 0.088550 0.622844 -0.560052
Br2   Br    Br    0.344056 0.303647 0.152243 -0.531383
Br3   Br    Br    0.757460 0.696309 0.861642 -0.585854
Br4   Br    Br    0.378186 0.843355 0.218266 -0.521017
Br5   Br    Br    0.494446 0.942273 0.912396 -0.538660
C1    C     C_R   0.502399 0.263296 0.497938 0.848135
C2    C     C_R   0.446279 0.929345 0.381349 0.259573
C3    C     C_R   0.480633 0.870612 0.504198 -0.169415
C4    C     C_R   0.300935 0.508076 0.474313 0.817080
C5    C     C_R   0.502899 0.947038 0.626200 0.046836
C6    C     C_3   0.577932 0.949692 0.752556 0.024925
C7    C     C_3   0.614454 0.081900 0.719874 0.290264
C8    C     C_R   0.580187 0.559760 0.084953 0.126721
C9    C     C_R   0.432772 0.421769 0.065001 0.335843
C10   C     C_R   0.431075 0.421692 0.915669 0.143837
C11   C     C_R   0.581143 0.555509 0.938174 0.139434
C12   C     C_R   0.025014 0.498381 0.569206 0.102288
C13   C     C_3   0.622355 0.684286 0.933529 0.008417
C14   C     C_3   0.617030 0.695525 0.092104 -0.107453
C15   C     C_R   0.494414 0.737489 0.501689 0.818944
C16   C     C_R   0.698421 0.497016 0.524881 0.826181
C17   C     C_R   0.809705 0.492545 0.538756 -0.077523
C18   C     C_R   0.187938 0.521036 0.458503 -0.076400
C19   C     C_R   0.024828 0.533181 0.321041 -0.185034
C20   C     C_R   0.132225 0.544612 0.328840 0.167498
C21   C     C_R   0.133098 0.505633 0.577455 -0.294005
C22   C     C_3   0.619952 0.184263 0.836385 -0.317606
C23   C     C_R   0.971847 0.511374 0.437728 0.114190
C24   C     C_3   0.700943 0.166681 0.956453 -0.742065
C25   C     C_3   0.357903 0.323788 0.832597 -0.307474
C26   C     C_3   0.244892 0.333272 0.850059 -0.842630
C27   C     C_3   0.722397 0.734780 0.173780 -0.326105
C28   C     C_3   0.714686 0.791182 0.319358 -0.739712
C29   C     C_3   0.019693 0.448037 0.827465 -0.424664
C30   C     C_3   0.951182 0.428136 0.946849 -0.840159
C31   C     C_3   0.180492 0.582248 0.196180 -0.388291
C32   C     C_3   0.134512 0.693077 0.129274 -0.762285
C33   C     C_R   0.865192 0.506097 0.423121 -0.246087
C34   C     C_R   0.860460 0.474606 0.668435 -0.080311
C35   C     C_R   0.967773 0.476559 0.686880 0.162076
C36   C     C_R   0.521724 0.072392 0.616729 0.008991
C37   C     C_R   0.499898 0.130497 0.494099 -0.128771
C38   C     C_R   0.456500 0.058151 0.377312 -0.166870
Cu1   Cu    Cu3+1 0.499990 0.499980 0.640670 0.962845
Cu2   Cu    Cu3+1 0.500010 0.500020 0.359330 1.006169
H1    H     H_    0.825391 0.514239 0.321343 0.155088
H2    H     H_    0.778080 0.164605 0.917980 0.268905
H3    H     H_    0.703562 0.244654 0.034526 0.228431
H4    H     H_    0.641549 0.274166 0.791839 0.226325
H5    H     H_    0.544685 0.190605 0.878388 0.220457
H6    H     H_    0.214728 0.264680 0.921631 0.296126
H7    H     H_    0.232175 0.427338 0.888367 0.249424
H8    H     H_    0.200228 0.309103 0.748051 0.230229
H9    H     H_    0.361625 0.326726 0.721565 0.263785
H10   H     H_    0.377873 0.230676 0.861299 0.217931
H11   H     H_    0.661174 0.864827 0.315305 0.264429
H12   H     H_    0.636822 0.883500 0.744867 0.188296
H13   H     H_    0.689545 0.720905 0.391040 0.263451
H14   H     H_    0.791642 0.832727 0.362675 0.253226
H15   H     H_    0.771437 0.657025 0.178530 0.208812
H16   H     H_    0.762482 0.809308 0.118120 0.256095
H17   H     H_    0.913748 0.512842 0.971272 0.272946
H18   H     H_    0.892454 0.349522 0.920875 0.259633
H19   H     H_    0.999055 0.404102 0.040718 0.250738
H20   H     H_    0.053319 0.360133 0.811863 0.228996
H21   H     H_    0.079826 0.523380 0.861841 0.214163
H22   H     H_    0.055661 0.668672 0.079719 0.244102
H23   H     H_    0.565565 0.731801 0.871719 0.200270
H24   H     H_    0.133552 0.769553 0.208424 0.284772
H25   H     H_    0.181875 0.725835 0.045570 0.278678
H26   H     H_    0.262728 0.611348 0.214422 0.278447
H27   H     H_    0.170948 0.502807 0.119452 0.217973
H28   H     H_    0.556201 0.754093 0.119556 0.239164
H29   H     H_    0.814570 0.457560 0.754467 0.194454
H30   H     H_    0.980780 0.544897 0.223236 0.142297
H31   H     H_    0.175714 0.500436 0.676853 0.173163
H32   H     H_    0.430721 0.100793 0.282767 0.235637
H33   H     H_    0.682735 0.079904 0.009077 0.289998
N1    N     N_R   0.500660 0.500930 0.148010 -0.219334
N2    N     N_R   0.500660 0.500890 0.852110 -0.232395
O1    O     O_R   0.500000 0.319640 0.618810 -0.638888
O2    O     O_R   0.500010 0.319680 0.381230 -0.535416
O3    O     O_R   0.348990 0.499960 0.599490 -0.590867
O4    O     O_R   0.349000 0.500000 0.361910 -0.553295
O5    O     O_R   0.499990 0.680320 0.618770 -0.568690
O6    O     O_R   0.500000 0.680360 0.381190 -0.553998
O7    O     O_R   0.651000 0.500000 0.638090 -0.562324
O8    O     O_R   0.651010 0.500040 0.400510 -0.591652

loop_
_geom_bond_atom_site_label_1
_geom_bond_atom_site_label_2
_ccdc_geom_bond_type
C16   O7    A    
C28   H13   S    
C1    O2    A    
C32   H24   S    
C22   C24   S    
C36   C37   A    
Cu2   O2    S    
C26   H7    S    
Cu1   O3    S    
C29   H21   S    
C8    N1    A    
C2    C3    A    
C25   H9    S    
C3    C15   S    
C24   H2    S    
C29   C35   S    
C12   C21   A    
C31   C32   S    
C27   H16   S    
Br5   C6    S    
C25   C26   S    
C18   C21   A    
C13   H23   S    
C17   C33   A    
Br3   C13   S    
C29   C30   S    
C34   H29   S    
C24   H33   S    
C15   O6    A    
C21   H31   S    
C30   H19   S    
C2    C38   A    
Cu1   O7    S    
C31   H26   S    
C28   H11   S    
C16   O8    A    
C28   H14   S    
C1    O1    A    
C32   H25   S    
C5    C36   A    
Br1   C7    S    
Br4   C2    S    
C14   C27   S    
C29   H20   S    
C8    C14   S    
C24   H3    S    
Cu1   N2    S    
Cu2   O8    S    
C19   C20   A    
Cu1   O1    S    
C34   C35   A    
C13   C14   S    
C7    C22   S    
C11   N2    A    
C12   C35   A    
C7    C36   S    
C10   N2    A    
C23   C33   A    
C15   O5    A    
Cu2   N1    S    
C9    N1    A    
C26   H8    S    
C4    O3    A    
C14   H28   S    
C11   C13   S    
Cu2   O4    S    
C37   C38   A    
C27   H15   S    
Cu1   O5    S    
Cu1   Cu2   S    
C10   C25   S    
C20   C31   S    
C12   C23   A    
C4    C18   S    
C19   C23   A    
C26   H6    S    
C6    C7    S    
C22   H5    S    
C19   H30   S    
C38   H32   S    
C25   H10   S    
C27   C28   S    
Cu2   O6    S    
C6    H12   S    
C17   C34   A    
C32   H22   S    
C30   H17   S    
C18   C20   A    
Br2   C9    S    
C33   H1    S    
C5    C6    S    
C4    O4    A    
C31   H27   S    
C3    C5    A    
C1    C37   S    
C8    C11   A    
C9    C10   A    
C30   H18   S    
C16   C17   S    
C22   H4    S    
