data_mof_unit_pretest_272.cif
_audit_creation_date              2012-12-10T19:48:31-0500
_audit_creation_method            fapswitch 2.2
_symmetry_space_group_name_H-M    P1
_symmetry_Int_Tables_number       1
_space_group_crystal_system       triclinic
_cell_length_a                    10.88087
_cell_length_b                    10.653198
_cell_length_c                    9.500723
_cell_angle_alpha                 90.40566
_cell_angle_beta                  91.484743
_cell_angle_gamma                 88.092423
_cell_volume                      1100.28524652

loop_
_atom_site_label
_atom_site_type_symbol
_atom_type_description
_atom_site_fract_x
_atom_site_fract_y
_atom_site_fract_z
_atom_type_partial_charge
C1    C     C_R   0.503623 0.259883 0.500064 0.807008
C2    C     C_R   0.498716 0.740289 0.499958 0.783356
C3    C     C_R   0.870771 0.529668 0.505841 -0.151233
C4    C     C_R   0.126284 0.516436 0.499503 -0.144405
C5    C     C_R   0.938894 0.516561 0.631760 -0.060793
C6    C     C_R   0.058660 0.582796 0.391941 -0.057519
C7    C     C_3   0.498622 0.040362 0.630449 0.249863
C8    C     C_3   0.506964 0.960185 0.369189 0.246113
C9    C     C_3   0.600779 0.952187 0.574198 -0.284363
C10   C     C_3   0.404907 0.048543 0.425340 -0.257950
C11   C     C_3   0.499437 0.877173 0.499147 -0.016896
C12   C     C_3   0.505954 0.123205 0.500684 -0.027855
C13   C     C_3   0.396960 0.964687 0.558268 -0.177685
C14   C     C_3   0.608449 0.036147 0.441341 -0.196617
C15   C     C_3   0.561258 0.592535 0.053343 -0.070894
C16   C     C_3   0.438641 0.406844 0.946272 -0.084413
C17   C     C_3   0.450677 0.601316 0.950485 0.114667
C18   C     C_3   0.548466 0.398078 0.049390 0.097261
C19   C     C_3   0.610504 0.488906 0.952266 -0.094290
C20   C     C_3   0.388794 0.509809 0.047364 -0.100227
C21   C     C_R   0.261855 0.503635 0.498894 0.827338
C22   C     C_R   0.737104 0.509504 0.501873 0.794617
C23   C     C_R   0.167325 0.882958 0.247906 -0.163572
C24   C     C_R   0.847041 0.664671 0.975742 -0.171802
C25   C     C_R   0.152955 0.785366 0.342700 -0.227047
C26   C     C_R   0.890822 0.576176 0.878891 -0.238977
C27   C     C_R   0.117897 0.667139 0.293462 0.169874
C28   C     C_R   0.910546 0.611851 0.741189 0.173173
C29   C     C_R   0.105790 0.645766 0.148290 -0.172914
C30   C     C_R   0.904259 0.740638 0.707125 -0.222349
C31   C     C_R   0.126718 0.741788 0.053250 -0.155420
C32   C     C_R   0.868869 0.830237 0.807161 -0.182370
C33   C     C_R   0.153079 0.862625 0.102862 0.260068
C34   C     C_R   0.834474 0.792504 0.940478 0.252705
C35   C     C_R   0.928709 0.591105 0.396831 0.125169
C36   C     C_R   0.063316 0.482210 0.621588 0.112392
Cu1   Cu    Cu3+1 0.500030 0.499990 0.643150 0.964253
Cu2   Cu    Cu3+1 0.499970 0.500010 0.356850 0.953548
H1    H     H_    0.608370 0.673128 0.102384 0.135348
H2    H     H_    0.387392 0.328531 0.897613 0.161988
H3    H     H_    0.698821 0.461665 0.906332 0.137313
H4    H     H_    0.296038 0.511777 0.090929 0.134044
H5    H     H_    0.182295 0.976293 0.287413 0.135064
H6    H     H_    0.821369 0.631264 0.076403 0.178626
H7    H     H_    0.157052 0.805235 0.454678 0.122279
H8    H     H_    0.902940 0.478657 0.909315 0.124456
H9    H     H_    0.075149 0.556058 0.109115 0.129492
H10   H     H_    0.926097 0.772122 0.603045 0.133451
H11   H     H_    0.116006 0.723529 0.941490 0.149377
H12   H     H_    0.864445 0.928758 0.779558 0.133561
H13   H     H_    0.678603 0.910336 0.636677 0.149596
H14   H     H_    0.329870 0.096397 0.363305 0.138848
H15   H     H_    0.310668 0.935092 0.605955 0.153976
H16   H     H_    0.694429 0.066193 0.393246 0.165187
N1    N     N_3   0.500090 0.499970 0.858290 -0.177953
N2    N     N_3   0.499910 0.500030 0.141710 -0.173668
O1    O     O_R   0.500060 0.316850 0.620870 -0.572072
O2    O     O_R   0.499940 0.683150 0.379130 -0.582074
O3    O     O_R   0.500000 0.316860 0.379090 -0.574897
O4    O     O_R   0.500000 0.683140 0.620910 -0.574942
O5    O     O_R   0.319670 0.500010 0.620890 -0.545866
O6    O     O_R   0.680330 0.499990 0.379110 -0.573328
O7    O     O_R   0.319620 0.500010 0.379110 -0.591510
O8    O     O_R   0.680380 0.499990 0.620890 -0.580689
N3    N     N_3   0.161695 0.966244 0.008287 -0.586086
H17   H     H_    0.092436 0.032368 0.033530 0.214405
H18   H     H_    0.141868 0.937372 0.904994 0.228590
N4    N     N_3   0.788777 0.884979 0.038162 -0.588451
H19   H     H_    0.762674 0.841990 0.130542 0.234192
H20   H     H_    0.708256 0.925659 0.993505 0.216604
C37   C     C_1   0.395367 0.717325 0.892995 0.252710
N5    N     N_1   0.351910 0.809070 0.847041 -0.329823
C38   C     C_1   0.610258 0.283575 0.103942 0.243658
N6    N     N_1   0.660190 0.193315 0.145770 -0.325124
N7    N     N_3   0.861440 0.684204 0.313523 -0.609792
H21   H     H_    0.771010 0.697643 0.345567 0.220287
H22   H     H_    0.899506 0.771409 0.334192 0.219586
N8    N     N_3   0.126919 0.423863 0.739571 -0.565182
H23   H     H_    0.078834 0.344999 0.768144 0.208407
H24   H     H_    0.127573 0.486769 0.824470 0.213971
N9    N     N_3   0.495078 0.086618 0.775074 -0.573091
H25   H     H_    0.495755 0.008543 0.840932 0.231856
H26   H     H_    0.577587 0.131391 0.796430 0.212386
N10   N     N_3   0.511435 0.914158 0.224549 -0.599894
H27   H     H_    0.509257 0.992378 0.158798 0.234426
H28   H     H_    0.430222 0.867294 0.202911 0.238944

loop_
_geom_bond_atom_site_label_1
_geom_bond_atom_site_label_2
_ccdc_geom_bond_type
C4    C36   A    
C27   C29   A    
C38   N6    T    
C9    H13   S    
C9    C14   S    
C10   H14   S    
N9    H25   S    
C33   N3    S    
C15   C19   S    
C35   N7    S    
C29   H9    S    
C30   H10   S    
N10   H28   S    
C1    O3    A    
N8    H24   S    
C5    C36   A    
C17   C20   S    
C23   H5    S    
C6    C35   A    
C15   C17   S    
C18   C19   S    
Cu2   O2    S    
N4    H19   S    
N3    H18   S    
C31   C33   A    
C17   N1    S    
C21   O5    A    
C18   N2    S    
C1    C12   S    
C31   H11   S    
C2    C11   S    
N9    H26   S    
C13   H15   S    
C7    C12   S    
N10   H27   S    
C4    C6    A    
C34   N4    S    
N8    H23   S    
C23   C33   A    
C24   C34   A    
C32   C34   A    
N7    H21   S    
Cu1   Cu2   S    
C1    O1    A    
C22   O6    A    
C5    C28   S    
N7    H22   S    
Cu1   O5    S    
C6    C27   S    
C3    C35   A    
C16   C20   S    
C32   H12   S    
C16   C18   S    
C9    C11   S    
C15   H1    S    
C10   C12   S    
C16   H2    S    
N4    H20   S    
C7    N9    S    
C12   C14   S    
C17   C37   S    
C18   C38   S    
C24   H6    S    
C25   H7    S    
Cu1   O8    S    
Cu2   O7    S    
C19   N1    S    
C7    C9    S    
C8    C14   S    
C14   H16   S    
C8    N10   S    
C24   C26   A    
C3    C5    A    
C10   C13   S    
C20   H4    S    
C2    O2    A    
C25   C27   A    
C26   C28   A    
C15   N2    S    
C28   C30   A    
C16   N1    S    
C37   N5    T    
C29   C31   A    
C36   N8    S    
C30   C32   A    
C4    C21   S    
C11   C13   S    
C8    C11   S    
C2    O4    A    
C20   N2    S    
C23   C25   A    
C21   O7    A    
Cu1   O4    S    
C26   H8    S    
C22   O8    A    
Cu2   O3    S    
Cu1   N1    S    
C7    C13   S    
Cu2   N2    S    
C8    C10   S    
N3    H17   S    
C3    C22   S    
Cu1   O1    S    
C19   H3    S    
Cu2   O6    S    
