data_mof_unit_pretest_1552.cif
_audit_creation_date              2012-12-10T17:54:13-0500
_audit_creation_method            fapswitch 2.2
_symmetry_space_group_name_H-M    P1
_symmetry_Int_Tables_number       1
_space_group_crystal_system       triclinic
_cell_length_a                    10.468208
_cell_length_b                    11.730651
_cell_length_c                    17.359645
_cell_angle_alpha                 90.002358
_cell_angle_beta                  85.85803
_cell_angle_gamma                 89.998351
_cell_volume                      2126.17739959

loop_
_atom_site_label
_atom_site_type_symbol
_atom_type_description
_atom_site_fract_x
_atom_site_fract_y
_atom_site_fract_z
_atom_type_partial_charge
C1    C     C_R   0.499999 0.716678 0.499998 0.830578
C2    C     C_R   0.500001 0.283322 0.500002 0.830577
C3    C     C_1   0.499997 0.838055 0.500002 -0.177304
C4    C     C_1   0.500003 0.161945 0.499998 -0.177304
C5    C     C_1   0.499998 0.940269 0.500001 0.007255
C6    C     C_1   0.500002 0.059731 0.499999 0.007255
C7    C     C_1   0.927938 0.500000 0.499996 0.083873
C8    C     C_1   0.072062 0.500000 0.500004 0.083873
C9    C     C_R   0.483393 0.501669 0.650411 0.805846
C10   C     C_R   0.516607 0.498331 0.349589 0.805847
C11   C     C_R   0.474255 0.508550 0.734677 -0.091428
C12   C     C_R   0.525745 0.491448 0.265323 -0.091428
C13   C     C_R   0.585511 0.524837 0.773489 -0.199481
C14   C     C_R   0.414489 0.475160 0.226512 -0.199481
C15   C     C_R   0.578196 0.532579 0.853285 -0.177559
C16   C     C_R   0.421804 0.467416 0.146715 -0.177560
C17   C     C_R   0.459635 0.522630 0.895928 0.137442
C18   C     C_R   0.540365 0.477365 0.104072 0.137442
C19   C     C_R   0.346625 0.509285 0.857103 0.172775
C20   C     C_R   0.653375 0.490712 0.142897 0.172776
C21   C     C_R   0.354909 0.501949 0.776709 -0.163067
C22   C     C_R   0.645091 0.498049 0.223291 -0.163067
C23   C     C_2   0.454582 0.525080 0.980592 -0.231239
C24   C     C_2   0.545419 0.474914 0.019408 -0.231239
Cu1   Cu    Cu3+1 0.374700 0.500000 0.500000 0.985483
Cu2   Cu    Cu3+1 0.625300 0.500000 0.500000 0.985483
H1    H     H_    0.678482 0.532348 0.742217 0.167095
H2    H     H_    0.321518 0.467650 0.257784 0.167095
H3    H     H_    0.732014 0.509597 0.252705 0.170001
H4    H     H_    0.267986 0.490401 0.747295 0.170001
H5    H     H_    0.626253 0.433234 0.988471 0.153087
H6    H     H_    0.373748 0.566760 0.011529 0.153087
H7    H     H_    0.334361 0.452986 0.118422 0.140966
H8    H     H_    0.665640 0.547009 0.881578 0.140966
N1    N     N_1   0.813590 0.500000 0.499990 -0.144540
N2    N     N_1   0.186410 0.500000 0.500010 -0.144540
O1    O     O_R   0.394190 0.662800 0.500010 -0.567473
O2    O     O_R   0.605810 0.337200 0.499990 -0.567473
O3    O     O_R   0.605810 0.662800 0.499990 -0.568754
O4    O     O_R   0.394190 0.337200 0.500010 -0.568753
O5    O     O_R   0.381920 0.500000 0.613600 -0.582785
O6    O     O_R   0.618080 0.500000 0.386400 -0.582785
O7    O     O_R   0.593540 0.500000 0.613600 -0.579783
O8    O     O_R   0.406460 0.500000 0.386400 -0.579784
N3    N     N_3   0.223116 0.499938 0.897912 -0.606758
H9    H     H_    0.225223 0.432215 0.936958 0.222653
H10   H     H_    0.204672 0.575190 0.928983 0.213118
N4    N     N_3   0.776884 0.500057 0.102088 -0.606759
H11   H     H_    0.774778 0.567780 0.063042 0.222652
H12   H     H_    0.795328 0.424805 0.071017 0.213118

loop_
_geom_bond_atom_site_label_1
_geom_bond_atom_site_label_2
_ccdc_geom_bond_type
C2    C4    S    
C23   C24   D    
C19   N3    S    
C19   C21   A    
C22   H3    S    
C2    O4    A    
C16   H7    S    
C10   O6    A    
C9    C11   S    
C21   H4    S    
C2    O2    A    
C15   H8    S    
C9    O5    A    
C1    O1    A    
C3    C5    T    
Cu1   O1    S    
C23   H6    S    
N4    H12   S    
C24   H5    S    
C7    C8    S    
C17   C23   S    
N3    H9    S    
C11   C13   A    
C20   N4    S    
C10   C12   S    
C18   C24   S    
Cu1   O8    S    
C4    C6    T    
N4    H11   S    
C17   C19   A    
C12   C14   A    
Cu2   O7    S    
C18   C20   A    
C13   C15   A    
Cu1   O4    S    
C5    C6    S    
C14   C16   A    
Cu2   O3    S    
C9    O7    A    
C1    O3    A    
Cu1   N2    S    
C10   O8    A    
C12   C22   A    
Cu2   N1    S    
Cu2   O6    S    
C16   C18   A    
C8    N2    T    
N3    H10   S    
Cu1   O5    S    
C15   C17   A    
C13   H1    S    
C14   H2    S    
Cu1   Cu2   S    
C7    N1    T    
C11   C21   A    
Cu2   O2    S    
C20   C22   A    
C1    C3    S    
