data_mof_unit_pretest_1855.cif
_audit_creation_date              2012-12-10T21:29:36-0500
_audit_creation_method            fapswitch 2.2
_symmetry_space_group_name_H-M    P1
_symmetry_Int_Tables_number       1
_space_group_crystal_system       triclinic
_cell_length_a                    10.602041
_cell_length_b                    16.143505
_cell_length_c                    16.875173
_cell_angle_alpha                 88.241968
_cell_angle_beta                  93.856104
_cell_angle_gamma                 86.625583
_cell_volume                      2874.98001821

loop_
_atom_site_label
_atom_site_type_symbol
_atom_type_description
_atom_site_fract_x
_atom_site_fract_y
_atom_site_fract_z
_atom_type_partial_charge
C1    C     C_R   0.487042 0.490788 0.651971 0.944031
C2    C     C_R   0.471774 0.531540 0.096296 0.252537
C3    C     C_R   0.381054 0.421083 0.852032 -0.186693
C4    C     C_R   0.498619 0.600946 0.139417 -0.183890
C5    C     C_R   0.404078 0.420450 0.771728 0.141093
C6    C     C_R   0.524714 0.594116 0.221117 0.158397
C7    C     C_R   0.414460 0.767624 0.478566 0.221054
C8    C     C_R   0.554822 0.232665 0.545810 0.234110
C9    C     C_R   0.410508 0.853744 0.490161 0.058210
C10   C     C_R   0.537289 0.146846 0.551025 0.056148
C11   C     C_R   0.523511 0.889887 0.517662 0.187530
C12   C     C_R   0.511542 0.509883 0.347597 0.943815
C13   C     C_R   0.465507 0.110675 0.488462 0.180636
C14   C     C_R   0.628523 0.836261 0.544277 0.079262
C15   C     C_R   0.398496 0.164236 0.430620 0.084745
C16   C     C_R   0.741501 0.494654 0.507776 0.910203
C17   C     C_R   0.258140 0.505043 0.495173 0.904516
C18   C     C_R   0.620303 0.750100 0.542942 -0.050267
C19   C     C_R   0.405353 0.250353 0.434787 -0.061716
C20   C     C_R   0.896233 0.357995 0.436415 -0.170278
C21   C     C_R   0.112245 0.631836 0.582850 -0.186201
C22   C     C_R   0.955152 0.317896 0.375578 0.199876
C23   C     C_R   0.455840 0.490347 0.735536 -0.173137
C24   C     C_R   0.056244 0.667983 0.646708 0.193444
C25   C     C_R   0.053499 0.354565 0.340141 -0.189765
C26   C     C_R   0.951716 0.633676 0.676886 -0.181788
C27   C     C_R   0.101363 0.426418 0.371101 0.121837
C28   C     C_R   0.897562 0.567168 0.639568 0.120710
C29   C     C_R   0.056154 0.458901 0.441598 0.034014
C30   C     C_R   0.942746 0.538149 0.567708 0.028237
C31   C     C_R   0.942380 0.432049 0.467056 0.009102
C32   C     C_R   0.059579 0.563332 0.544811 0.013814
C33   C     C_R   0.121078 0.516841 0.487160 -0.127337
C34   C     C_R   0.519241 0.515742 0.260987 -0.176037
C35   C     C_R   0.878167 0.481275 0.520925 -0.135804
C36   C     C_R   0.468223 0.563531 0.779901 0.153634
C37   C     C_R   0.509401 0.443860 0.214994 0.142314
C38   C     C_R   0.438628 0.563192 0.858129 -0.167124
C39   C     C_R   0.482992 0.452705 0.133716 -0.160808
C40   C     C_R   0.403056 0.490700 0.896151 0.245536
H1    H     H_    0.916884 0.655770 0.731757 0.198441
H2    H     H_    0.500605 0.660766 0.108752 0.184388
H3    H     H_    0.089874 0.328830 0.287137 0.194027
H4    H     H_    0.699836 0.709659 0.566378 0.182410
H5    H     H_    0.349630 0.291356 0.392259 0.184245
H6    H     H_    0.818927 0.327979 0.461018 0.202770
H7    H     H_    0.194256 0.660452 0.563450 0.204700
H8    H     H_    0.474266 0.397475 0.099416 0.188472
H9    H     H_    0.450672 0.619257 0.890720 0.191712
H10   H     H_    0.349051 0.366101 0.881028 0.186119
I1    I     I_    0.598605 0.080720 0.660959 -0.122144
I2    I     I_    0.535787 0.680339 0.742739 -0.263029
I3    I     I_    0.348816 0.312007 0.712897 -0.219473
I4    I     I_    0.583388 0.705278 0.273916 -0.214726
I5    I     I_    0.700179 0.281018 0.620999 -0.172866
I6    I     I_    0.272928 0.721625 0.398612 -0.172395
I7    I     I_    0.227844 0.920241 0.479773 -0.128805
I8    I     I_    0.802431 0.881985 0.587189 -0.161509
I9    I     I_    0.284257 0.118496 0.335980 -0.169680
I10   I     I_    0.888539 0.205757 0.333208 -0.190000
I11   I     I_    0.139811 0.767921 0.703402 -0.208163
I12   I     I_    0.200282 0.498929 0.293203 -0.301930
I13   I     I_    0.792957 0.492646 0.712431 -0.281458
I14   I     I_    0.541190 0.317900 0.256729 -0.263902
N1    N     N_2   0.403959 0.482859 0.979770 -0.153615
N2    N     N_2   0.452127 0.542147 0.013464 -0.162315
N3    N     N_R   0.515300 0.716920 0.509720 -0.133604
N4    N     N_R   0.484700 0.283080 0.490280 -0.138634
N5    N     N_2   0.536776 0.977582 0.521239 -0.090220
N6    N     N_2   0.454014 0.023025 0.482177 -0.087699
O1    O     O_R   0.494530 0.422540 0.612660 -0.572406
O2    O     O_R   0.505470 0.577460 0.387340 -0.570405
O3    O     O_R   0.504350 0.561840 0.618900 -0.594619
O4    O     O_R   0.495650 0.438160 0.381100 -0.594789
O5    O     O_R   0.678310 0.430340 0.496890 -0.619476
O6    O     O_R   0.321690 0.569660 0.503110 -0.622906
O7    O     O_R   0.688140 0.569650 0.503130 -0.610915
O8    O     O_R   0.311860 0.430350 0.496870 -0.600378
Zn1   Zn    Zn3+2 0.493440 0.406980 0.495830 1.017707
Zn2   Zn    Zn3+2 0.506560 0.593020 0.504170 1.019112

loop_
_geom_bond_atom_site_label_1
_geom_bond_atom_site_label_2
_ccdc_geom_bond_type
C38   C40   A    
C24   I11   S    
C12   O4    A    
C27   C29   A    
C34   C37   A    
C14   C18   A    
C25   H3    S    
O1    Zn1   S    
C38   H9    S    
C15   C19   A    
C1    O1    A    
C30   C35   A    
C5    I3    S    
C24   C26   A    
C16   C35   S    
C22   I10   S    
C11   C14   A    
C13   N6    S    
C16   O5    A    
C29   C33   A    
C16   O7    A    
C2    C39   A    
C22   C25   A    
C17   O6    A    
C36   I2    S    
N4    Zn1   S    
C12   O2    A    
C17   C33   S    
C7    I6    S    
C6    I4    S    
C10   I1    S    
C8    I5    S    
C3    H10   S    
C14   I8    S    
C21   C32   A    
C4    C6    A    
O8    Zn1   S    
C3    C5    A    
C18   N3    A    
C6    C34   A    
C2    C4    A    
C27   I12   S    
C18   H4    S    
C5    C23   A    
C11   N5    S    
C19   N4    A    
C9    C11   A    
C8    C10   A    
C20   C22   A    
C3    C40   A    
C1    C23   S    
C40   N1    S    
C13   C15   A    
C31   C35   A    
C12   C34   S    
C37   I14   S    
O7    Zn2   S    
C7    C9    A    
C15   I9    S    
N3    Zn2   S    
O6    Zn2   S    
C2    N2    S    
C10   C13   A    
C19   H5    S    
C8    N4    A    
C23   C36   A    
C25   C27   A    
C26   C28   A    
O4    Zn1   S    
C1    O3    A    
C32   C33   A    
C36   C38   A    
C29   C31   A    
C30   C32   A    
C4    H2    S    
C28   C30   A    
C17   O8    A    
O3    Zn2   S    
C9    I7    S    
N5    N6    D    
C7    N3    A    
C28   I13   S    
C37   C39   A    
O2    Zn2   S    
N1    N2    D    
C21   C24   A    
O5    Zn1   S    
C20   H6    S    
C26   H1    S    
C39   H8    S    
C21   H7    S    
C20   C31   A    
