data_mof_unit_pretest_256.cif
_audit_creation_date              2013-03-05T15:55:32-0500
_audit_creation_method            fapswitch 2.2
_symmetry_space_group_name_H-M    P1
_symmetry_Int_Tables_number       1
_space_group_crystal_system       triclinic
_cell_length_a                    20.116654
_cell_length_b                    7.251267
_cell_length_c                    13.71934
_cell_angle_alpha                 90.003712
_cell_angle_beta                  102.821092
_cell_angle_gamma                 89.991097
_cell_volume                      1951.36108831

loop_
_atom_site_label
_atom_site_type_symbol
_atom_site_description
_atom_site_fract_x
_atom_site_fract_y
_atom_site_fract_z
_atom_type_partial_charge
O1    O     O_R   0.449560 0.506810 0.599700 -0.592713
O2    O     O_R   0.550440 0.006810 0.400300 -0.592645
O3    O     O_R   0.587960 0.180060 0.595760 -0.604397
O4    O     O_R   0.412040 0.680060 0.404240 -0.604326
C1    C     C_R   0.614792 0.344925 0.616916 1.009151
C2    C     C_R   0.385208 0.844942 0.383085 1.009046
O5    O     O_R   0.452380 0.177430 0.611700 -0.583535
O6    O     O_R   0.547620 0.677430 0.388300 -0.583325
O7    O     O_R   0.413900 0.001890 0.416350 -0.599694
O8    O     O_R   0.586100 0.501890 0.583650 -0.599722
C3    C     C_R   0.436916 0.345145 0.637961 1.076889
C4    C     C_R   0.563069 0.845121 0.362015 1.076788
O9    O     O_3   0.487530 0.337490 0.435890 -0.289213
O10   O     O_3   0.512470 0.837490 0.564110 -0.289397
V1    V     V_3+5 0.502310 0.064660 0.511890 1.233858
V2    V     V_3+5 0.497690 0.564660 0.488110 1.233984
C5    C     C_R   0.613075 0.701723 0.128528 0.790538
C6    C     C_R   0.387023 0.203099 0.871760 0.790740
C7    C     C_R   0.600903 0.843500 0.282674 -0.449327
C8    C     C_R   0.399043 0.343664 0.717244 -0.449600
C9    C     C_R   0.926688 0.942955 0.306399 -0.276869
C10   C     C_R   0.073210 0.442247 0.693465 -0.277131
C11   C     C_R   0.891512 0.963297 0.381807 -0.204650
C12   C     C_R   0.108334 0.462111 0.617965 -0.204545
C13   C     C_R   0.822674 0.918426 0.365482 0.781288
C14   C     C_R   0.177187 0.417340 0.634302 0.781299
C15   C     C_R   0.786779 0.851634 0.270719 -0.105119
C16   C     C_R   0.213157 0.351227 0.729182 -0.105191
C17   C     C_R   0.825820 0.806013 0.198578 -0.230520
C18   C     C_R   0.174177 0.306034 0.801451 -0.230496
C19   C     C_R   0.714249 0.824851 0.245211 0.025797
C20   C     C_R   0.285708 0.324785 0.754716 0.025911
C21   C     C_R   0.684044 0.731753 0.154661 -0.492880
C22   C     C_R   0.316011 0.232517 0.845504 -0.492920
C23   C     C_R   0.725139 0.665584 0.092691 0.724945
C24   C     C_R   0.274975 0.166563 0.907600 0.724769
C25   C     C_R   0.794311 0.703527 0.113311 0.498939
C26   C     C_R   0.205768 0.204137 0.886903 0.498994
C27   C     C_R   0.670208 0.887940 0.305697 -0.187706
C28   C     C_R   0.329677 0.387504 0.694049 -0.188008
C29   C     C_R   0.572323 0.753953 0.193147 0.639017
C30   C     C_R   0.427729 0.255031 0.807024 0.638770
C31   C     C_R   0.895267 0.863411 0.215002 -0.074936
C32   C     C_R   0.104704 0.363247 0.784979 -0.074964
H1    H     H_    0.687805 0.967054 0.372649 0.222219
H2    H     H_    0.311988 0.465890 0.626840 0.222138
H3    H     H_    0.979401 0.987367 0.319945 0.168227
H4    H     H_    0.020475 0.486518 0.679889 0.168097
H5    H     H_    0.917854 0.016269 0.453851 0.169505
H6    H     H_    0.081935 0.514588 0.545830 0.169532
C33   C     C_R   0.206608 0.998800 0.253952 0.766321
C34   C     C_R   0.793345 0.498874 0.746132 0.766410
C35   C     C_R   0.271668 0.998035 0.317195 -0.278528
C36   C     C_R   0.728290 0.498085 0.682883 -0.278617
H7    H     H_    0.286348 0.110882 0.369268 0.177917
H8    H     H_    0.713585 0.610977 0.630849 0.177840
C37   C     C_R   0.316900 0.852709 0.314496 -0.237871
C38   C     C_R   0.683098 0.352671 0.685513 -0.237869
C39   C     C_R   0.296014 0.707822 0.248115 -0.042593
C40   C     C_R   0.704013 0.207738 0.751858 -0.042346
H9    H     H_    0.332950 0.601032 0.245878 0.161789
H10   H     H_    0.667115 0.100849 0.754019 0.161639
C41   C     C_R   0.229809 0.699200 0.186462 0.168786
C42   C     C_R   0.770197 0.199223 0.813586 0.169252
C43   C     C_R   0.184418 0.852280 0.186251 -0.391396
C44   C     C_R   0.815565 0.352324 0.813800 -0.391464
O11   O     O_R   0.913920 0.203370 0.916260 -0.638482
O12   O     O_R   0.086080 0.703370 0.083740 -0.638432
O13   O     O_R   0.047620 0.535540 0.888290 -0.610149
O14   O     O_R   0.952380 0.035540 0.111710 -0.610094
C45   C     C_R   0.065986 0.368412 0.864616 0.984635
C46   C     C_R   0.933999 0.868439 0.135371 0.984282
O15   O     O_R   0.912040 0.532780 0.904220 -0.505818
O16   O     O_R   0.087960 0.032780 0.095780 -0.505748
O17   O     O_R   0.949550 0.708160 0.099720 -0.528458
O18   O     O_R   0.050450 0.208160 0.900280 -0.528625
C47   C     C_R   0.885134 0.363544 0.882856 1.028704
C48   C     C_R   0.114859 0.863527 0.117163 1.028463
O19   O     O_3   0.012480 0.375300 0.064060 -0.282109
O20   O     O_3   0.987520 0.875300 0.935940 -0.282290
V3    V     V_3+5 0.997690 0.648180 0.988110 1.265121
V4    V     V_3+5 0.002310 0.148180 0.011890 1.265196
F1    F     F_    0.504971 0.710161 0.170421 -0.625706
F2    F     F_    0.495151 0.211924 0.829930 -0.625499
C49   C     C_3   0.207966 0.525794 0.124271 -0.315799
C50   C     C_3   0.260858 0.370777 0.135814 -0.738855
H11   H     H_    0.303904 0.410713 0.101626 0.270259
H12   H     H_    0.279807 0.334035 0.215608 0.245270
H13   H     H_    0.236762 0.244946 0.098974 0.307954
H14   H     H_    0.163436 0.464970 0.147987 0.258271
H15   H     H_    0.193112 0.563424 0.043819 0.197093
C51   C     C_3   0.792040 0.025943 0.875895 -0.315327
C52   C     C_3   0.739125 0.871064 0.864568 -0.740517
H16   H     H_    0.696059 0.911410 0.898625 0.270139
H17   H     H_    0.720208 0.833863 0.784834 0.245636
H18   H     H_    0.763190 0.745402 0.901665 0.307670
H19   H     H_    0.836543 0.964906 0.852186 0.258208
H20   H     H_    0.806933 0.063805 0.956312 0.197208
F3    F     F_    0.698633 0.560693 0.011206 -0.615415
F4    F     F_    0.301576 0.062207 0.989267 -0.615752
F5    F     F_    0.582946 0.615378 0.042106 -0.560646
F6    F     F_    0.417257 0.117808 0.958486 -0.560769
F7    F     F_    0.794574 0.927862 0.446359 -0.720881
F8    F     F_    0.205229 0.426152 0.553356 -0.720786
F9    F     F_    0.830262 0.625276 0.051953 -0.692833
F10   F     F_    0.169865 0.126118 0.948382 -0.693041
F11   F     F_    0.164562 0.141875 0.261768 -0.693920
F12   F     F_    0.835357 0.642009 0.738352 -0.694046

loop_
_geom_bond_atom_site_label_1
_geom_bond_atom_site_label_2
_geom_bond_distance
_ccdc_geom_bond_type
C10   H4    1.084128 S    
C41   C43   1.436824 A    
C26   F10   1.350433 S    
C52   H16   1.110865 S    
C15   C17   1.432006 A    
O1    C3    1.331873 A    
O2    C4    1.331960 A    
C2    O7    1.311434 A    
C49   H15   1.111585 S    
C51   H20   1.111578 S    
C49   C50   1.531533 S    
O5    C3    1.324828 A    
C31   C46   1.476392 S    
C1    C38   1.484272 S    
O12   V3    2.001980 S    
C23   C25   1.384701 A    
C12   C14   1.391481 A    
C6    C30   1.387104 A    
C33   C43   1.416611 A    
C45   O18   1.324928 A    
C8    C28   1.397248 A    
C50   H12   1.108831 S    
C11   H5    1.082977 S    
C38   C40   1.392838 A    
C29   F1    1.358835 S    
C18   C26   1.411918 A    
C32   C45   1.476294 S    
C40   H10   1.078216 S    
C6    F6    1.359018 S    
O13   C45   1.328054 A    
C5    F5    1.358759 S    
C14   F8    1.354109 S    
C9    C31   1.397419 A    
C10   C32   1.397430 A    
O11   C47   1.332831 A    
C19   C21   1.425900 A    
C27   H1    1.074159 S    
O5    V1    2.040249 S    
O6    V2    2.040445 S    
C41   C49   1.528331 S    
C12   H6    1.083022 S    
C2    C37   1.484251 S    
C18   C32   1.426887 A    
C5    C21   1.409640 A    
O16   V4    2.028081 S    
C46   O17   1.324984 A    
C23   F3    1.359425 S    
O15   V3    2.028243 S    
C34   C36   1.400597 A    
C51   H19   1.110088 S    
C35   H7    1.083300 S    
O12   C48   1.332844 A    
C36   H8    1.083295 S    
C3    C8    1.459959 S    
C39   H9    1.078233 S    
C15   C19   1.436152 A    
C16   C20   1.436164 A    
C30   F2    1.358956 S    
O4    C2    1.317333 A    
O18   V4    2.032227 S    
C35   C37   1.398024 A    
C50   H11   1.110897 S    
O17   V3    2.032121 S    
C33   C35   1.400633 A    
C42   C44   1.436860 A    
O4    V2    2.027979 S    
C28   H2    1.074370 S    
C25   F9    1.350422 S    
O6    C4    1.324815 A    
C24   F4    1.359475 S    
O1    V2    2.028609 S    
O2    V1    2.028506 S    
C6    C22   1.409772 A    
C7    C27   1.397173 A    
C33   F11   1.357663 S    
C52   H18   1.101936 S    
C9    C11   1.384793 A    
C10   C12   1.384852 A    
C37   C39   1.392800 A    
C42   C51   1.528357 S    
C20   C28   1.417335 A    
O3    V1    2.028137 S    
C36   C38   1.398024 A    
C44   C47   1.508091 S    
C43   C48   1.508106 S    
C39   C41   1.411797 A    
C13   F7    1.354162 S    
O20   V3    1.789274 S    
O3    C1    1.317346 A    
C50   H13   1.101948 S    
O19   V4    1.789248 S    
C8    C30   1.395612 A    
C49   H14   1.110100 S    
C13   C15   1.424639 A    
C14   C16   1.424696 A    
C40   C42   1.411811 A    
C16   C18   1.431957 A    
O7    V1    2.013432 S    
C1    O8    1.311440 A    
O8    V2    2.013341 S    
C4    C7    1.460108 S    
C24   C26   1.384756 A    
C51   C52   1.531488 S    
C21   C23   1.395785 A    
C19   C27   1.417359 A    
C22   C24   1.395792 A    
C11   C13   1.391452 A    
O14   V4    2.040175 S    
C5    C29   1.387047 A    
O13   V3    2.039979 S    
C34   C44   1.416596 A    
C34   F12   1.357658 S    
O11   V4    2.001907 S    
C52   H17   1.108796 S    
O16   C48   1.347046 A    
O9    V2    1.789834 S    
C17   C25   1.411903 A    
O15   C47   1.347059 A    
O10   V1    1.789860 S    
O14   C46   1.328063 A    
C17   C31   1.426952 A    
C7    C29   1.395476 A    
C20   C22   1.426065 A    
C9    H3    1.084132 S    
