data_mof_unit_pretest_1610.cif
_audit_creation_date              2012-12-11T15:47:09-0500
_audit_creation_method            fapswitch 2.2
_symmetry_space_group_name_H-M    P1
_symmetry_Int_Tables_number       1
_space_group_crystal_system       triclinic
_cell_length_a                    19.022885
_cell_length_b                    19.024742
_cell_length_c                    19.030138
_cell_angle_alpha                 109.089713
_cell_angle_beta                  106.755369
_cell_angle_gamma                 109.640409
_cell_volume                      5481.96932491

loop_
_atom_site_label
_atom_site_type_symbol
_atom_type_description
_atom_site_fract_x
_atom_site_fract_y
_atom_site_fract_z
_atom_type_partial_charge
C1    C     C_R   0.017143 0.067319 0.737898 -0.118602
C2    C     C_3   0.417889 0.596799 0.953737 -0.026409
C3    C     C_3   0.445666 0.508879 0.992119 -0.024563
C4    C     C_3   0.506289 0.636368 0.958831 -0.025889
C5    C     C_1   0.287237 0.359984 0.788038 -0.039110
C6    C     C_1   0.681950 0.736316 0.180652 -0.036881
C7    C     C_3   0.495397 0.546919 0.912784 -0.024148
C8    C     C_3   0.455927 0.597570 0.037823 -0.024109
C9    C     C_3   0.407869 0.507958 0.908172 0.014317
C10   C     C_3   0.543411 0.636478 0.042346 0.014216
C11   C     C_1   0.338846 0.429941 0.839596 0.000639
C12   C     C_R   0.991275 0.933785 0.263968 -0.128214
C13   C     C_1   0.619105 0.696342 0.117689 -0.000780
C14   C     C_1   0.328796 0.999719 0.496697 -0.039229
C15   C     C_1   0.675164 0.001713 0.518818 -0.040098
C16   C     C_R   0.172851 0.929994 0.450086 -0.128489
C17   C     C_R   0.828822 0.070530 0.555260 -0.127345
C18   C     C_1   0.393724 0.999969 0.501591 0.009271
C19   C     C_1   0.610938 0.001686 0.516532 0.009470
C20   C     C_1   0.470027 0.000596 0.507482 0.000413
C21   C     C_1   0.535014 0.001179 0.512113 0.000559
C22   C     C_1   0.019126 0.344379 0.518832 -0.003487
C23   C     C_R   0.251678 0.000021 0.491554 0.083491
C24   C     C_1   0.981105 0.655761 0.481390 -0.004089
C25   C     C_1   0.013784 0.403999 0.513543 0.009856
C26   C     C_1   0.986587 0.596245 0.486819 0.009689
C27   C     C_1   0.004559 0.471603 0.504476 0.002026
C28   C     C_1   0.995901 0.528710 0.495976 0.001969
C29   C     C_1   0.992673 0.995912 0.825926 -0.038645
C30   C     C_1   0.021006 0.005751 0.177671 -0.039895
C31   C     C_1   0.998250 0.997218 0.891574 0.009426
C32   C     C_1   0.017502 0.004691 0.112588 0.009196
C33   C     C_1   0.005457 0.999807 0.969173 0.000352
C34   C     C_R   0.750859 0.000964 0.518982 0.085904
C35   C     C_1   0.011429 0.002233 0.035285 0.000317
C36   C     C_R   0.940141 0.771743 0.512371 0.041637
C37   C     C_R   0.059879 0.228272 0.487650 0.043780
C38   C     C_R   0.230021 0.229511 0.657692 -0.130259
C39   C     C_R   0.761126 0.800630 0.333472 -0.121462
C40   C     C_R   0.013485 0.772973 0.441428 0.041335
C41   C     C_R   0.986478 0.227006 0.558532 0.044011
C42   C     C_R   0.156139 0.228275 0.729134 -0.129232
C43   C     C_R   0.835157 0.801685 0.261883 -0.120564
C44   C     C_R   0.241270 0.070813 0.520816 -0.119307
C45   C     C_R   0.979431 0.730370 0.479622 -0.020015
C46   C     C_R   0.760665 0.930164 0.488085 -0.128622
C47   C     C_R   0.946423 0.926595 0.669709 -0.128222
C48   C     C_R   0.058265 0.074030 0.331856 -0.126816
C49   C     C_R   0.987510 0.996260 0.748472 0.082384
C50   C     C_R   0.022024 0.004893 0.253918 0.084712
C51   C     C_1   0.595032 0.519289 0.018852 0.082209
C52   C     C_1   0.353885 0.622237 0.928951 0.085821
C53   C     C_1   0.435242 0.626098 0.106986 0.080589
C54   C     C_1   0.516271 0.518594 0.843708 0.080707
C55   C     C_1   0.871832 0.732458 0.528516 0.027028
C56   C     C_R   0.020589 0.269628 0.520392 -0.020451
C57   C     C_1   0.128379 0.267774 0.471850 0.021727
C58   C     C_1   0.030782 0.734975 0.374111 0.027336
C59   C     C_1   0.969320 0.265145 0.625898 0.021679
C60   C     C_1   0.412835 0.439162 0.010997 0.082354
C61   C     C_1   0.540805 0.707322 0.942293 0.084818
C62   C     C_R   0.230248 0.274513 0.730806 0.096015
C63   C     C_R   0.755849 0.777530 0.255059 0.089966
C64   C     C_3   0.532522 0.547246 0.996130 -0.024937
H1    H     H_    0.046547 0.132477 0.784795 0.103912
H2    H     H_    0.715240 0.865907 0.466411 0.101526
H3    H     H_    0.909569 0.862526 0.655664 0.120105
H4    H     H_    0.096227 0.138279 0.347163 0.119871
H5    H     H_    0.969706 0.869828 0.218749 0.100941
H6    H     H_    0.158890 0.866208 0.413389 0.120181
H7    H     H_    0.844202 0.134447 0.593474 0.119951
H8    H     H_    0.272338 0.253026 0.633381 0.105625
H9    H     H_    0.709779 0.788001 0.349218 0.104499
H10   H     H_    0.130762 0.250709 0.770412 0.104745
H11   H     H_    0.852004 0.789786 0.211448 0.103782
H12   H     H_    0.288419 0.136150 0.550296 0.104191
N1    N     N_R   0.996890 0.041250 0.656740 -0.043480
N2    N     N_R   0.999280 0.159070 0.543360 -0.069702
N3    N     N_R   0.112670 0.157030 0.656740 -0.043936
N4    N     N_R   0.887330 0.842970 0.343260 -0.045130
N5    N     N_R   0.159720 0.044030 0.499880 -0.043270
N6    N     N_R   0.840280 0.955970 0.500120 -0.041999
N7    N     N_R   0.953670 0.953920 0.613510 -0.044421
N8    N     N_R   0.046330 0.046080 0.386490 -0.044228
N9    N     N_1   0.644240 0.497347 0.036772 -0.078972
N10   N     N_1   0.303410 0.642273 0.909395 -0.077373
N11   N     N_1   0.418984 0.648592 0.161501 -0.080882
N12   N     N_R   0.003110 0.958750 0.343260 -0.042092
N13   N     N_1   0.532677 0.496247 0.789279 -0.080694
N14   N     N_1   0.816590 0.700202 0.540874 -0.086418
N15   N     N_1   0.183817 0.300297 0.459857 -0.087690
N16   N     N_1   0.044047 0.703737 0.319653 -0.086172
N17   N     N_1   0.956271 0.296618 0.680446 -0.087928
N18   N     N_1   0.386970 0.384279 0.025798 -0.079779
N19   N     N_1   0.568030 0.763267 0.929265 -0.078163
N20   N     N_R   0.116500 0.956710 0.456640 -0.044472
N21   N     N_R   0.883500 0.043290 0.543360 -0.044237
N22   N     N_R   0.955840 0.840160 0.499880 -0.069614
N23   N     N_R   0.044160 0.159840 0.500120 -0.069526
N24   N     N_R   0.157540 0.157800 0.613510 -0.043755
N25   N     N_R   0.842460 0.842200 0.386490 -0.045047
N26   N     N_R   0.000720 0.840930 0.456640 -0.069715
Ni1   Ni    Ni4+2 0.998100 0.099260 0.599150 0.218230
Ni2   Ni    Ni4+2 0.001900 0.900740 0.400850 0.221592
Ni3   Ni    Ni4+2 0.898980 0.898980 0.500000 0.221592
Ni4   Ni    Ni4+2 0.101020 0.101020 0.500000 0.218600

loop_
_geom_bond_atom_site_label_1
_geom_bond_atom_site_label_2
_ccdc_geom_bond_type
C14   C23   S    
C12   H5    S    
C1    N1    A    
C14   C18   T    
C51   N9    T    
C58   N16   T    
C43   C63   A    
C47   C49   A    
C29   C49   S    
C3    C64   S    
C15   C19   T    
N22   Ni3   S    
N4    Ni2   S    
C24   C45   S    
C19   C21   S    
C24   C26   T    
C46   H2    S    
C55   N14   T    
N1    N7    A    
N6    Ni3   S    
C44   H12   S    
C46   N6    A    
C37   C56   A    
C22   C25   T    
C1    H1    S    
C31   C33   S    
C34   C46   A    
C47   N7    A    
C42   C62   A    
C15   C34   S    
C3    C60   S    
C48   C50   A    
C30   C50   S    
C42   N3    A    
N25   Ni3   S    
N3    Ni1   S    
C4    C7    S    
C47   H3    S    
N12   Ni2   S    
C39   N25   A    
C43   H11   S    
C40   C45   A    
C38   H8    S    
C16   N20   A    
C42   H10   S    
C12   N12   A    
C32   C35   S    
N3    N24   A    
C40   C58   S    
C41   C59   S    
C54   N13   T    
C38   N24   A    
C44   N5    A    
C41   N2    A    
N5    N20   A    
C22   C56   S    
C43   N4    A    
N22   N26   A    
C4    C61   S    
C23   C44   A    
C48   N8    A    
C6    C63   S    
C2    C4    S    
C41   C56   A    
C3    C9    S    
N8    Ni4   S    
N2    N23   A    
C16   H6    S    
C36   C45   A    
C53   N11   T    
C48   H4    S    
N26   Ni2   S    
C9    C11   S    
N21   Ni1   S    
C2    C52   S    
C17   H7    S    
C16   C23   A    
N20   Ni2   S    
N6    N21   A    
N1    Ni1   S    
C17   C34   A    
C4    C10   S    
C37   N23   A    
C7    C9    S    
N23   Ni4   S    
N5    Ni4   S    
C57   N15   T    
N2    Ni1   S    
C26   C28   S    
C2    C8    S    
C51   C64   S    
N8    N12   A    
C10   C13   S    
C8    C53   S    
C12   C50   A    
C61   N19   T    
C5    C11   T    
C25   C27   S    
C39   C63   A    
N24   Ni4   S    
N4    N25   A    
C10   C64   S    
C52   N10   T    
C29   C31   T    
C36   C55   S    
C6    C13   T    
C30   C32   T    
C17   N21   A    
C33   C35   T    
C5    C62   S    
C18   C20   S    
C39   H9    S    
C3    C8    S    
C7    C64   S    
C40   N26   A    
N7    Ni3   S    
C20   C21   T    
C8    C10   S    
C27   C28   T    
C36   N22   A    
C59   N17   T    
C7    C54   S    
C2    C9    S    
C1    C49   A    
C37   C57   S    
C38   C62   A    
C60   N18   T    
