data_mof_unit_pretest_1086.cif
_audit_creation_date              2012-12-10T21:30:26-0500
_audit_creation_method            fapswitch 2.2
_symmetry_space_group_name_H-M    P1
_symmetry_Int_Tables_number       1
_space_group_crystal_system       triclinic
_cell_length_a                    13.244847
_cell_length_b                    16.183951
_cell_length_c                    16.408119
_cell_angle_alpha                 89.653408
_cell_angle_beta                  89.653205
_cell_angle_gamma                 105.83361
_cell_volume                      3383.5276734

loop_
_atom_site_label
_atom_site_type_symbol
_atom_type_description
_atom_site_fract_x
_atom_site_fract_y
_atom_site_fract_z
_atom_type_partial_charge
C1    C     C_R   0.502591 0.491817 0.345634 0.876021
C2    C     C_R   0.186078 0.429134 0.529574 -0.158326
C3    C     C_R   0.517698 0.497047 0.256817 -0.123531
C4    C     C_R   0.300064 0.454184 0.511945 0.930929
C5    C     C_R   0.503122 0.569861 0.216293 -0.295995
C6    C     C_R   0.525567 0.583216 0.134159 -0.203303
C7    C     C_R   0.564303 0.525120 0.090807 0.286162
C8    C     C_R   0.577280 0.451016 0.129584 -0.281784
C9    C     C_R   0.556177 0.436948 0.213475 0.463930
C10   C     C_R   0.554275 0.431359 0.860580 0.388137
C11   C     C_R   0.502174 0.438014 0.788371 0.328692
C12   C     C_R   0.029256 0.476685 0.512425 -0.095225
C13   C     C_R   0.628892 0.504193 0.889883 -0.069585
C14   C     C_R   0.532759 0.514254 0.740369 -0.400428
C15   C     C_R   0.611567 0.585677 0.768483 0.305036
C16   C     C_R   0.503555 0.509603 0.654087 1.021840
C17   C     C_R   0.664375 0.577904 0.841208 0.315802
C18   C     C_R   0.561080 0.775525 0.530359 -0.151633
C19   C     C_R   0.560955 0.862109 0.526222 -0.310294
C20   C     C_R   0.483503 0.885755 0.480511 0.276249
C21   C     C_R   0.408211 0.821148 0.440877 -0.351874
C22   C     C_R   0.412213 0.734700 0.444188 0.640737
C23   C     C_R   0.133460 0.495208 0.538042 -0.063328
C24   C     C_R   0.470937 0.142725 0.447821 0.379417
C25   C     C_R   0.466470 0.230041 0.448121 -0.050102
C26   C     C_R   0.522458 0.112021 0.511919 0.208221
C27   C     C_R   0.554313 0.252728 0.574561 0.146208
C28   C     C_R   0.700879 0.547200 0.499562 0.942156
C29   C     C_R   0.561271 0.167783 0.575283 -0.490062
C30   C     C_R   0.979275 0.691442 0.497873 0.523765
C31   C     C_R   0.815056 0.577095 0.503219 -0.253976
C32   C     C_R   0.125942 0.342258 0.520067 -0.183402
C33   C     C_R   0.020891 0.325309 0.496420 0.294556
C34   C     C_R   0.978212 0.541850 0.514203 -0.151994
C35   C     C_R   0.978218 0.394195 0.482371 0.447429
C36   C     C_3   0.597045 0.320999 0.932704 0.105207
C37   C     C_3   0.625436 0.266911 0.864740 -0.377599
C38   C     C_3   0.702187 0.218231 0.894390 -0.966306
C39   C     C_3   0.654167 0.338157 0.233609 0.088651
C40   C     C_3   0.626265 0.253661 0.186598 -0.294944
C41   C     C_3   0.724530 0.230724 0.156907 -1.002590
C42   C     C_3   0.618088 0.729266 0.760375 0.130262
C43   C     C_3   0.499771 0.721223 0.759681 -0.358842
C44   C     C_3   0.472698 0.786739 0.816081 -0.987810
C45   C     C_R   0.034267 0.629193 0.516057 -0.161633
C46   C     C_3   0.841299 0.624805 0.838577 0.105671
C47   C     C_3   0.936343 0.699186 0.859007 -0.310879
C48   C     C_3   0.038197 0.679175 0.833602 -1.003049
C49   C     C_2   0.402474 0.256993 0.384985 0.510228
C50   C     C_3   0.324670 0.051099 0.391678 0.128358
C51   C     C_3   0.287200 0.993943 0.317907 -0.294864
C52   C     C_3   0.172035 0.944169 0.326134 -0.993568
C53   C     C_3   0.171389 0.763760 0.632884 0.108834
C54   C     C_3   0.222486 0.860810 0.636950 -0.323375
C55   C     C_3   0.336650 0.881759 0.663559 -0.850827
C56   C     C_R   0.137833 0.648911 0.545999 0.391772
C57   C     C_3   0.304395 0.688028 0.330683 0.028021
C58   C     C_3   0.190612 0.692700 0.334933 -0.300955
C59   C     C_3   0.150817 0.709651 0.251187 -0.970620
C60   C     C_2   0.581541 0.299289 0.650314 0.486045
C61   C     C_3   0.980029 0.831955 0.530022 0.060235
C62   C     C_3   0.937019 0.884942 0.468323 -0.341363
C63   C     C_3   0.863035 0.929787 0.509424 -0.962752
C64   C     C_3   0.858875 0.468643 0.659506 0.136485
C65   C     C_3   0.882738 0.389724 0.697761 -0.296439
C66   C     C_3   0.906576 0.402960 0.788329 -0.999966
C67   C     C_R   0.181611 0.580672 0.566432 -0.003771
C68   C     C_2   0.169961 0.267837 0.531341 0.419813
C69   C     C_3   0.919172 0.388563 0.351415 0.115830
C70   C     C_3   0.907642 0.473051 0.315442 -0.376815
C71   C     C_3   0.943848 0.484318 0.226590 -0.972265
C72   C     C_3   0.880144 0.210800 0.529623 0.128224
C73   C     C_3   0.916380 0.173612 0.606777 -0.400313
C74   C     C_3   0.823522 0.128567 0.661089 -0.973014
C75   C     C_2   0.268262 0.598826 0.625983 0.432169
C76   C     C_3   0.326459 0.383576 0.760680 0.171911
C77   C     C_3   0.241251 0.302965 0.785921 -0.299488
C78   C     C_R   0.870991 0.520651 0.528504 0.534998
C79   C     C_3   0.132189 0.316416 0.777129 -0.935787
C80   C     C_R   0.869930 0.661900 0.483580 -0.418325
H1    H     H_    0.826698 0.705851 0.463248 0.198049
H2    H     H_    0.669312 0.368318 0.953996 0.129729
H3    H     H_    0.553061 0.220035 0.842812 0.238285
H4    H     H_    0.662869 0.309914 0.813747 0.222777
H5    H     H_    0.774872 0.263751 0.917474 0.269097
H6    H     H_    0.723449 0.181625 0.843080 0.268581
H7    H     H_    0.665811 0.172434 0.943881 0.270621
H8    H     H_    0.690019 0.327142 0.292171 0.173458
H9    H     H_    0.714773 0.388583 0.200314 0.115763
H10   H     H_    0.579991 0.201261 0.226866 0.271101
H11   H     H_    0.577058 0.258692 0.133313 0.213313
H12   H     H_    0.599755 0.403052 0.093735 0.145822
H13   H     H_    0.770282 0.281177 0.114569 0.262488
H14   H     H_    0.701585 0.168784 0.123905 0.275155
H15   H     H_    0.774418 0.224088 0.209369 0.271620
H16   H     H_    0.658976 0.789033 0.726926 0.134333
H17   H     H_    0.648347 0.738160 0.823603 0.188295
H18   H     H_    0.475770 0.731677 0.696679 0.225181
H19   H     H_    0.454181 0.656232 0.780355 0.239507
H20   H     H_    0.499951 0.779590 0.878963 0.271123
H21   H     H_    0.386265 0.775569 0.818453 0.268726
H22   H     H_    0.509938 0.852980 0.793526 0.269559
H23   H     H_    0.511609 0.638670 0.103807 0.153242
H24   H     H_    0.839882 0.616399 0.771144 0.127332
H25   H     H_    0.850211 0.565413 0.868912 0.141952
H26   H     H_    0.930278 0.758104 0.826514 0.215606
H27   H     H_    0.937808 0.711313 0.925657 0.232833
H28   H     H_    0.049412 0.624215 0.869866 0.275233
H29   H     H_    0.105736 0.736072 0.844250 0.267635
H30   H     H_    0.036210 0.662694 0.767938 0.246227
H31   H     H_    0.353318 0.297895 0.400230 0.078045
H32   H     H_    0.278889 0.099243 0.395274 0.121761
H33   H     H_    0.308378 0.011148 0.448212 0.130393
H34   H     H_    0.474630 0.617464 0.248152 0.180564
H35   H     H_    0.298028 0.034538 0.261917 0.243890
H36   H     H_    0.335185 0.947757 0.311180 0.218705
H37   H     H_    0.160080 0.901672 0.380771 0.295119
H38   H     H_    0.147554 0.903833 0.271450 0.275506
H39   H     H_    0.122645 0.989440 0.330996 0.264582
H40   H     H_    0.199571 0.730995 0.684227 0.121055
H41   H     H_    0.085208 0.752347 0.640994 0.101083
H42   H     H_    0.219058 0.890467 0.576080 0.242515
H43   H     H_    0.178416 0.890102 0.680926 0.161667
H44   H     H_    0.378739 0.840940 0.631242 0.283152
H45   H     H_    0.345948 0.838573 0.408839 0.158675
H46   H     H_    0.339769 0.871035 0.730080 0.245480
H47   H     H_    0.376408 0.950329 0.650287 0.254575
H48   H     H_    0.306968 0.634304 0.289681 0.165887
H49   H     H_    0.356805 0.746974 0.301980 0.110297
H50   H     H_    0.140125 0.630751 0.359023 0.228288
H51   H     H_    0.184047 0.744461 0.376965 0.261451
H52   H     H_    0.200082 0.771301 0.225636 0.265486
H53   H     H_    0.068623 0.713507 0.256740 0.275868
H54   H     H_    0.152688 0.656712 0.208937 0.266927
H55   H     H_    0.547595 0.269117 0.706748 0.047162
H56   H     H_    0.620230 0.909563 0.558691 0.171786
H57   H     H_    0.037568 0.877866 0.568157 0.138475
H58   H     H_    0.917424 0.797172 0.573531 0.134489
H59   H     H_    0.003268 0.934478 0.440480 0.221700
H60   H     H_    0.894636 0.843585 0.418768 0.228982
H61   H     H_    0.794272 0.881421 0.535763 0.260604
H62   H     H_    0.834932 0.969402 0.463991 0.276701
H63   H     H_    0.904293 0.972152 0.558784 0.263081
H64   H     H_    0.795306 0.485347 0.694526 0.164944
H65   H     H_    0.930134 0.524045 0.666667 0.081045
H66   H     H_    0.814916 0.332426 0.690286 0.241727
H67   H     H_    0.595404 0.143926 0.627246 0.169357
H68   H     H_    0.951583 0.377356 0.666310 0.202891
H69   H     H_    0.977233 0.457773 0.797223 0.273478
H70   H     H_    0.921379 0.344064 0.814636 0.279265
H71   H     H_    0.838906 0.415797 0.821104 0.255921
H72   H     H_    0.141912 0.210743 0.494571 0.088621
H73   H     H_    0.866090 0.334160 0.318720 0.155206
H74   H     H_    0.000461 0.383434 0.339236 0.125398
H75   H     H_    0.824334 0.474336 0.319911 0.220193
H76   H     H_    0.955907 0.528026 0.350374 0.230881
H77   H     H_    0.029372 0.490639 0.222369 0.270622
H78   H     H_    0.620472 0.757219 0.565511 0.184229
H79   H     H_    0.928749 0.543454 0.200993 0.273869
H80   H     H_    0.901127 0.428505 0.189818 0.260561
H81   H     H_    0.821958 0.158407 0.498061 0.179470
H82   H     H_    0.838158 0.259501 0.546048 0.179641
H83   H     H_    0.960472 0.126954 0.589404 0.234317
H84   H     H_    0.969648 0.226039 0.641819 0.221179
H85   H     H_    0.779778 0.174646 0.680738 0.257669
H86   H     H_    0.852474 0.102318 0.716165 0.269033
H87   H     H_    0.769711 0.074730 0.627930 0.271848
H88   H     H_    0.324355 0.661570 0.627324 0.088651
H89   H     H_    0.566549 0.278100 0.985533 0.164396
H90   H     H_    0.311675 0.400164 0.696972 0.205242
H91   H     H_    0.320462 0.436998 0.801685 0.136421
H92   H     H_    0.246853 0.248193 0.747314 0.257249
H93   H     H_    0.253187 0.286703 0.850418 0.225064
H94   H     H_    0.123811 0.368716 0.817895 0.269823
H95   H     H_    0.071646 0.256406 0.794095 0.258220
H96   H     H_    0.118983 0.333515 0.713171 0.285492
N1    N     N_2   0.571157 0.534410 0.005668 -0.139277
N2    N     N_2   0.643953 0.510282 0.974357 -0.136600
N3    N     N_R   0.487340 0.714070 0.490410 -0.132262
N4    N     N_2   0.475964 0.972057 0.473147 -0.127051
N5    N     N_2   0.534558 0.026402 0.518042 -0.170285
N6    N     N_R   0.512670 0.285920 0.509580 -0.141982
O1    O     O_R   0.504530 0.423560 0.387290 -0.598991
O2    O     O_3   0.561652 0.361905 0.252582 -0.592564
O3    O     O_3   0.642679 0.659468 0.720645 -0.624506
O4    O     O_3   0.748841 0.643495 0.866236 -0.623351
O5    O     O_2   0.401246 0.231611 0.314980 -0.539973
O6    O     O_3   0.433418 0.090826 0.381666 -0.601893
O7    O     O_3   0.196279 0.733264 0.556770 -0.610026
O8    O     O_3   0.336550 0.667959 0.408738 -0.616114
O9    O     O_2   0.645180 0.369037 0.651367 -0.566994
O10   O     O_3   0.032967 0.778085 0.489600 -0.623409
O11   O     O_3   0.824950 0.450429 0.577614 -0.571491
O12   O     O_R   0.496400 0.561030 0.381140 -0.610008
O13   O     O_2   0.233422 0.267449 0.584838 -0.602195
O14   O     O_3   0.889222 0.381481 0.434940 -0.612735
O15   O     O_3   0.965496 0.242619 0.475099 -0.656369
O16   O     O_2   0.275180 0.544696 0.676011 -0.668555
O17   O     O_3   0.425239 0.365993 0.763646 -0.617923
O18   O     O_R   0.352460 0.397130 0.504630 -0.625647
O19   O     O_R   0.344330 0.534610 0.498470 -0.579022
O20   O     O_R   0.503600 0.438970 0.618860 -0.564293
O21   O     O_R   0.495470 0.576440 0.612710 -0.594915
O22   O     O_R   0.655670 0.465390 0.501530 -0.529229
O23   O     O_R   0.647540 0.602870 0.495370 -0.633611
O24   O     O_3   0.516174 0.358021 0.908456 -0.599032
Zn1   Zn    Zn3+2 0.505430 0.408200 0.504110 1.028857
Zn2   Zn    Zn3+2 0.494570 0.591800 0.495890 0.977932

loop_
_geom_bond_atom_site_label_1
_geom_bond_atom_site_label_2
_ccdc_geom_bond_type
C48   H30   S    
C54   H43   S    
C5    H34   S    
C27   C29   A    
O1    Zn1   S    
C73   C74   S    
C30   C45   A    
C19   C20   A    
C43   H18   S    
C50   O6    S    
C57   H48   S    
C1    O1    A    
C53   H40   S    
C7    C8    A    
C20   N4    S    
C41   H15   S    
C53   C54   S    
N4    N5    D    
C71   H80   S    
C15   O3    S    
C12   C23   A    
C36   H89   S    
C56   O7    S    
C38   H6    S    
C68   H72   S    
C57   H49   S    
C36   C37   S    
C43   H19   S    
C66   H70   S    
C73   H84   S    
C27   C60   S    
C65   H66   S    
C5    C6    A    
C64   H65   S    
C11   C14   A    
C61   H58   S    
C75   O16   D    
C13   N2    S    
C46   H25   S    
C7    N1    S    
C2    C32   A    
N6    Zn1   S    
C23   C67   A    
C42   H16   S    
C72   O15   S    
C54   C55   S    
C63   H62   S    
C41   H13   S    
C41   H14   S    
C45   C56   A    
C36   H2    S    
C8    C9    A    
C61   O10   S    
C72   H81   S    
O22   Zn1   S    
C37   H4    S    
C70   C71   S    
C8    H12   S    
C30   O10   S    
C62   H59   S    
C22   O8    S    
C16   O21   A    
C17   O4    S    
C4    O18   A    
C39   O2    S    
C49   H31   S    
C30   C80   A    
C52   H37   S    
C48   H29   S    
C54   H42   S    
C21   C22   A    
C72   C73   S    
C21   H45   S    
C28   O23   A    
C79   H94   S    
C61   C62   S    
C39   H8    S    
C16   O20   A    
C74   H87   S    
C11   O17   S    
C77   C79   S    
C71   H77   S    
C59   H52   S    
C38   H5    S    
C70   H75   S    
C28   O22   A    
C79   H95   S    
C31   C80   A    
C24   C25   A    
C66   H69   S    
C42   H17   S    
C39   C40   S    
C44   H22   S    
C18   C19   A    
C64   H64   S    
C19   H56   S    
C46   H24   S    
O12   Zn2   S    
C59   H53   S    
C69   O14   S    
C51   H35   S    
C51   C52   S    
C1    C3    S    
C78   O11   S    
C76   H91   S    
C2    C4    S    
C43   C44   S    
C26   N5    S    
C77   H92   S    
C37   C38   S    
C18   H78   S    
C47   C48   S    
C49   O5    D    
C55   H46   S    
C33   O15   S    
C58   H51   S    
C47   H26   S    
C64   O11   S    
C62   C63   S    
C50   H32   S    
C50   C51   S    
C63   H61   S    
C57   C58   S    
C34   C45   A    
C36   O24   S    
C6    H23   S    
C76   C77   S    
C12   C35   A    
C76   H90   S    
C3    C9    A    
C60   H55   S    
C75   H88   S    
C35   O14   S    
C42   O3    S    
C40   C41   S    
C55   H47   S    
C18   N3    A    
N1    N2    D    
O18   Zn1   S    
C47   H27   S    
O20   Zn1   S    
C70   H76   S    
C67   C75   S    
C42   C43   S    
C12   C34   A    
C74   H86   S    
C65   H68   S    
C25   N6    A    
C31   C78   A    
C69   H73   S    
O23   Zn2   S    
C15   C17   A    
C46   C47   S    
C77   H93   S    
C79   H96   S    
C28   C31   S    
C51   H36   S    
C24   C26   A    
C80   H1    S    
C3    C5    A    
C10   C13   A    
C29   H67   S    
C44   H21   S    
C6    C7    A    
C56   C67   A    
C71   H79   S    
O21   Zn2   S    
C59   H54   S    
C69   H74   S    
C13   C17   A    
C38   H7    S    
C24   O6    S    
C50   H33   S    
C62   H60   S    
C32   C33   A    
C1    O12   A    
C58   C59   S    
C27   N6    A    
C66   H71   S    
C76   O17   S    
C9    O2    S    
C53   H41   S    
C64   C65   S    
C32   C68   S    
C44   H20   S    
C61   H57   S    
C4    O19   A    
C48   H28   S    
C58   H50   S    
C60   O9    D    
C63   H63   S    
C33   C35   A    
O19   Zn2   S    
C68   O13   D    
C14   C16   S    
C40   H11   S    
C10   O24   S    
C69   C70   S    
C25   C49   S    
C10   C11   A    
C52   H39   S    
C57   O8    S    
N3    Zn2   S    
C20   C21   A    
C46   O4    S    
C26   C29   A    
C73   H83   S    
C65   C66   S    
C55   H44   S    
C2    C23   A    
C72   H82   S    
C14   C15   A    
C37   H3    S    
C40   H10   S    
C22   N3    A    
C53   O7    S    
C39   H9    S    
C74   H85   S    
C34   C78   A    
C52   H38   S    
