data_mof_unit_pretest_694.cif
_audit_creation_date              2012-10-26T19:00:10-0400
_audit_creation_method            fapswitch 2.2
_symmetry_space_group_name_H-M    P1
_symmetry_Int_Tables_number       1
_space_group_crystal_system       triclinic
_cell_length_a                    11.006058
_cell_length_b                    10.790376
_cell_length_c                    9.636149
_cell_angle_alpha                 89.590606
_cell_angle_beta                  90.904729
_cell_angle_gamma                 92.006452
_cell_volume                      1143.51517834

loop_
_atom_site_label
_atom_site_type_symbol
_atom_type_description
_atom_site_fract_x
_atom_site_fract_y
_atom_site_fract_z
_atom_type_partial_charge
Br1   Br    Br    0.798412 0.212177 0.710960 -0.495094
Br2   Br    Br    0.186263 0.884953 0.602963 -0.461041
Br3   Br    Br    0.906720 0.720258 0.085443 -0.558150
C1    C     C_R   0.496137 0.262199 0.500310 0.567644
C2    C     C_R   0.875870 0.569796 0.983548 0.185432
C3    C     C_R   0.802664 0.470290 0.032830 -0.107681
C4    C     C_R   0.262672 0.496179 0.498387 0.540520
C5    C     C_R   0.783005 0.363877 0.952630 -0.097563
C6    C     C_R   0.828140 0.359380 0.818297 0.199892
C7    C     C_R   0.893095 0.463162 0.765117 0.034371
C8    C     C_R   0.461382 0.062533 0.623694 -0.038936
C9    C     C_R   0.484844 0.127627 0.500342 -0.018398
C10   C     C_R   0.474808 0.064292 0.374160 -0.067678
C11   C     C_R   0.451454 0.937142 0.372382 0.227626
C12   C     C_R   0.209572 0.558424 0.969575 -0.108370
C13   C     C_R   0.459834 0.868876 0.497963 0.010266
C14   C     C_R   0.449257 0.932421 0.623742 0.020165
C15   C     C_3   0.332673 0.940382 0.704711 0.390679
C16   C     C_R   0.485677 0.736290 0.499292 0.564313
C17   C     C_3   0.350658 0.080021 0.707585 -0.199311
C18   C     C_R   0.496585 0.608444 0.071896 0.105990
C19   C     C_R   0.491573 0.392456 0.074515 -0.018356
C20   C     C_R   0.491856 0.392465 0.926736 -0.023113
C21   C     C_R   0.494909 0.608176 0.925128 0.214782
C22   C     C_3   0.580898 0.716662 0.916054 0.101852
C23   C     C_R   0.933910 0.506652 0.379075 -0.119209
C24   C     C_3   0.589105 0.712760 0.073520 -0.215789
C25   C     C_R   0.737996 0.497302 0.501562 0.579924
C26   C     C_R   0.210811 0.656545 0.063409 -0.072390
C27   C     C_R   0.164922 0.638105 0.196381 -0.020744
C28   C     C_R   0.114845 0.521934 0.234624 0.070441
C29   C     C_R   0.115599 0.422971 0.141128 -0.076623
C30   C     C_R   0.164213 0.441029 0.009259 -0.124969
C31   C     C_R   0.872620 0.489490 0.503886 0.024742
C32   C     C_R   0.942701 0.466298 0.625254 0.009380
C33   C     C_R   0.068896 0.464214 0.618362 -0.122772
C34   C     C_R   0.129142 0.487966 0.494643 0.013186
C35   C     C_R   0.059975 0.504351 0.371937 -0.016283
C36   C     C_R   0.920019 0.565580 0.849726 -0.045200
Cu1   Cu    Cu3+1 0.499990 0.499980 0.640670 1.029805
Cu2   Cu    Cu3+1 0.500010 0.500020 0.359330 0.956928
H1    H     H_    0.244468 0.573625 0.866494 0.159851
H2    H     H_    0.539196 0.800339 0.872740 0.144720
H3    H     H_    0.674141 0.681134 0.120160 0.204146
H4    H     H_    0.558303 0.799013 0.118854 0.180631
H5    H     H_    0.164068 0.714909 0.268012 0.151578
H6    H     H_    0.078050 0.332531 0.170161 0.129199
H7    H     H_    0.165081 0.364455 0.937475 0.118094
H8    H     H_    0.884071 0.527880 0.286805 0.160034
H9    H     H_    0.120543 0.447452 0.712457 0.121935
H10   H     H_    0.973022 0.644204 0.809816 0.173439
H11   H     H_    0.359686 0.811273 0.270744 0.337100
H12   H     H_    0.757360 0.474886 0.130503 0.143799
H13   H     H_    0.391285 0.933134 0.899162 0.311094
H14   H     H_    0.732584 0.768242 0.834294 0.354602
H15   H     H_    0.729845 0.286120 0.993737 0.132558
H16   H     H_    0.475866 0.114120 0.276228 0.148509
H17   H     H_    0.279168 0.130449 0.649728 0.151568
H18   H     H_    0.373551 0.120107 0.810907 0.104309
H19   H     H_    0.487036 0.304535 0.128375 0.120798
H20   H     H_    0.246699 0.747014 0.033182 0.191584
H21   H     H_    0.488580 0.304724 0.873792 0.126543
N1    N     N_R   0.500790 0.500930 0.147930 -0.242797
N2    N     N_R   0.500790 0.500890 0.852020 -0.211196
O1    O     O_R   0.500000 0.319640 0.618810 -0.497714
O2    O     O_3   0.338164 0.882508 0.835780 -0.690657
O3    O     O_3   0.687902 0.688011 0.849853 -0.651304
O4    O     O_R   0.500010 0.319680 0.381230 -0.527494
O5    O     O_R   0.319640 0.499990 0.618790 -0.526498
O6    O     O_R   0.319650 0.500030 0.381210 -0.504506
O7    O     O_R   0.499990 0.680320 0.618770 -0.465375
O8    O     O_R   0.500000 0.680360 0.381190 -0.503506
O9    O     O_R   0.680350 0.499970 0.618790 -0.435715
O10   O     O_R   0.680360 0.500010 0.381210 -0.520728
O11   O     O_3   0.410494 0.886082 0.249319 -0.728871

loop_
_geom_bond_atom_site_label_1
_geom_bond_atom_site_label_2
_ccdc_geom_bond_type
C36   H10   S    
Cu1   O7    S    
Br2   C15   S    
C16   O7    A    
C32   C33   A    
C22   O3    S    
H11   O11   S    
C25   O10   A    
C22   H2    S    
C4    O6    A    
C26   C27   A    
C33   C34   A    
C19   H19   S    
C27   C28   A    
C10   H16   S    
Cu1   O9    S    
C31   C32   A    
C1    O1    A    
Cu2   O10   S    
C24   H3    S    
C23   C31   A    
C20   H21   S    
C8    C14   A    
C19   N1    A    
C5    C6    A    
C7    C32   S    
C1    C9    S    
C6    C7    A    
C24   H4    S    
C18   C24   S    
C25   C31   S    
C21   N2    A    
C10   C11   A    
C5    H15   S    
C16   O8    A    
C25   O9    A    
C12   C26   A    
Cu2   O4    S    
C26   H20   S    
C8    C17   S    
Cu1   O5    S    
Br1   C6    S    
C21   C22   S    
C23   H8    S    
C1    O4    A    
C23   C35   A    
C3    C5    A    
C7    C36   A    
C34   C35   A    
C28   C29   A    
C14   C15   S    
C4    C34   S    
C17   H18   S    
Cu2   O8    S    
Cu1   Cu2   S    
Cu1   O1    S    
C2    C36   A    
C29   H6    S    
C11   C13   A    
C22   C24   S    
Cu2   N1    S    
C3    H12   S    
C17   H17   S    
C33   H9    S    
C20   N2    A    
C27   H5    S    
C12   H1    S    
Br3   C2    S    
C4    O5    A    
H14   O3    S    
C8    C9    A    
H13   O2    S    
C15   O2    S    
Cu1   N2    S    
C28   C35   S    
C29   C30   A    
C11   O11   S    
C2    C3    A    
C13   C16   S    
C15   C17   S    
C18   N1    A    
C9    C10   A    
C18   C21   A    
C30   H7    S    
C19   C20   A    
C12   C30   A    
C13   C14   A    
Cu2   O6    S    
