data_mof_unit_pretest_1441.cif
_audit_creation_date              2012-12-10T20:25:46-0500
_audit_creation_method            fapswitch 2.2
_symmetry_space_group_name_H-M    P1
_symmetry_Int_Tables_number       1
_space_group_crystal_system       triclinic
_cell_length_a                    8.565785
_cell_length_b                    10.678742
_cell_length_c                    9.90488
_cell_angle_alpha                 88.982662
_cell_angle_beta                  96.780946
_cell_angle_gamma                 90.603388
_cell_volume                      899.505257891

loop_
_atom_site_label
_atom_site_type_symbol
_atom_type_description
_atom_site_fract_x
_atom_site_fract_y
_atom_site_fract_z
_atom_type_partial_charge
C1    C     C_R   0.503954 0.260265 0.501621 0.938493
C2    C     C_R   0.435322 0.402165 0.925123 0.100594
C3    C     C_3   0.266893 0.358202 0.912358 0.092957
C4    C     C_R   0.202422 0.496067 0.466287 0.917951
C5    C     C_3   0.281331 0.345496 0.066300 0.152546
C6    C     C_R   0.508155 0.739840 0.499980 0.897017
C7    C     C_R   0.797580 0.505267 0.532984 0.948343
C8    C     C_2   0.040675 0.473610 0.454666 0.162050
C9    C     C_2   0.958610 0.533407 0.540273 -0.094206
C10   C     C_R   0.486013 0.060777 0.619070 0.125961
C11   C     C_R   0.527310 0.129209 0.508093 -0.158798
C12   C     C_R   0.607536 0.940176 0.407690 0.374929
C13   C     C_R   0.602323 0.070125 0.408566 -0.150634
C14   C     C_R   0.531046 0.871948 0.504367 -0.197717
C15   C     C_R   0.485513 0.933547 0.615744 0.075461
C16   C     C_3   0.338895 0.921598 0.683027 -0.392858
C17   C     C_3   0.340527 0.063417 0.688554 -0.443088
C18   C     C_R   0.441789 0.399432 0.067903 0.136572
C19   C     C_R   0.574840 0.591368 0.077386 -0.043941
C20   C     C_R   0.575437 0.591272 0.933875 -0.042979
Cl1   Cl    Cl    0.970496 0.345227 0.352007 -0.563884
Cl2   Cl    Cl    0.130165 0.477784 0.856319 -0.576523
Cl3   Cl    Cl    0.287570 0.186325 0.124745 -0.541869
Cl4   Cl    Cl    0.710587 0.869939 0.286240 -0.609188
H1    H     H_    0.634396 0.666239 0.884593 0.153887
H2    H     H_    0.938076 0.675787 0.674113 0.220185
H3    H     H_    0.035937 0.713133 0.542222 0.167662
H4    H     H_    0.245221 0.269136 0.857593 0.154557
H5    H     H_    0.200546 0.404954 0.116809 0.211077
H6    H     H_    0.651690 0.124069 0.329860 0.231916
H7    H     H_    0.238214 0.883211 0.614564 0.205297
H8    H     H_    0.360247 0.875463 0.784969 0.230934
H9    H     H_    0.239514 0.108140 0.625485 0.221511
H10   H     H_    0.365961 0.097637 0.794039 0.223063
H11   H     H_    0.633724 0.665831 0.135358 0.209544
N1    N     N_R   0.498950 0.499140 0.142680 -0.125516
N2    N     N_R   0.498950 0.499180 0.857030 -0.086833
N3    N     N_3   0.020404 0.642305 0.613811 -0.388361
O1    O     O_R   0.500020 0.316790 0.614690 -0.628104
O2    O     O_R   0.500000 0.316760 0.385350 -0.578043
O3    O     O_R   0.271760 0.500010 0.587850 -0.567231
O4    O     O_R   0.271740 0.499970 0.358500 -0.612458
O5    O     O_R   0.500000 0.683240 0.614650 -0.634615
O6    O     O_R   0.499980 0.683210 0.385310 -0.583241
O7    O     O_R   0.728260 0.500030 0.641500 -0.605827
O8    O     O_R   0.728240 0.499990 0.412150 -0.580742
Zn1   Zn    Zn3+2 0.500010 0.500020 0.653130 1.012053
Zn2   Zn    Zn3+2 0.499990 0.499980 0.346870 1.042094

loop_
_geom_bond_atom_site_label_1
_geom_bond_atom_site_label_2
_ccdc_geom_bond_type
C8    C9    D    
O4    Zn2   S    
N1    Zn2   S    
C10   C15   A    
C6    C14   S    
O5    Zn1   S    
C12   Cl4   S    
C19   C20   A    
C1    C11   S    
C4    C8    S    
C10   C11   A    
C8    Cl1   S    
O3    Zn1   S    
C17   H9    S    
C6    O6    A    
C16   H7    S    
C20   N2    A    
C11   C13   A    
C2    N2    A    
C17   H10   S    
C16   C17   S    
C4    O4    A    
C7    O7    A    
C9    N3    S    
C12   C14   A    
C2    C3    S    
C5    H5    S    
C6    O5    A    
O7    Zn1   S    
O8    Zn2   S    
N2    Zn1   S    
C4    O3    A    
C1    O1    A    
C10   C17   S    
C15   C16   S    
C7    O8    A    
C13   H6    S    
C12   C13   A    
O1    Zn1   S    
C20   H1    S    
C7    C9    S    
O2    Zn2   S    
C16   H8    S    
C3    H4    S    
C3    Cl2   S    
C19   H11   S    
C5    C18   S    
H3    N3    S    
C1    O2    A    
C19   N1    A    
C14   C15   A    
C18   N1    A    
H2    N3    S    
O6    Zn2   S    
C2    C18   A    
C3    C5    S    
C5    Cl3   S    
