data_mof_unit_pretest_605.cif
_audit_creation_date              2012-10-26T19:27:15-0400
_audit_creation_method            fapswitch 2.2
_symmetry_space_group_name_H-M    P1
_symmetry_Int_Tables_number       1
_space_group_crystal_system       triclinic
_cell_length_a                    13.806078
_cell_length_b                    15.064411
_cell_length_c                    17.271303
_cell_angle_alpha                 87.623378
_cell_angle_beta                  84.257546
_cell_angle_gamma                 91.924252
_cell_volume                      3568.42015896

loop_
_atom_site_label
_atom_site_type_symbol
_atom_type_description
_atom_site_fract_x
_atom_site_fract_y
_atom_site_fract_z
_atom_type_partial_charge
C1    C     C_R   0.500961 0.671314 0.500135 0.539906
C2    C     C_R   0.581970 0.908561 0.520653 -0.006521
C3    C     C_R   0.499474 0.046326 0.502233 0.044792
C4    C     C_R   0.498693 0.953426 0.501907 0.044140
C5    C     C_R   0.583732 0.094648 0.520285 0.011862
C6    C     C_R   0.414743 0.905124 0.483231 0.012051
C7    C     C_R   0.332767 0.043658 0.466533 -0.123869
C8    C     C_R   0.665089 0.955970 0.538254 -0.122805
C9    C     C_R   0.329875 0.950358 0.466432 0.001203
C10   C     C_R   0.668362 0.049316 0.537620 -0.000044
C11   C     C_R   0.215659 0.549347 0.444514 0.022180
C12   C     C_R   0.498850 0.328654 0.500557 0.543104
C13   C     C_R   0.784831 0.456277 0.558724 0.018858
C14   C     C_R   0.196184 0.446564 0.554487 0.127685
C15   C     C_R   0.804133 0.550380 0.443286 0.142212
C16   C     C_R   0.486129 0.502319 0.649704 0.536066
C17   C     C_R   0.513871 0.497651 0.350317 0.534616
C18   C     C_R   0.093279 0.458765 0.562759 0.010309
C19   C     C_R   0.907718 0.544796 0.438984 0.004030
C20   C     C_R   0.052069 0.502485 0.501514 0.039818
C21   C     C_R   0.948766 0.501831 0.500546 0.039526
C22   C     C_R   0.113911 0.546650 0.441169 -0.021095
C23   C     C_R   0.580867 0.187547 0.520216 -0.140729
C24   C     C_R   0.886886 0.459994 0.562109 -0.022531
C25   C     C_R   0.029704 0.428929 0.628715 -0.147622
C26   C     C_R   0.971839 0.584434 0.376637 -0.150575
C27   C     C_R   0.928349 0.425932 0.627168 -0.159370
C28   C     C_R   0.072840 0.587082 0.378746 -0.157228
C29   C     C_R   0.476092 0.506878 0.734193 0.022287
C30   C     C_R   0.523942 0.492474 0.265909 0.023897
C31   C     C_R   0.531065 0.570202 0.771813 -0.012312
C32   C     C_R   0.469959 0.428024 0.228727 -0.011515
C33   C     C_R   0.523941 0.565358 0.853599 -0.086774
C34   C     C_R   0.418280 0.812343 0.481882 -0.141366
C35   C     C_R   0.477358 0.431882 0.146923 -0.086961
C36   C     C_R   0.463441 0.500196 0.896537 0.026006
C37   C     C_R   0.537384 0.497081 0.103606 0.025989
C38   C     C_R   0.404615 0.442888 0.858343 -0.121435
C39   C     C_R   0.595206 0.555639 0.141446 -0.121090
C40   C     C_R   0.411106 0.445996 0.777590 -0.140369
C41   C     C_R   0.588239 0.553616 0.222180 -0.141851
C42   C     C_2   0.460803 0.490405 0.981614 -0.140892
C43   C     C_2   0.540283 0.505949 0.018504 -0.141175
C44   C     C_3   0.594225 0.642060 0.723828 -0.243555
C45   C     C_R   0.497930 0.231739 0.501709 -0.014004
C46   C     C_3   0.635148 0.717391 0.770022 -0.316558
C47   C     C_3   0.686568 0.790633 0.715663 -0.458801
C48   C     C_3   0.407543 0.356108 0.277244 -0.243475
C49   C     C_3   0.368017 0.279511 0.231755 -0.317143
C50   C     C_3   0.317365 0.206486 0.286788 -0.458020
C51   C     C_3   0.237977 0.360519 0.585456 -0.220711
C52   C     C_3   0.174881 0.290426 0.637197 -0.360395
C53   C     C_3   0.226264 0.202359 0.642480 -0.461134
C54   C     C_3   0.764561 0.620493 0.389616 -0.215899
C55   C     C_3   0.795418 0.715528 0.409484 -0.320755
C56   C     C_R   0.501079 0.768136 0.500698 -0.017027
C57   C     C_3   0.748912 0.785406 0.359969 -0.461271
C58   C     C_3   0.237823 0.898217 0.449627 -0.255599
C59   C     C_3   0.148122 0.953006 0.437219 -0.302991
C60   C     C_3   0.060339 0.892777 0.424633 -0.455870
C61   C     C_3   0.760530 0.101365 0.554316 -0.255877
C62   C     C_3   0.849558 0.046313 0.568323 -0.303373
C63   C     C_3   0.937405 0.106331 0.581182 -0.455792
C64   C     C_R   0.416137 0.183580 0.483335 -0.158191
C65   C     C_R   0.581623 0.816137 0.521439 -0.156258
C66   C     C_R   0.415929 0.091142 0.484004 -0.006684
Cu1   Cu    Cu3+1 0.402580 0.500010 0.500000 0.900798
Cu2   Cu    Cu3+1 0.597420 0.499990 0.500000 0.904811
H1    H     H_    0.262918 0.587415 0.400499 0.123567
H2    H     H_    0.643088 0.605177 0.108490 0.101283
H3    H     H_    0.437116 0.384437 0.116201 0.099643
H4    H     H_    0.564776 0.612057 0.884599 0.099470
H5    H     H_    0.352922 0.218060 0.467499 0.108226
H6    H     H_    0.643803 0.781459 0.538821 0.116552
H7    H     H_    0.270430 0.080813 0.453160 0.096869
H8    H     H_    0.727273 0.918723 0.551856 0.099306
H9    H     H_    0.744467 0.762745 0.675407 0.146377
H10   H     H_    0.633200 0.823798 0.681341 0.160531
H11   H     H_    0.720446 0.841247 0.750509 0.141769
H12   H     H_    0.737915 0.421093 0.604746 0.123932
H13   H     H_    0.574988 0.747234 0.806680 0.164681
H14   H     H_    0.688626 0.690493 0.808053 0.153881
H15   H     H_    0.656598 0.610200 0.691680 0.169609
H16   H     H_    0.549515 0.672591 0.680408 0.155921
H17   H     H_    0.370882 0.174975 0.322047 0.162126
H18   H     H_    0.258459 0.234196 0.326192 0.146443
H19   H     H_    0.284908 0.154579 0.252419 0.141908
H20   H     H_    0.314375 0.305059 0.193232 0.154137
H21   H     H_    0.428844 0.249904 0.195659 0.164634
H22   H     H_    0.452439 0.326821 0.321130 0.156219
H23   H     H_    0.056970 0.409989 0.682924 0.111505
H24   H     H_    0.344568 0.387673 0.308858 0.169376
H25   H     H_    0.232907 0.171590 0.585001 0.152154
H26   H     H_    0.299904 0.212867 0.662017 0.159734
H27   H     H_    0.182886 0.155663 0.684980 0.145801
H28   H     H_    0.162825 0.313325 0.697518 0.152936
H29   H     H_    0.104774 0.276306 0.612880 0.173680
H30   H     H_    0.259508 0.324991 0.532059 0.170831
H31   H     H_    0.301883 0.376044 0.616539 0.191794
H32   H     H_    0.774640 0.779502 0.297443 0.145259
H33   H     H_    0.668275 0.777013 0.367823 0.162325
H34   H     H_    0.945469 0.615142 0.325622 0.110193
H35   H     H_    0.769704 0.852883 0.377726 0.149007
H36   H     H_    0.773576 0.725170 0.471977 0.164177
H37   H     H_    0.875436 0.727279 0.400051 0.158227
H38   H     H_    0.787746 0.607948 0.327778 0.098221
H39   H     H_    0.686107 0.619294 0.392710 0.219430
H40   H     H_    0.608527 0.529136 0.986082 0.114651
H41   H     H_    0.392594 0.467173 0.014078 0.115059
H42   H     H_    0.642918 0.226683 0.534882 0.122715
H43   H     H_    0.356866 0.773333 0.465875 0.122218
H44   H     H_    0.076906 0.852523 0.372818 0.150709
H45   H     H_    0.882391 0.398833 0.677733 0.101910
H46   H     H_    0.040283 0.847539 0.476626 0.151731
H47   H     H_    0.997121 0.934029 0.414938 0.136803
H48   H     H_    0.128675 0.992330 0.489219 0.157184
H49   H     H_    0.164310 0.998902 0.385096 0.156759
H50   H     H_    0.255501 0.860139 0.396570 0.136037
H51   H     H_    0.216945 0.850172 0.499632 0.146524
H52   H     H_    0.958444 0.150901 0.528915 0.151588
H53   H     H_    0.920382 0.147273 0.632487 0.150906
H54   H     H_    0.000154 0.064893 0.591882 0.137912
H55   H     H_    0.832272 0.001158 0.620813 0.156857
H56   H     H_    0.118896 0.620141 0.330907 0.100828
H57   H     H_    0.869556 0.006182 0.516938 0.156672
H58   H     H_    0.782300 0.148395 0.503743 0.145786
H59   H     H_    0.742568 0.140558 0.606659 0.137281
H60   H     H_    0.630729 0.601886 0.250684 0.098279
H61   H     H_    0.367701 0.398703 0.748790 0.102084
H62   H     H_    0.356226 0.393508 0.890999 0.101677
N1    N     N_R   0.256180 0.500070 0.500030 -0.241615
N2    N     N_R   0.743820 0.499930 0.499970 -0.236654
O1    O     O_R   0.417720 0.629750 0.499980 -0.498310
O2    O     O_R   0.582280 0.370250 0.500020 -0.496483
O3    O     O_R   0.582260 0.629730 0.499990 -0.525254
O4    O     O_R   0.417740 0.370270 0.500010 -0.534188
O5    O     O_R   0.408190 0.500030 0.613590 -0.508983
O6    O     O_R   0.591810 0.499970 0.386410 -0.519706
O7    O     O_R   0.572730 0.500000 0.613600 -0.516622
O8    O     O_R   0.427270 0.500000 0.386400 -0.514728

loop_
_geom_bond_atom_site_label_1
_geom_bond_atom_site_label_2
_ccdc_geom_bond_type
C38   C40   A    
C40   H61   S    
C34   C56   A    
C23   C45   A    
C53   H27   S    
C14   C18   A    
C60   H46   S    
C16   O5    A    
C41   H60   S    
C24   C27   A    
C47   H11   S    
C44   H15   S    
C6    C9    A    
C39   C41   A    
C15   C19   A    
C60   H47   S    
C54   H39   S    
C55   H37   S    
C38   H62   S    
Cu1   O1    S    
C1    C56   S    
C56   C65   A    
C52   H29   S    
C58   H50   S    
C33   C36   A    
C9    C58   S    
C46   C47   S    
Cu2   N2    S    
C19   C26   A    
C50   H17   S    
C46   H14   S    
Cu2   O6    S    
C13   N2    A    
C15   N2    A    
C59   H48   S    
C64   H5    S    
C31   C33   A    
C30   C41   A    
C61   H58   S    
C33   H4    S    
C2    C65   A    
C51   H30   S    
C13   H12   S    
C35   H3    S    
C59   C60   S    
C59   H49   S    
C48   H22   S    
C17   C30   S    
C32   C48   S    
C49   H20   S    
C18   C25   A    
C1    O1    A    
C22   C28   A    
C62   H55   S    
C63   H53   S    
C44   C46   S    
C14   N1    A    
C51   H31   S    
C57   H35   S    
C2    C8    A    
C25   H23   S    
C31   C44   S    
C54   H38   S    
C53   H25   S    
Cu1   Cu2   S    
C32   C35   A    
C4    C6    A    
C7    H7    S    
C44   H16   S    
C16   C29   S    
C57   H32   S    
C55   H36   S    
C65   H6    S    
C51   C52   S    
C13   C24   A    
C64   C66   A    
C37   C43   S    
C2    C4    A    
C15   C54   S    
C62   C63   S    
C60   H44   S    
C46   H13   S    
C14   C51   S    
C5    C23   A    
C11   H1    S    
C61   H59   S    
Cu1   O8    S    
C17   O6    A    
C50   H19   S    
C27   H45   S    
C8    C10   A    
C48   C49   S    
C20   C22   A    
C55   C57   S    
C8    H8    S    
C48   H24   S    
C10   C61   S    
C42   C43   D    
C47   H9    S    
C3    C4    A    
C63   H54   S    
C52   C53   S    
C34   H43   S    
C7    C9    A    
C23   H42   S    
C54   C55   S    
C45   C64   A    
C35   C37   A    
C53   H26   S    
C42   H41   S    
Cu2   O3    S    
Cu1   N1    S    
C49   H21   S    
C12   C45   S    
C3    C5    A    
C11   N1    A    
C36   C42   S    
C62   H57   S    
C28   H56   S    
C25   C27   A    
C57   H33   S    
C11   C22   A    
C26   C28   A    
Cu2   O2    S    
Cu1   O4    S    
C58   C59   S    
C5    C10   A    
C29   C31   A    
C26   H34   S    
C7    C66   A    
C30   C32   A    
C63   H52   S    
C29   C40   A    
C36   C38   A    
C58   H51   S    
C39   H2    S    
C52   H28   S    
C17   O8    A    
C18   C20   A    
C43   H40   S    
C61   C62   S    
Cu1   O5    S    
C50   H18   S    
C3    C66   A    
C6    C34   A    
C20   C21   A    
C37   C39   A    
C49   C50   S    
C12   O4    A    
C21   C24   A    
C16   O7    A    
Cu2   O7    S    
C12   O2    A    
C47   H10   S    
C1    O3    A    
C19   C21   A    
