data_mof_unit_pretest_1425.cif
_audit_creation_date              2012-12-10T18:50:52-0500
_audit_creation_method            fapswitch 2.2
_symmetry_space_group_name_H-M    P1
_symmetry_Int_Tables_number       1
_space_group_crystal_system       triclinic
_cell_length_a                    10.551472
_cell_length_b                    9.813417
_cell_length_c                    15.706275
_cell_angle_alpha                 90.611214
_cell_angle_beta                  89.883094
_cell_angle_gamma                 90.195974
_cell_volume                      1626.21655301

loop_
_atom_site_label
_atom_site_type_symbol
_atom_type_description
_atom_site_fract_x
_atom_site_fract_y
_atom_site_fract_z
_atom_type_partial_charge
C1    C     C_R   0.258364 0.499849 0.502648 0.892603
C2    C     C_R   0.935748 0.626510 0.552499 0.168476
C3    C     C_R   0.868132 0.501686 0.545502 -0.129494
C4    C     C_R   0.124829 0.500083 0.519471 -0.113631
C5    C     C_R   0.545728 0.073253 0.568166 -0.083948
C6    C     C_R   0.545441 0.929333 0.568212 -0.088099
C7    C     C_R   0.500831 0.499197 0.338056 0.926339
C8    C     C_R   0.453522 0.926715 0.432007 -0.077846
C9    C     C_R   0.453509 0.070713 0.432011 -0.077716
C10   C     C_R   0.736553 0.500659 0.518285 0.862386
C11   C     C_R   0.500164 0.500675 0.661854 0.880336
C12   C     C_3   0.663256 0.412344 0.947168 0.254701
C13   C     C_3   0.510889 0.634694 0.050087 -0.557189
C14   C     C_3   0.425106 0.397522 0.046467 -0.525430
C15   C     C_3   0.410725 0.418975 0.950219 0.317675
C16   C     C_3   0.526193 0.639610 0.952092 0.287587
C17   C     C_1   0.511044 0.501557 0.750313 -0.204263
C18   C     C_3   0.535580 0.487111 0.082481 0.157936
C19   C     C_3   0.534654 0.489857 0.916522 0.067563
C20   C     C_3   0.252467 0.266559 0.906719 -0.343692
C21   C     C_3   0.602709 0.857418 0.922258 -0.348494
C22   C     C_3   0.771367 0.552447 0.080483 -0.381791
C23   C     C_3   0.673071 0.434740 0.051563 0.262682
C24   C     C_3   0.915392 0.525118 0.083795 -0.942222
C25   C     C_3   0.719205 0.304583 0.103739 -0.354228
C26   C     C_3   0.629425 0.188744 0.130384 -0.961211
C27   C     C_3   0.783252 0.470909 0.897428 -0.248360
C28   C     C_3   0.903725 0.382416 0.896627 -0.981816
C29   C     C_3   0.654430 0.254996 0.921884 -0.289896
C30   C     C_3   0.642803 0.217072 0.826413 -0.856882
C31   C     C_3   0.872336 0.245309 0.582797 -0.374395
C32   C     C_3   0.947601 0.176984 0.653678 -0.933490
C33   C     C_3   0.878173 0.760633 0.582842 -0.395635
C34   C     C_1   0.522773 0.497817 0.825177 0.009252
C35   C     C_3   0.821754 0.747052 0.672064 -0.848704
C36   C     C_1   0.522992 0.491872 0.174180 -0.034373
C37   C     C_1   0.511541 0.496422 0.249267 -0.222891
C38   C     C_R   0.061577 0.376789 0.531870 -0.194625
C39   C     C_R   0.064381 0.623857 0.535887 -0.241620
C40   C     C_R   0.934042 0.376809 0.552578 0.149833
H1    H     H_    0.437727 0.686076 0.925830 0.082904
H2    H     H_    0.117490 0.718599 0.536277 0.162315
H3    H     H_    0.582055 0.128566 0.622826 0.129742
H4    H     H_    0.581017 0.875922 0.622918 0.141698
H5    H     H_    0.202343 0.338617 0.864412 0.172423
H6    H     H_    0.211470 0.270383 0.972023 0.161790
H7    H     H_    0.237168 0.162197 0.880862 0.194475
H8    H     H_    0.554682 0.895938 0.980820 0.164671
H9    H     H_    0.542810 0.876085 0.865435 0.180414
H10   H     H_    0.691959 0.916091 0.914815 0.191457
H11   H     H_    0.941093 0.421032 0.103410 0.251328
H12   H     H_    0.330485 0.491785 0.940714 0.070688
H13   H     H_    0.962355 0.549831 0.022894 0.272316
H14   H     H_    0.958827 0.595599 0.131374 0.248033
H15   H     H_    0.760354 0.647171 0.044437 0.248188
H16   H     H_    0.747286 0.583406 0.146822 0.199596
H17   H     H_    0.551035 0.225542 0.171422 0.274621
H18   H     H_    0.592801 0.127252 0.076742 0.241147
H19   H     H_    0.683982 0.116390 0.169914 0.253677
H20   H     H_    0.801539 0.256889 0.071689 0.190714
H21   H     H_    0.756756 0.340985 0.166184 0.227948
H22   H     H_    0.923130 0.337239 0.959341 0.269317
H23   H     H_    0.416030 0.871208 0.377760 0.131107
H24   H     H_    0.896596 0.298078 0.849495 0.268645
H25   H     H_    0.986376 0.445788 0.877884 0.242914
H26   H     H_    0.760493 0.487924 0.829585 0.198829
H27   H     H_    0.810912 0.573492 0.919234 0.240457
H28   H     H_    0.544249 0.226393 0.803423 0.304005
H29   H     H_    0.704959 0.278200 0.784786 0.252656
H30   H     H_    0.669666 0.108757 0.816820 0.214905
H31   H     H_    0.738712 0.199869 0.944857 0.192039
H32   H     H_    0.574734 0.205272 0.953889 0.235365
H33   H     H_    0.035908 0.130660 0.628294 0.260510
H34   H     H_    0.416115 0.124214 0.377767 0.128938
H35   H     H_    0.971799 0.252314 0.704385 0.270932
H36   H     H_    0.889644 0.094426 0.682175 0.250996
H37   H     H_    0.777690 0.266058 0.610737 0.220520
H38   H     H_    0.861530 0.173129 0.528284 0.212380
H39   H     H_    0.741483 0.673859 0.671876 0.259604
H40   H     H_    0.895089 0.711129 0.717178 0.258697
H41   H     H_    0.786819 0.847674 0.694766 0.234081
H42   H     H_    0.951914 0.841729 0.586587 0.193672
H43   H     H_    0.807185 0.800344 0.537771 0.231702
H44   H     H_    0.412033 0.664918 0.066654 0.157618
H45   H     H_    0.334020 0.426261 0.077823 0.158381
H46   H     H_    0.436794 0.288341 0.059255 0.221412
H47   H     H_    0.570643 0.712554 0.082683 0.198998
H48   H     H_    0.111940 0.280987 0.527672 0.172054
N1    N     N_R   0.499970 0.857200 0.499980 -0.078189
N2    N     N_R   0.499970 0.142800 0.499980 -0.076813
O1    O     O_R   0.316750 0.614620 0.499990 -0.619257
O2    O     O_3   0.633209 0.717843 0.927732 -0.624118
O3    O     O_R   0.316750 0.385380 0.499990 -0.621046
O4    O     O_R   0.499990 0.614720 0.377140 -0.616102
O5    O     O_R   0.499990 0.385280 0.377140 -0.612663
O6    O     O_R   0.683220 0.614710 0.500000 -0.609653
O7    O     O_R   0.683220 0.385290 0.500000 -0.625812
O8    O     O_R   0.499980 0.614620 0.622860 -0.626410
O9    O     O_R   0.499980 0.385380 0.622860 -0.625116
O10   O     O_3   0.383829 0.294256 0.907097 -0.602742
Zn1   Zn    Zn3+2 0.499980 0.653120 0.500000 0.937162
Zn2   Zn    Zn3+2 0.499980 0.346880 0.500000 0.934450

loop_
_geom_bond_atom_site_label_1
_geom_bond_atom_site_label_2
_ccdc_geom_bond_type
C12   C29   S    
C14   C18   S    
C15   O10   S    
C32   H35   S    
C21   H9    S    
C35   H41   S    
C15   C19   S    
C13   H44   S    
C13   C18   S    
C11   O8    A    
C36   C37   T    
C5    C6    A    
C24   H14   S    
C35   H40   S    
C31   C40   S    
C11   O9    A    
N2    Zn2   S    
C2    C39   A    
O4    Zn1   S    
C8    C9    A    
C25   H20   S    
C26   H19   S    
O7    Zn2   S    
O5    Zn2   S    
C29   H32   S    
C24   H11   S    
C5    H3    S    
C1    O1    A    
C6    H4    S    
O6    Zn1   S    
O1    Zn1   S    
C21   H10   S    
C30   H30   S    
C31   H37   S    
C39   H2    S    
C12   C27   S    
C18   C23   S    
C14   H46   S    
C32   H33   S    
C12   C23   S    
C24   H13   S    
C38   H48   S    
O3    Zn2   S    
C10   O7    A    
C29   C30   S    
C33   H43   S    
C31   C32   S    
C20   O10   S    
C4    C39   A    
C10   O6    A    
C13   H47   S    
C7    C37   S    
C25   H21   S    
C15   H12   S    
C26   H18   S    
C28   H24   S    
C2    C33   S    
C4    C38   A    
C3    C40   A    
C16   O2    S    
C22   C24   S    
C17   C34   T    
C5    N2    A    
O8    Zn1   S    
C30   H29   S    
C31   H38   S    
C33   H42   S    
C7    O4    A    
C11   C17   S    
N1    Zn1   S    
C14   C15   S    
C20   H5    S    
C14   H45   S    
C19   C34   S    
C9    N2    A    
C32   H36   S    
C22   H16   S    
C22   H15   S    
C6    N1    A    
C7    O5    A    
C1    C4    S    
C21   H8    S    
C2    C3    A    
C25   C26   S    
C3    C10   S    
C38   C40   A    
C16   C19   S    
C12   C19   S    
C35   H39   S    
C33   C35   S    
C28   H25   S    
C23   C25   S    
C26   H17   S    
C30   H28   S    
C20   H7    S    
C27   H27   S    
C8    H23   S    
O9    Zn2   S    
C1    O3    A    
C9    H34   S    
C13   C16   S    
C27   C28   S    
C27   H26   S    
C22   C23   S    
C8    N1    A    
C18   C36   S    
C16   H1    S    
C20   H6    S    
C29   H31   S    
C21   O2    S    
C28   H22   S    
