data_mof_unit_pretest_1134.cif
_audit_creation_date              2012-12-11T15:45:00-0500
_audit_creation_method            fapswitch 2.2
_symmetry_space_group_name_H-M    P1
_symmetry_Int_Tables_number       1
_space_group_crystal_system       triclinic
_cell_length_a                    19.252882
_cell_length_b                    10.992042
_cell_length_c                    18.749939
_cell_angle_alpha                 89.939722
_cell_angle_beta                  89.969462
_cell_angle_gamma                 89.564517
_cell_volume                      3967.90387544

loop_
_atom_site_label
_atom_site_type_symbol
_atom_type_description
_atom_site_fract_x
_atom_site_fract_y
_atom_site_fract_z
_atom_type_partial_charge
C1    C     C_R   0.763336 0.524408 0.643003 0.538359
C2    C     C_R   0.195711 0.144904 0.557179 -0.078598
C3    C     C_R   0.520038 0.947532 0.958179 0.032856
C4    C     C_R   0.001139 0.232434 0.964460 -0.176765
C5    C     C_R   0.004370 0.228163 0.038965 -0.167017
C6    C     C_R   0.511117 0.728870 0.958214 -0.170271
C7    C     C_R   0.514156 0.729253 0.032962 -0.167673
C8    C     C_3   0.976285 0.570031 0.050613 -0.272990
C9    C     C_3   0.979931 0.571560 0.969885 -0.266688
C10   C     C_3   0.485325 0.066064 0.038575 -0.281903
C11   C     C_3   0.484882 0.070091 0.958027 -0.269186
C12   C     C_R   0.772326 0.488022 0.859587 0.561201
C13   C     C_R   0.320240 0.582453 0.450481 -0.091249
C14   C     C_R   0.226538 0.483198 0.140415 0.569729
C15   C     C_R   0.272277 0.988541 0.859657 0.560575
C16   C     C_R   0.726729 0.984235 0.140355 0.568431
C17   C     C_R   0.772017 0.122765 0.851974 0.576012
C18   C     C_R   0.227860 0.124910 0.147680 0.586152
C19   C     C_R   0.272203 0.622986 0.852094 0.576074
C20   C     C_R   0.727661 0.625190 0.147534 0.585401
C21   C     C_R   0.968004 0.347071 0.854998 0.561733
C22   C     C_R   0.028763 0.346502 0.147403 0.552155
C23   C     C_R   0.471021 0.846670 0.852807 0.560614
C24   C     C_R   0.695725 0.644929 0.557181 -0.078621
C25   C     C_R   0.531929 0.846924 0.145138 0.549263
C26   C     C_R   0.751341 0.078272 0.425624 0.097243
C27   C     C_R   0.253146 0.071735 0.572053 0.016421
C28   C     C_R   0.251343 0.578272 0.425623 0.097309
C29   C     C_R   0.753149 0.571728 0.572051 0.016507
C30   C     C_R   0.697905 0.113255 0.470825 -0.005670
C31   C     C_R   0.294815 0.030574 0.515861 -0.038022
C32   C     C_R   0.197906 0.613268 0.470819 -0.005573
C33   C     C_R   0.794812 0.530556 0.515855 -0.038019
C34   C     C_R   0.711564 0.144977 0.540272 0.010631
C35   C     C_3   0.635575 0.043618 0.492245 -0.238792
C36   C     C_R   0.283020 0.069469 0.446528 0.031620
C37   C     C_R   0.211566 0.644985 0.540268 0.010596
C38   C     C_R   0.783018 0.569457 0.446523 0.031629
C39   C     C_3   0.305301 0.902445 0.490177 -0.256526
C40   C     C_3   0.135573 0.543634 0.492231 -0.238732
C41   C     C_3   0.805293 0.402428 0.490165 -0.256551
C42   C     C_3   0.650371 0.079733 0.569164 0.165633
C43   C     C_3   0.305061 0.950180 0.414646 0.160399
C44   C     C_3   0.150376 0.579722 0.569152 0.165490
C45   C     C_R   0.236715 0.523713 0.357346 0.601689
C46   C     C_3   0.805059 0.450172 0.414635 0.160294
C47   C     C_R   0.779043 0.144579 0.566078 0.039995
C48   C     C_R   0.224848 0.140877 0.432012 0.042783
C49   C     C_R   0.279045 0.644585 0.566076 0.039964
C50   C     C_R   0.724850 0.640876 0.432011 0.042722
C51   C     C_R   0.989557 0.340398 0.419704 -0.030009
C52   C     C_R   0.989966 0.349537 0.569353 0.033041
C53   C     C_R   0.489564 0.840396 0.419710 -0.030220
C54   C     C_R   0.489974 0.849537 0.569358 0.033325
C55   C     C_R   0.996388 0.115136 0.426981 -0.089599
C56   C     C_R   0.263334 0.024414 0.643005 0.538696
C57   C     C_R   0.023179 0.131571 0.571953 -0.097586
C58   C     C_R   0.496401 0.615133 0.426992 -0.089659
C59   C     C_R   0.523193 0.631578 0.571963 -0.097515
C60   C     C_R   0.014648 0.011196 0.465350 -0.112374
C61   C     C_R   0.029998 0.020037 0.537411 -0.127931
C62   C     C_R   0.514664 0.511196 0.465363 -0.112392
C63   C     C_R   0.530014 0.520042 0.537424 -0.127908
C64   C     C_R   0.002228 0.237735 0.534344 -0.015655
C65   C     C_R   0.994802 0.231256 0.459785 -0.020100
C66   C     C_R   0.502239 0.737738 0.534351 -0.015538
C67   C     C_R   0.736714 0.023713 0.357346 0.601567
C68   C     C_R   0.494814 0.731255 0.459793 -0.020231
C69   C     C_R   0.982066 0.460566 0.528775 0.010596
C70   C     C_R   0.975712 0.453376 0.454335 -0.024759
C71   C     C_R   0.482073 0.960566 0.528781 0.010687
C72   C     C_R   0.475718 0.953375 0.454342 -0.024923
C73   C     C_R   0.791666 0.171043 0.639495 0.581635
C74   C     C_R   0.208524 0.171103 0.360362 0.568945
C75   C     C_R   0.291667 0.671045 0.639494 0.581666
C76   C     C_R   0.708524 0.671103 0.360362 0.568844
C77   C     C_R   0.981538 0.580482 0.559167 -0.075362
C78   C     C_R   0.833840 0.114462 0.520606 -0.158873
C79   C     C_R   0.958393 0.561852 0.415474 -0.098858
C80   C     C_R   0.481546 0.080482 0.559174 -0.075241
C81   C     C_R   0.458398 0.061852 0.415482 -0.098922
C82   C     C_R   0.963204 0.683386 0.520295 -0.141555
C83   C     C_R   0.949874 0.673506 0.448535 -0.127538
C84   C     C_R   0.463212 0.183387 0.520303 -0.141546
C85   C     C_R   0.449881 0.173506 0.448544 -0.127545
C86   C     C_R   0.731660 0.007397 0.063565 0.012987
C87   C     C_R   0.265885 0.020033 0.934651 0.016788
C88   C     C_R   0.231456 0.504479 0.063296 0.013868
C89   C     C_R   0.182054 0.181569 0.487382 -0.117555
C90   C     C_R   0.765490 0.519577 0.934405 0.020692
C91   C     C_R   0.788735 0.962245 0.025906 0.010001
C92   C     C_R   0.226656 0.945603 0.979131 0.011406
C93   C     C_R   0.289852 0.462897 0.026297 0.013492
C94   C     C_R   0.725641 0.445880 0.978786 0.012731
C95   C     C_R   0.797385 0.987860 0.954561 0.030104
C96   C     C_R   0.220056 0.970605 0.051088 0.045994
C97   C     C_R   0.299113 0.490731 0.955303 0.033383
C98   C     C_R   0.718762 0.471722 0.050715 0.048239
C99   C     C_R   0.686108 0.087691 0.951010 -0.152475
C100  C     C_R   0.333842 0.614466 0.520605 -0.158827
C101  C     C_R   0.297992 0.139870 0.037998 -0.179469
C102  C     C_R   0.186088 0.583568 0.950270 -0.157864
C103  C     C_R   0.795788 0.642056 0.036931 -0.174102
C104  C     C_R   0.677929 0.063837 0.024407 -0.155446
C105  C     C_R   0.303412 0.115856 0.965115 -0.166465
C106  C     C_R   0.177169 0.557319 0.023287 -0.160547
C107  C     C_R   0.801812 0.616913 0.964331 -0.150880
C108  C     C_3   0.864595 0.975044 0.041357 -0.269059
C109  C     C_3   0.151849 0.912538 0.972466 -0.272177
C110  C     C_3   0.365186 0.479562 0.042994 -0.270347
C111  C     C_R   0.682066 0.681588 0.487384 -0.117616
C112  C     C_3   0.650310 0.416369 0.971686 -0.273589
C113  C     C_3   0.874209 0.000869 0.962919 -0.269562
C114  C     C_3   0.145326 0.934153 0.051636 -0.262187
C115  C     C_3   0.375300 0.509693 0.965159 -0.271774
C116  C     C_3   0.643452 0.438918 0.050638 -0.263607
C117  C     C_R   0.749641 0.061551 0.917589 0.028993
C118  C     C_R   0.252168 0.072741 0.080781 0.025199
C119  C     C_R   0.250422 0.561633 0.917808 0.030096
C120  C     C_R   0.751219 0.573698 0.080233 0.026915
C121  C     C_R   0.968046 0.348184 0.644812 0.588043
C122  C     C_R   0.820237 0.082457 0.450480 -0.091293
C123  C     C_R   0.025778 0.346251 0.350660 0.535501
C124  C     C_R   0.468049 0.848184 0.644814 0.587426
C125  C     C_R   0.525780 0.846251 0.350662 0.536370
C126  C     C_R   0.993355 0.334770 0.079533 0.026573
C127  C     C_R   0.984508 0.342231 0.930314 0.021750
C128  C     C_R   0.514576 0.840457 0.070175 0.023570
C129  C     C_R   0.506466 0.839833 0.920952 0.029086
C130  C     C_R   0.963787 0.435782 0.045587 0.030817
C131  C     C_R   0.962062 0.439797 0.972481 0.036532
C132  C     C_R   0.521800 0.946909 0.031017 0.025710
Cr1   Cr    Cr6+3 0.885860 0.491680 0.749630 1.017432
Cr2   Cr    Cr6+3 0.112430 0.179310 0.249850 1.028898
Cr3   Cr    Cr6+3 0.387570 0.679310 0.750150 1.012632
Cr4   Cr    Cr6+3 0.612430 0.679310 0.249850 1.029711
Cr5   Cr    Cr6+3 0.114140 0.491680 0.250370 1.009713
Cr6   Cr    Cr6+3 0.385860 0.991680 0.749630 1.013904
Cr7   Cr    Cr6+3 0.614140 0.991680 0.250370 1.012895
Cr8   Cr    Cr6+3 0.730490 0.332970 0.748720 1.028732
Cr9   Cr    Cr6+3 0.269510 0.332970 0.251280 1.017637
Cr10  Cr    Cr6+3 0.230490 0.832970 0.748720 1.029560
Cr11  Cr    Cr6+3 0.769510 0.832970 0.251280 1.017186
Cr12  Cr    Cr6+3 0.887570 0.179310 0.750150 1.013558
H1    H     H_    0.886158 0.110385 0.540440 0.144296
H2    H     H_    0.324515 0.218021 0.059210 0.134490
H3    H     H_    0.145377 0.628837 0.920683 0.116887
H4    H     H_    0.820808 0.721858 0.057657 0.128402
H5    H     H_    0.631940 0.095889 0.051300 0.134875
H6    H     H_    0.333810 0.176534 0.932256 0.136351
H7    H     H_    0.130411 0.585852 0.049363 0.122901
H8    H     H_    0.830743 0.678698 0.930919 0.134169
H9    H     H_    0.889933 0.888863 0.058539 0.124378
H10   H     H_    0.144070 0.816904 0.957566 0.135516
H11   H     H_    0.391639 0.393732 0.059105 0.126938
H12   H     H_    0.136896 0.236863 0.476054 0.122390
H13   H     H_    0.640929 0.321113 0.957021 0.131850
H14   H     H_    0.876180 0.054998 0.075565 0.167062
H15   H     H_    0.121574 0.979147 0.940054 0.150181
H16   H     H_    0.374926 0.558452 0.078645 0.165195
H17   H     H_    0.621288 0.484101 0.938866 0.152747
H18   H     H_    0.891303 0.095076 0.952332 0.163647
H19   H     H_    0.109009 0.009580 0.064102 0.147552
H20   H     H_    0.389688 0.606041 0.956431 0.155495
H21   H     H_    0.608216 0.516343 0.062529 0.151689
H22   H     H_    0.903649 0.928341 0.934411 0.133849
H23   H     H_    0.386161 0.610389 0.540440 0.144329
H24   H     H_    0.136820 0.849247 0.082635 0.148143
H25   H     H_    0.407194 0.441116 0.936077 0.135878
H26   H     H_    0.633303 0.354775 0.081809 0.145524
H27   H     H_    0.012935 0.151333 0.933848 0.123556
H28   H     H_    0.021740 0.144937 0.064012 0.128366
H29   H     H_    0.505916 0.643061 0.930534 0.123345
H30   H     H_    0.513694 0.643710 0.061451 0.122590
H31   H     H_    0.024815 0.597472 0.076641 0.152039
H32   H     H_    0.940053 0.629222 0.944296 0.140841
H33   H     H_    0.517665 0.137978 0.063024 0.132266
H34   H     H_    0.636911 0.736889 0.476057 0.122304
H35   H     H_    0.432057 0.067617 0.935789 0.167961
H36   H     H_    0.930452 0.619108 0.072161 0.137360
H37   H     H_    0.033056 0.586370 0.949181 0.132585
H38   H     H_    0.432896 0.056108 0.062503 0.151934
H39   H     H_    0.518479 0.142512 0.935660 0.125786
H40   H     H_    0.862941 0.054480 0.416809 0.142645
H41   H     H_    0.160707 0.168591 0.599674 0.186765
H42   H     H_    0.362944 0.554470 0.416811 0.142641
H43   H     H_    0.660729 0.668638 0.599679 0.186718
H44   H     H_    0.140513 0.445077 0.480686 0.149393
H45   H     H_    0.961068 0.771558 0.545839 0.118169
H46   H     H_    0.758296 0.349496 0.501766 0.167301
H47   H     H_    0.640521 0.945059 0.480712 0.149333
H48   H     H_    0.258307 0.849510 0.501783 0.167291
H49   H     H_    0.589777 0.089264 0.468879 0.144264
H50   H     H_    0.355073 0.861383 0.507353 0.100774
H51   H     H_    0.089776 0.589294 0.468874 0.144317
H52   H     H_    0.855064 0.361359 0.507342 0.100717
H53   H     H_    0.612758 0.145130 0.592545 0.089856
H54   H     H_    0.356412 0.952110 0.391541 0.120187
H55   H     H_    0.112760 0.645097 0.592550 0.089884
H56   H     H_    0.934800 0.752885 0.417851 0.118453
H57   H     H_    0.856412 0.452101 0.391536 0.120143
H58   H     H_    0.017783 0.924007 0.438812 0.128433
H59   H     H_    0.046611 0.940240 0.566865 0.116561
H60   H     H_    0.517799 0.424005 0.438827 0.128454
H61   H     H_    0.546627 0.440247 0.566879 0.116530
H62   H     H_    0.982142 0.103085 0.371680 0.142074
H63   H     H_    0.037324 0.134300 0.627683 0.156504
H64   H     H_    0.482155 0.603076 0.371691 0.142159
H65   H     H_    0.537338 0.634312 0.627693 0.156292
H66   H     H_    0.946547 0.560437 0.359052 0.146529
H67   H     H_    0.461078 0.271558 0.545848 0.118176
H68   H     H_    0.000338 0.601574 0.611667 0.159169
H69   H     H_    0.446551 0.060439 0.359061 0.146621
H70   H     H_    0.500348 0.101572 0.611674 0.159250
H71   H     H_    0.764965 0.842267 0.642249 0.369087
H72   H     H_    0.150404 0.800970 0.340043 0.363044
H73   H     H_    0.265009 0.342258 0.642148 0.369203
H74   H     H_    0.650411 0.300973 0.340004 0.363063
H75   H     H_    0.434807 0.252886 0.417860 0.118490
H76   H     H_    0.645328 0.133596 0.921812 0.122111
O1    O     O_R   0.957020 0.451640 0.669920 -0.516842
O2    O     O_R   0.168040 0.093290 0.169870 -0.501799
O3    O     O_R   0.331960 0.593290 0.830130 -0.515320
O4    O     O_R   0.668040 0.593290 0.169870 -0.501355
O5    O     O_R   0.945600 0.250580 0.824860 -0.509870
O6    O     O_R   0.054400 0.250580 0.175140 -0.514626
O7    O     O_R   0.445600 0.750580 0.824860 -0.511315
O8    O     O_R   0.554400 0.750580 0.175140 -0.513295
O9    O     O_3   0.834640 0.334650 0.749500 -0.310791
O10   O     O_3   0.165360 0.334650 0.250500 -0.310880
O11   O     O_3   0.334640 0.834650 0.749500 -0.309114
O12   O     O_R   0.042980 0.451640 0.330080 -0.531253
O13   O     O_3   0.665360 0.834650 0.250500 -0.312076
O14   O     O_R   0.821450 0.543440 0.674610 -0.494422
O15   O     O_R   0.178550 0.543440 0.325390 -0.486268
O16   O     O_R   0.321450 0.043440 0.674610 -0.493709
O17   O     O_R   0.678550 0.043440 0.325390 -0.486472
O18   O     O_R   0.715320 0.458650 0.668100 -0.532390
O19   O     O_R   0.284680 0.458650 0.331900 -0.530593
O20   O     O_R   0.215320 0.958650 0.668100 -0.532304
O21   O     O_R   0.784680 0.958650 0.331900 -0.530553
O22   O     O_R   0.737170 0.209590 0.674530 -0.464373
O23   O     O_R   0.457020 0.951640 0.669920 -0.516748
O24   O     O_R   0.262830 0.209590 0.325470 -0.498720
O25   O     O_R   0.237170 0.709590 0.674530 -0.464419
O26   O     O_R   0.762830 0.709590 0.325470 -0.498547
O27   O     O_R   0.832710 0.092740 0.669580 -0.474896
O28   O     O_R   0.167290 0.092740 0.330420 -0.418302
O29   O     O_R   0.332710 0.592740 0.669580 -0.474827
O30   O     O_R   0.667290 0.592740 0.330420 -0.418347
O31   O     O_R   0.946290 0.250060 0.676040 -0.534783
O32   O     O_R   0.053710 0.250060 0.323960 -0.525887
O33   O     O_R   0.446290 0.750060 0.676040 -0.535402
O34   O     O_R   0.542980 0.951640 0.330080 -0.531100
O35   O     O_R   0.553710 0.750060 0.323960 -0.525366
O36   O     O_R   0.956270 0.452200 0.830470 -0.512531
O37   O     O_R   0.043730 0.452200 0.169530 -0.535463
O38   O     O_R   0.456270 0.952200 0.830470 -0.521679
O39   O     O_R   0.543730 0.952200 0.169530 -0.526413
O40   O     O_R   0.820760 0.543950 0.823440 -0.504599
O41   O     O_R   0.179240 0.543950 0.176560 -0.489117
O42   O     O_R   0.320760 0.043950 0.823440 -0.507213
O43   O     O_R   0.679240 0.043950 0.176560 -0.489112
O44   O     O_R   0.714570 0.459210 0.828640 -0.511733
O45   O     O_R   0.736470 0.210100 0.823360 -0.499366
O46   O     O_R   0.285430 0.459210 0.171360 -0.507881
O47   O     O_R   0.214570 0.959210 0.828640 -0.509881
O48   O     O_R   0.785430 0.959210 0.171360 -0.507179
O49   O     O_2   0.681597 0.999724 0.702908 -0.246979
O50   O     O_2   0.617337 0.862508 0.628019 -0.349669
O51   O     O_3   0.747966 0.889031 0.600496 -0.531270
O52   O     O_2   0.252599 0.943012 0.281352 -0.241773
O53   O     O_2   0.291827 0.755738 0.332799 -0.314625
O54   O     O_3   0.173535 0.844637 0.379511 -0.536570
O55   O     O_2   0.181663 0.499647 0.702866 -0.246685
O56   O     O_R   0.263530 0.210100 0.176640 -0.517031
O57   O     O_2   0.117349 0.362489 0.627988 -0.349299
O58   O     O_3   0.247970 0.388989 0.600399 -0.531366
O59   O     O_2   0.752615 0.443034 0.281333 -0.240945
O60   O     O_2   0.791829 0.255740 0.332775 -0.314593
O61   O     O_3   0.673536 0.344642 0.379476 -0.536625
O62   O     O_R   0.236470 0.710100 0.823360 -0.498992
O63   O     O_R   0.763530 0.710100 0.176640 -0.517165
O64   O     O_R   0.831960 0.093290 0.830130 -0.516412
S1    S     S_3+6 0.673410 0.955036 0.627718 -0.009670
S2    S     S_3+6 0.254357 0.871863 0.349722 0.002320
S3    S     S_3+6 0.173432 0.454997 0.627673 -0.009433
S4    S     S_3+6 0.754362 0.371868 0.349699 0.002562

loop_
_geom_bond_atom_site_label_1
_geom_bond_atom_site_label_2
_ccdc_geom_bond_type
C4    H27   S    
Cr7   O17   S    
C51   C123  S    
C34   C42   S    
Cr2   O32   S    
C76   O30   A    
C8    H31   S    
H74   O61   S    
C90   C107  A    
C59   C66   A    
C92   C109  S    
C121  O31   A    
C29   C33   A    
C9    H32   S    
C125  O35   A    
C53   C68   A    
C108  H9    S    
C5    C126  A    
C106  H7    S    
C7    C128  A    
Cr5   O15   S    
C18   C118  S    
C93   C110  S    
C74   O24   A    
Cr4   O8    S    
O55   S3    D    
Cr8   O9    S    
Cr9   O19   S    
Cr4   O30   S    
Cr2   O28   S    
C55   C65   A    
C9    C131  S    
C22   O37   A    
C28   C45   S    
O58   S3    S    
C27   C31   A    
C48   C74   S    
Cr12  O9    S    
C28   C32   A    
C113  H22   S    
C124  O33   A    
Cr9   O10   S    
C108  C113  S    
C112  H17   S    
C50   C76   S    
C8    H36   S    
C1    C29   S    
C20   O4    A    
C98   C120  A    
C109  H10   S    
C60   H58   S    
H73   O58   S    
C10   H38   S    
C11   H35   S    
C20   C120  S    
C55   H62   S    
C4    C127  A    
C70   C79   A    
C3    C129  A    
C59   C63   A    
C56   O20   A    
Cr5   O10   S    
C39   C43   S    
C57   C61   A    
C6    C7    A    
C73   O27   A    
Cr5   O37   S    
Cr3   O3    S    
Cr11  O63   S    
C33   C38   A    
C37   C44   S    
C130  C131  A    
C14   C88   S    
Cr10  O62   S    
C21   O36   A    
C77   C82   A    
Cr1   O14   S    
C69   C70   A    
C127  C131  A    
C3    C11   S    
C99   H76   S    
C94   C98   A    
C31   C36   A    
C103  C107  A    
Cr6   O23   S    
C79   H66   S    
Cr6   O38   S    
Cr7   O43   S    
C69   C77   A    
C86   C104  A    
C84   H67   S    
C95   C117  A    
Cr3   O7    S    
C24   H43   S    
C101  C118  A    
C12   C90   S    
C25   C128  S    
C92   C96   A    
C12   O44   A    
C35   C42   S    
C110  H11   S    
C40   H44   S    
C17   O64   A    
Cr1   O40   S    
C81   H69   S    
C73   O22   A    
Cr2   O2    S    
Cr4   O4    S    
Cr7   O13   S    
C49   C75   S    
O54   S2    S    
C20   O63   A    
O61   S4    S    
Cr5   O12   S    
C18   O56   A    
Cr9   O24   S    
C30   C34   A    
Cr7   O34   S    
C97   C119  A    
C45   O19   A    
C102  H3    S    
C99   C117  A    
C74   O28   A    
C87   C105  A    
C58   H64   S    
C116  H26   S    
C32   C37   A    
C62   H60   S    
C53   C125  S    
C109  C114  S    
Cr12  O31   S    
C26   C30   A    
C82   H45   S    
Cr12  O5    S    
C97   C115  S    
C109  H15   S    
C93   C97   A    
C112  C116  S    
C110  H16   S    
C44   S3    S    
C35   H47   S    
C10   H33   S    
C22   O6    A    
Cr11  O26   S    
Cr9   O46   S    
C2    H41   S    
C123  O32   A    
C94   C112  S    
C50   C111  A    
C5    H28   S    
C36   C48   A    
Cr2   O10   S    
C125  O34   A    
C10   C132  S    
C38   C46   S    
C9    H37   S    
C10   C11   S    
C102  C119  A    
C91   C95   A    
C25   O39   A    
C40   C44   S    
Cr8   O44   S    
Cr12  O27   S    
C56   O16   A    
C47   C78   A    
C83   H56   S    
C55   C60   A    
C81   C85   A    
C59   H65   S    
C40   H51   S    
Cr5   O41   S    
C58   C62   A    
Cr4   O35   S    
Cr6   O16   S    
C103  C120  A    
C80   C84   A    
C96   C114  S    
Cr10  O20   S    
C105  H6    S    
O57   S3    D    
C100  H23   S    
C15   O47   A    
C86   C91   A    
C126  C130  A    
C7    H30   S    
C23   C129  S    
Cr11  O48   S    
C51   C65   A    
C24   C29   A    
C52   C69   A    
C77   H68   S    
C16   O43   A    
C54   C71   A    
Cr6   O42   S    
C23   O38   A    
Cr7   O39   S    
Cr1   O1    S    
Cr11  O21   S    
C13   C28   A    
C2    C27   A    
C72   C81   A    
C17   C117  S    
C43   S2    S    
C99   C104  A    
C19   C119  S    
Cr3   O11   S    
C87   C92   A    
C16   C86   S    
O53   S2    D    
Cr3   O29   S    
C90   C94   A    
C112  H13   S    
C3    C132  A    
C19   O3    A    
C84   C85   A    
C47   C73   S    
C52   C64   A    
C27   C56   S    
C89   H12   S    
C67   O17   A    
C60   C61   A    
C104  H5    S    
C2    C89   A    
O60   S4    D    
C62   C63   A    
C37   C49   A    
C52   C121  S    
C1    O14   A    
Cr10  O25   S    
C124  O23   A    
C54   C66   A    
C41   H46   S    
C58   C68   A    
C8    C130  S    
C116  H21   S    
O50   S1    D    
O49   S1    D    
C54   C124  S    
C13   H42   S    
C91   C108  S    
C42   H53   S    
C45   O15   A    
C114  H24   S    
C6    H29   S    
C33   C41   S    
C64   C65   A    
C79   C83   A    
C39   H48   S    
Cr10  O11   S    
C4    C5    A    
C43   H54   S    
C18   O2    A    
Cr1   O9    S    
C42   S1    S    
C35   H49   S    
C71   C72   A    
C82   C83   A    
C63   H61   S    
C121  O1    A    
C36   C43   S    
C34   C47   A    
C26   C122  A    
C75   O29   A    
C53   C72   A    
C110  C115  S    
C66   C68   A    
C115  H25   S    
C67   O21   A    
C30   C35   S    
C26   C67   S    
Cr2   O6    S    
C96   C118  A    
Cr6   O11   S    
C41   H52   S    
C22   C126  S    
C108  H14   S    
O52   S2    D    
C115  H20   S    
C17   O45   A    
C78   H1    S    
C113  H18   S    
C8    C9    S    
Cr12  O64   S    
C111  H34   S    
C41   C46   S    
C51   C70   A    
C21   C127  S    
C75   O25   A    
C122  H40   S    
C24   C111  A    
C6    C129  A    
C128  C132  A    
Cr1   O36   S    
C71   C80   A    
C103  H4    S    
O51   S1    S    
C46   H57   S    
C101  C105  A    
C39   H50   S    
C101  H2    S    
C123  O12   A    
C11   H39   S    
Cr10  O47   S    
C80   H70   S    
C14   O41   A    
C88   C106  A    
C98   C116  S    
Cr4   O13   S    
Cr8   O18   S    
Cr3   O33   S    
C16   O48   A    
C107  H8    S    
C48   C89   A    
C57   C64   A    
C15   C87   S    
C19   O62   A    
C88   C93   A    
C76   O26   A    
C23   O7    A    
C38   C50   A    
C1    O18   A    
C21   O5    A    
C57   H63   S    
C25   O8    A    
C46   S4    S    
O59   S4    D    
Cr11  O13   S    
C13   C100  A    
C85   H75   S    
C15   O42   A    
C61   H59   S    
C49   C100  A    
C114  H19   S    
C95   C113  S    
C31   C39   S    
C102  C106  A    
Cr8   O22   S    
C32   C40   S    
C78   C122  A    
C44   H55   S    
H72   O54   S    
Cr8   O45   S    
C12   O40   A    
Cr9   O56   S    
H71   O51   S    
C14   O46   A    
