data_mof_unit_pretest_402.cif
_audit_creation_date              2013-03-05T16:32:50-0500
_audit_creation_method            fapswitch 2.2
_symmetry_space_group_name_H-M    P1
_symmetry_Int_Tables_number       1
_space_group_crystal_system       triclinic
_cell_length_a                    19.362103
_cell_length_b                    10.859618
_cell_length_c                    9.534118
_cell_angle_alpha                 91.037505
_cell_angle_beta                  89.970306
_cell_angle_gamma                 90.243756
_cell_volume                      2004.3447346

loop_
_atom_site_label
_atom_site_type_symbol
_atom_site_description
_atom_site_fract_x
_atom_site_fract_y
_atom_site_fract_z
_atom_type_partial_charge
O1    O     O_R   0.500000 0.319640 0.618810 -0.573353
O2    O     O_R   0.500010 0.319680 0.381230 -0.525107
C1    C     C_R   0.498379 0.262297 0.498416 0.833663
O3    O     O_R   0.400140 0.499970 0.618830 -0.595642
O4    O     O_R   0.400150 0.500010 0.381250 -0.593261
C2    C     C_R   0.367427 0.500007 0.500063 0.786058
Cu1   Cu    Cu3+1 0.500000 0.499980 0.640670 0.958909
Cu2   Cu    Cu3+1 0.500000 0.500020 0.359330 0.981097
O5    O     O_R   0.499990 0.680320 0.618770 -0.566920
O6    O     O_R   0.500000 0.680360 0.381190 -0.597303
O7    O     O_R   0.599850 0.499990 0.618750 -0.580495
O8    O     O_R   0.599860 0.500030 0.381170 -0.583834
C3    C     C_R   0.498487 0.737630 0.500927 0.847235
C4    C     C_R   0.632564 0.498977 0.499930 0.770862
C5    C     C_R   0.254820 0.500550 0.627199 -0.178912
H1    H     H_    0.281660 0.499967 0.726819 0.146293
C6    C     C_R   0.182864 0.501424 0.627242 -0.148823
H2    H     H_    0.156093 0.501432 0.726980 0.155587
C7    C     C_R   0.146178 0.502306 0.500177 0.052950
C8    C     C_R   0.182920 0.502229 0.373076 -0.147939
H3    H     H_    0.156194 0.502827 0.273360 0.155471
C9    C     C_R   0.254874 0.501319 0.373050 -0.168923
H4    H     H_    0.281755 0.501335 0.273402 0.146840
C10   C     C_R   0.291463 0.500518 0.500108 -0.027071
N1    N     N_R   0.034365 0.504439 0.377758 -0.235982
N2    N     N_R   0.965683 0.504474 0.377751 -0.237386
C11   C     C_R   0.929926 0.503083 0.500184 0.411052
N3    N     N_R   0.965607 0.501838 0.622632 -0.237559
N4    N     N_R   0.034289 0.501820 0.622640 -0.236308
C12   C     C_R   0.070048 0.503006 0.500198 0.415430
C13   C     C_R   0.817045 0.498846 0.627080 -0.158140
H5    H     H_    0.843746 0.497504 0.726792 0.155115
C14   C     C_R   0.745106 0.496968 0.626938 -0.199484
H6    H     H_    0.718251 0.493996 0.726395 0.147922
C15   C     C_R   0.708531 0.498746 0.499938 -0.033406
C16   C     C_R   0.745205 0.501368 0.373021 -0.189029
H7    H     H_    0.718441 0.501889 0.273455 0.147626
C17   C     C_R   0.817139 0.503279 0.373080 -0.160765
H8    H     H_    0.843908 0.505504 0.273416 0.154398
C18   C     C_R   0.853801 0.502066 0.500131 0.060165
C19   C     C_R   0.498481 0.067131 0.621798 0.004508
C20   C     C_R   0.491737 0.129053 0.495817 -0.216565
C21   C     C_R   0.475300 0.059748 0.372537 0.343586
C22   C     C_R   0.474606 0.931045 0.377136 -0.276716
H9    H     H_    0.464789 0.879128 0.281005 0.188825
C23   C     C_R   0.491155 0.870382 0.501638 -0.154560
C24   C     C_R   0.498407 0.940275 0.624854 0.030131
C25   C     C_3   0.552598 0.941414 0.737501 0.300212
C26   C     C_3   0.552074 0.081892 0.733857 -0.477938
H10   H     H_    0.530909 0.908326 0.837872 0.117412
H11   H     H_    0.530099 0.124594 0.830807 0.220193
H12   H     H_    0.599921 0.127575 0.696738 0.175994
C27   C     C_R   0.558672 0.528582 0.074394 0.275923
N5    N     N_R   0.500440 0.500930 0.147930 -0.187581
C28   C     C_R   0.444434 0.458596 0.073554 -0.008218
H13   H     H_    0.399110 0.426306 0.128147 0.150549
C29   C     C_R   0.444377 0.458823 0.924777 -0.060402
H14   H     H_    0.398973 0.426861 0.868991 0.142983
N6    N     N_R   0.500440 0.500890 0.852020 -0.192882
C30   C     C_R   0.558886 0.527476 0.926871 0.235684
C31   C     C_3   0.598520 0.645013 0.923385 -0.450822
C32   C     C_3   0.597831 0.646867 0.082473 -0.520738
H15   H     H_    0.650967 0.633108 0.878056 0.201012
H16   H     H_    0.567593 0.719179 0.877587 0.236520
H17   H     H_    0.649987 0.635832 0.128805 0.194891
H18   H     H_    0.566974 0.723718 0.128480 0.220808
O9    O     O_3   0.615136 0.878892 0.701852 -0.602594
C33   C     C_3   0.652853 0.928448 0.588323 0.075842
H19   H     H_    0.691613 0.995207 0.630488 0.156163
H20   H     H_    0.620097 0.975701 0.510464 0.148243
C34   C     C_3   0.690542 0.823679 0.512051 -0.329338
H21   H     H_    0.724592 0.775595 0.587059 0.235395
H22   H     H_    0.651932 0.756733 0.470106 0.211821
C35   C     C_3   0.733991 0.870646 0.390563 -0.897976
H23   H     H_    0.700595 0.916317 0.312515 0.261681
H24   H     H_    0.760519 0.791939 0.338027 0.263391
H25   H     H_    0.773622 0.937049 0.429687 0.261255
N7    N     N_R   0.463127 0.116660 0.240670 0.127242
O10   O     O_R   0.515425 0.152130 0.165514 -0.378441
O11   O     O_R   0.402745 0.105712 0.181950 -0.376524

loop_
_geom_bond_atom_site_label_1
_geom_bond_atom_site_label_2
_geom_bond_distance
_ccdc_geom_bond_type
C28   H13   1.080517 S    
C1    C20   1.451905 S    
C19   C20   1.393585 A    
C15   C16   1.403363 A    
Cu1   Cu2   2.682337 S    
C27   N5    1.362668 A    
C21   N7    1.431036 S    
Cu1   O7    1.944461 S    
N2    C11   1.357146 A    
C35   H24   1.110514 S    
C16   H7    1.081856 S    
C17   H8    1.082737 S    
O7    C4    1.297506 A    
N7    O11   1.300579 A    
C29   N6    1.369187 A    
C5    H1    1.083032 S    
C13   C18   1.404660 A    
Cu1   O5    1.973278 S    
C19   C26   1.495811 S    
C31   H15   1.110556 S    
O5    C3    1.294612 A    
C6    C7    1.404853 A    
C23   C24   1.393861 A    
C13   H5    1.082744 S    
C33   H19   1.111554 S    
C26   H11   1.111846 S    
C35   H25   1.110762 S    
C13   C14   1.392958 A    
C25   H10   1.109933 S    
N6    C30   1.365216 A    
O3    Cu1   1.944786 S    
Cu1   N6    2.014903 S    
C27   C30   1.406341 A    
C22   C23   1.405773 A    
C6    H2    1.082778 S    
C9    H4    1.083043 S    
C35   H23   1.111035 S    
C32   H18   1.112016 S    
O9    C33   1.418269 S    
O3    C2    1.297746 A    
Cu2   N5    2.015729 S    
C4    C15   1.470903 S    
C34   H22   1.110174 S    
N7    O10   1.301179 A    
N1    N2    1.329822 A    
C30   C31   1.487418 S    
O1    C1    1.296271 A    
C31   H16   1.102283 S    
C21   C22   1.399151 A    
N4    C12   1.357172 A    
O4    Cu2   1.944461 S    
C27   C32   1.489640 S    
C24   C25   1.501699 S    
C11   C18   1.473925 S    
Cu2   O8    1.944784 S    
C26   H12   1.109835 S    
C2    C10   1.470841 S    
C14   H6    1.082135 S    
C19   C24   1.378434 A    
Cu2   O6    1.965727 S    
C5    C10   1.403817 A    
C8    C9    1.393264 A    
C28   C29   1.418504 A    
C9    C10   1.403832 A    
C20   C21   1.419698 A    
C22   H9    1.083769 S    
N1    C12   1.357163 A    
C5    C6    1.393305 A    
N5    C28   1.369246 A    
N3    N4    1.329840 A    
C32   H17   1.110276 S    
O1    Cu1   1.965726 S    
O2    Cu2   1.973278 S    
O8    C4    1.297848 A    
O6    C3    1.290462 A    
C34   C35   1.525193 S    
C7    C8    1.404844 A    
C16   C17   1.392860 A    
O2    C1    1.289417 A    
C34   H21   1.111605 S    
C17   C18   1.404603 A    
C29   H14   1.080459 S    
O4    C2    1.297646 A    
C33   C34   1.527194 S    
C25   C26   1.526640 S    
C14   C15   1.403502 A    
C25   O9    1.428602 S    
C31   C32   1.516584 S    
C8    H3    1.082780 S    
C33   H20   1.110702 S    
C11   N3    1.357153 A    
C3    C23   1.449097 S    
C7    C12   1.474102 S    
