data_mof_unit_pretest_392.cif
_audit_creation_date              2012-12-10T18:50:50-0500
_audit_creation_method            fapswitch 2.2
_symmetry_space_group_name_H-M    P1
_symmetry_Int_Tables_number       1
_space_group_crystal_system       triclinic
_cell_length_a                    10.729743
_cell_length_b                    9.876947
_cell_length_c                    15.718184
_cell_angle_alpha                 90.085566
_cell_angle_beta                  90.584089
_cell_angle_gamma                 89.996905
_cell_volume                      1665.67918975

loop_
_atom_site_label
_atom_site_type_symbol
_atom_type_description
_atom_site_fract_x
_atom_site_fract_y
_atom_site_fract_z
_atom_type_partial_charge
C1    C     C_R   0.259941 0.500137 0.500455 0.851905
C2    C     C_3   0.579654 0.616648 0.951403 -0.634815
C3    C     C_3   0.579811 0.616862 0.049535 -0.425910
C4    C     C_1   0.498957 0.500014 0.825856 -0.031376
C5    C     C_1   0.498836 0.499557 0.174014 -0.073261
C6    C     C_1   0.499312 0.499712 0.249381 -0.189131
C7    C     C_R   0.063733 0.377596 0.502575 -0.210956
C8    C     C_R   0.063850 0.624265 0.499176 -0.194801
C9    C     C_R   0.936292 0.377536 0.500045 -0.215029
C10   C     C_R   0.936080 0.624259 0.498828 -0.195223
C11   C     C_R   0.872537 0.500680 0.499248 -0.003422
C12   C     C_R   0.127431 0.500719 0.500986 -0.003519
C13   C     C_R   0.567017 0.073126 0.559957 0.363214
C14   C     C_R   0.559436 0.928041 0.563543 0.346031
C15   C     C_R   0.499795 0.499912 0.338308 0.903465
C16   C     C_R   0.440228 0.927744 0.436544 0.344985
C17   C     C_R   0.432721 0.072817 0.440142 0.355987
C18   C     C_R   0.740010 0.500125 0.499602 0.846233
C19   C     C_R   0.500164 0.500103 0.661683 0.901393
C20   C     C_3   0.363467 0.516472 0.048569 -0.456414
C21   C     C_3   0.550824 0.363123 0.049626 -0.459582
C22   C     C_3   0.553676 0.362834 0.951033 0.456474
C23   C     C_3   0.362352 0.519579 0.949927 0.450483
C24   C     C_1   0.499666 0.500306 0.750539 -0.165292
C25   C     C_3   0.498353 0.499183 0.082551 0.240614
C26   C     C_3   0.497791 0.498559 0.917407 0.189377
H1    H     H_    0.304328 0.431991 0.072014 0.203390
H2    H     H_    0.492482 0.278010 0.073113 0.203338
H3    H     H_    0.646920 0.346993 0.075035 0.130720
H4    H     H_    0.322709 0.612305 0.073244 0.130626
H5    H     H_    0.653213 0.359390 0.930406 0.038746
H6    H     H_    0.331958 0.622637 0.928574 0.037961
H7    H     H_    0.543344 0.715480 0.073023 0.181669
H8    H     H_    0.677146 0.606161 0.073820 0.185510
H9    H     H_    0.543547 0.715387 0.927499 0.189727
H10   H     H_    0.676964 0.606178 0.928333 0.197295
H11   H     H_    0.111801 0.281564 0.505655 0.151448
H12   H     H_    0.112277 0.720512 0.498127 0.163004
H13   H     H_    0.888278 0.281396 0.498816 0.150975
H14   H     H_    0.887625 0.720516 0.497993 0.161768
N1    N     N_R   0.499970 0.857200 0.499980 -0.191700
N2    N     N_R   0.499970 0.142800 0.499980 -0.191472
O1    O     O_R   0.316750 0.614620 0.499990 -0.605321
O2    O     O_R   0.316750 0.385380 0.499990 -0.603050
O3    O     O_R   0.499990 0.614720 0.377140 -0.580200
O4    O     O_R   0.499990 0.385280 0.377140 -0.566252
O5    O     O_R   0.683220 0.614710 0.500000 -0.605663
O6    O     O_R   0.683220 0.385290 0.500000 -0.606364
O7    O     O_R   0.499980 0.614620 0.622860 -0.584659
O8    O     O_R   0.499980 0.385380 0.622860 -0.554812
Zn1   Zn    Zn3+2 0.499980 0.653120 0.500000 1.008487
Zn2   Zn    Zn3+2 0.499980 0.346880 0.500000 1.026296
O9    O     O_3   0.282830 0.416700 0.917017 -0.537486
C27   C     C_3   0.159669 0.465195 0.908277 -0.336299
H15   H     H_    0.124275 0.506646 0.969309 0.145870
H16   H     H_    0.098426 0.379608 0.889344 0.197309
H17   H     H_    0.153609 0.543006 0.857328 0.155924
O10   O     O_3   0.484354 0.251492 0.918257 -0.533049
C28   C     C_3   0.561252 0.136405 0.909966 -0.337600
H18   H     H_    0.608915 0.110829 0.971064 0.143264
H19   H     H_    0.630742 0.151810 0.858853 0.167470
H20   H     H_    0.502206 0.048737 0.891540 0.186755
O11   O     O_3   0.382675 0.856379 0.371494 -0.565468
C29   C     C_3   0.449195 0.876966 0.295444 -0.262368
H21   H     H_    0.413493 0.804960 0.246743 0.175058
H22   H     H_    0.550752 0.856792 0.303965 0.146767
H23   H     H_    0.434542 0.980545 0.269935 0.180417
O12   O     O_3   0.364440 0.146213 0.380891 -0.562802
C30   C     C_3   0.237110 0.110352 0.384017 -0.243511
H24   H     H_    0.181028 0.198794 0.363087 0.170015
H25   H     H_    0.205648 0.082169 0.449037 0.118804
H26   H     H_    0.216510 0.026929 0.338704 0.191462
O13   O     O_3   0.634443 0.146945 0.619626 -0.559965
C31   C     C_3   0.761624 0.110091 0.618291 -0.253788
H27   H     H_    0.817677 0.198586 0.639321 0.169833
H28   H     H_    0.794591 0.080241 0.553869 0.120168
H29   H     H_    0.780576 0.027641 0.664465 0.191379
O14   O     O_3   0.616140 0.856994 0.628939 -0.565642
C32   C     C_3   0.548449 0.877840 0.704517 -0.269976
H30   H     H_    0.584432 0.807182 0.753767 0.168699
H31   H     H_    0.447264 0.856111 0.695460 0.153784
H32   H     H_    0.561417 0.982021 0.729611 0.182077

loop_
_geom_bond_atom_site_label_1
_geom_bond_atom_site_label_2
_ccdc_geom_bond_type
C2    H9    S    
C11   C18   S    
O13   C31   S    
C18   O5    A    
C20   H4    S    
O9    C27   S    
C31   H28   S    
C5    C6    T    
C4    C24   T    
C20   C25   S    
C3    H7    S    
O4    Zn2   S    
C9    H13   S    
C10   H14   S    
C23   C26   S    
C30   H25   S    
C17   N2    A    
C6    C15   S    
C1    O1    A    
O12   C30   S    
C28   H20   S    
C31   H29   S    
O8    Zn2   S    
C16   O11   S    
O2    Zn2   S    
C28   H18   S    
C13   C14   A    
C1    C12   S    
C8    H12   S    
C13   N2    A    
C23   O9    S    
C7    C12   A    
C27   H16   S    
C28   H19   S    
C22   H5    S    
C29   H23   S    
C3    C25   S    
C31   H27   S    
C32   H31   S    
O14   C32   S    
C16   C17   A    
O5    Zn1   S    
C3    H8    S    
O7    Zn1   S    
O10   C28   S    
C21   H3    S    
O11   C29   S    
C29   H22   S    
C30   H26   S    
C19   O7    A    
C1    O2    A    
C20   C23   S    
C8    C12   A    
C7    H11   S    
C2    C26   S    
C9    C11   A    
C14   N1    A    
C5    C25   S    
C21   H2    S    
C13   O13   S    
C15   O3    A    
C2    H10   S    
C7    C9    A    
C21   C25   S    
C27   H15   S    
C17   O12   S    
C18   O6    A    
C22   O10   S    
C32   H32   S    
C4    C26   S    
C20   H1    S    
C29   H21   S    
C2    C3    S    
C23   H6    S    
C19   O8    A    
O1    Zn1   S    
C19   C24   S    
C14   O14   S    
C30   H24   S    
C10   C11   A    
C32   H30   S    
O6    Zn2   S    
C8    C10   A    
C22   C26   S    
O3    Zn1   S    
C15   O4    A    
C21   C22   S    
C16   N1    A    
N1    Zn1   S    
N2    Zn2   S    
C27   H17   S    
