data_mof_unit_pretest_209.cif
_audit_creation_date              2012-10-26T19:21:04-0400
_audit_creation_method            fapswitch 2.2
_symmetry_space_group_name_H-M    P1
_symmetry_Int_Tables_number       1
_space_group_crystal_system       triclinic
_cell_length_a                    9.809098
_cell_length_b                    11.019148
_cell_length_c                    13.52974
_cell_angle_alpha                 93.908853
_cell_angle_beta                  82.533343
_cell_angle_gamma                 110.743581
_cell_volume                      1355.61783495

loop_
_atom_site_label
_atom_site_type_symbol
_atom_type_description
_atom_site_fract_x
_atom_site_fract_y
_atom_site_fract_z
_atom_type_partial_charge
C1    C     C_R   0.556704 0.745513 0.504727 0.563002
C2    C     C_R   0.373528 0.437279 0.796245 -0.023668
C3    C     C_2   0.590764 0.884250 0.496610 -0.121671
C4    C     C_R   0.420797 0.472678 0.689154 0.565575
C5    C     C_2   0.492998 0.928680 0.466026 -0.136700
C6    C     C_2   0.418825 0.115677 0.481274 -0.099366
C7    C     C_2   0.526943 0.067448 0.454040 -0.023246
C8    C     C_2   0.922090 0.494025 0.488064 -0.016969
C9    C     C_2   0.077992 0.513936 0.503457 0.040983
C10   C     C_R   0.445952 0.254777 0.489123 0.552419
C11   C     C_R   0.575983 0.508397 0.310091 0.541459
C12   C     C_R   0.438259 0.448417 0.967766 0.002620
C13   C     C_R   0.803991 0.579587 0.061553 -0.104844
C14   C     C_R   0.618698 0.510074 0.202345 0.017367
C15   C     C_R   0.222188 0.395857 0.834812 0.104839
C16   C     C_R   0.183483 0.393557 0.938465 0.107410
C17   C     C_R   0.291281 0.429954 0.002513 -0.129585
C18   C     C_3   0.086789 0.340562 0.390120 -0.218075
C19   C     C_3   0.385236 0.325216 0.172035 -0.378248
C20   C     C_3   0.680350 0.150033 0.412368 -0.360568
C21   C     C_R   0.480445 0.449743 0.863547 -0.003763
C22   C     C_R   0.546703 0.473275 0.034558 0.055701
C23   C     C_R   0.696498 0.525445 0.996823 0.055667
C24   C     C_R   0.736687 0.513954 0.895473 -0.110847
C25   C     C_R   0.629100 0.463954 0.831656 -0.095628
C26   C     C_R   0.512954 0.445344 0.136996 -0.007672
C27   C     C_R   0.763812 0.577970 0.163941 -0.134335
Cu1   Cu    Cu3+1 0.362000 0.479240 0.482530 0.961491
Cu2   Cu    Cu3+1 0.638000 0.520760 0.517470 0.934624
H1    H     H_    0.846932 0.625626 0.213121 0.134442
H2    H     H_    0.257312 0.442524 0.080294 0.139888
H3    H     H_    0.666807 0.434777 0.758860 0.175175
H4    H     H_    0.166295 0.293041 0.360925 0.158872
H5    H     H_    0.992909 0.266321 0.431662 0.101600
H6    H     H_    0.052011 0.375142 0.325745 0.094995
H7    H     H_    0.419225 0.271181 0.224764 0.133322
H8    H     H_    0.292835 0.352215 0.209737 0.137066
H9    H     H_    0.346853 0.256610 0.109065 0.145633
H10   H     H_    0.740899 0.089298 0.373181 0.122966
H11   H     H_    0.676470 0.218221 0.356868 0.142148
H12   H     H_    0.383472 0.863015 0.453968 0.143379
H13   H     H_    0.741375 0.204003 0.474459 0.153228
H14   H     H_    0.307549 0.050512 0.502870 0.092536
H15   H     H_    0.698289 0.950068 0.512559 0.118463
H16   H     H_    0.129800 0.588244 0.557191 0.138016
H17   H     H_    0.871210 0.430491 0.428413 0.148057
H18   H     H_    0.894471 0.612972 0.600141 0.207514
H19   H     H_    0.851020 0.536776 0.866255 0.145195
H20   H     H_    0.918482 0.624103 0.032900 0.136675
I1    I     I_    0.046189 0.327527 0.742495 -0.340683
I2    I     I_    0.963503 0.333841 0.007757 -0.414518
N1    N     N_2   0.845330 0.551960 0.543750 -0.361637
N2    N     N_2   0.154690 0.448120 0.456210 -0.231015
O1    O     O_R   0.426290 0.668220 0.490680 -0.502118
O2    O     O_R   0.659360 0.703290 0.520190 -0.481407
O3    O     O_R   0.326580 0.473880 0.629020 -0.459266
O4    O     O_R   0.559660 0.508940 0.658530 -0.510374
O5    O     O_R   0.340640 0.296710 0.479810 -0.499704
O6    O     O_R   0.573710 0.331780 0.509320 -0.495960
O7    O     O_R   0.440340 0.491060 0.341470 -0.500546
O8    O     O_R   0.673420 0.526120 0.370980 -0.509918

loop_
_geom_bond_atom_site_label_1
_geom_bond_atom_site_label_2
_ccdc_geom_bond_type
C4    O4    A    
C6    C10   S    
C2    C4    S    
C23   C24   A    
C9    H16   S    
C6    C7    D    
C19   H8    S    
C19   H9    S    
Cu1   O5    S    
C14   C27   A    
C20   H10   S    
C18   H6    S    
C8    N1    D    
C20   H13   S    
C16   I2    S    
C1    O1    A    
C3    C5    D    
C2    C21   A    
C10   O6    A    
Cu1   O3    S    
C4    O3    A    
C12   C17   A    
C2    C15   A    
C18   H5    S    
H18   N1    S    
C25   H3    S    
C13   H20   S    
C15   C16   A    
Cu1   Cu2   S    
C10   O5    A    
Cu2   O4    S    
C8    H17   S    
C6    H14   S    
Cu1   O7    S    
C11   O8    A    
C1    O2    A    
C17   H2    S    
C11   C14   S    
Cu2   O8    S    
C3    H15   S    
C9    N2    D    
C18   H4    S    
C5    H12   S    
C11   O7    A    
C24   H19   S    
C12   C22   A    
C24   C25   A    
C13   C23   A    
C7    C20   S    
C22   C26   A    
C15   I1    S    
C5    C7    S    
C19   C26   S    
C21   C25   A    
C22   C23   A    
C13   C27   A    
Cu1   O1    S    
Cu2   O2    S    
C18   N2    S    
C1    C3    S    
C19   H7    S    
C20   H11   S    
C12   C21   A    
C14   C26   A    
Cu2   O6    S    
C16   C17   A    
Cu1   N2    S    
C8    C9    S    
C27   H1    S    
Cu2   N1    S    
