data_mof_unit_pretest_568.cif
_audit_creation_date              2012-12-10T17:31:23-0500
_audit_creation_method            fapswitch 2.2
_symmetry_space_group_name_H-M    P1
_symmetry_Int_Tables_number       1
_space_group_crystal_system       triclinic
_cell_length_a                    18.894957
_cell_length_b                    18.696647
_cell_length_c                    12.473182
_cell_angle_alpha                 89.933381
_cell_angle_beta                  130.494568
_cell_angle_gamma                 90.041873
_cell_volume                      3350.9448456

loop_
_atom_site_label
_atom_site_type_symbol
_atom_type_description
_atom_site_fract_x
_atom_site_fract_y
_atom_site_fract_z
_atom_type_partial_charge
C1    C     C_R   0.612367 0.898316 0.652797 0.790013
C2    C     C_R   0.612153 0.101850 0.652490 0.786030
C3    C     C_R   0.112415 0.398350 0.652862 0.790815
C4    C     C_R   0.112157 0.601844 0.652499 0.785107
C5    C     C_R   0.242708 0.776830 0.035200 0.071688
C6    C     C_R   0.242315 0.222393 0.033957 0.073120
C7    C     C_R   0.742549 0.277024 0.034871 0.073076
C8    C     C_R   0.742283 0.722402 0.033963 0.072845
C9    C     C_R   0.658124 0.275691 0.011048 0.167172
C10   C     C_R   0.657226 0.722604 0.008347 0.166298
C11   C     C_R   0.158359 0.775363 0.011593 0.166060
C12   C     C_R   0.157164 0.222437 0.008063 0.166231
C13   C     C_R   0.579743 0.242744 0.891042 -0.242429
C14   C     C_R   0.578831 0.755218 0.887647 -0.245375
C15   C     C_R   0.079966 0.742417 0.891623 -0.245633
C16   C     C_R   0.078770 0.254997 0.887262 -0.244565
C17   C     C_R   0.584837 0.208297 0.797960 -0.194743
C18   C     C_R   0.584532 0.790573 0.795814 -0.198085
C19   C     C_R   0.084965 0.708128 0.798324 -0.196713
C20   C     C_R   0.084557 0.290456 0.795603 -0.197103
C21   C     C_R   0.318993 0.812592 0.155073 -0.252160
C22   C     C_R   0.318793 0.187396 0.154990 -0.246819
C23   C     C_R   0.818871 0.312684 0.154887 -0.249034
C24   C     C_R   0.818763 0.687357 0.154906 -0.248316
C25   C     C_R   0.228219 0.846775 0.220993 -0.198179
C26   C     C_R   0.226691 0.150944 0.217504 -0.193968
C27   C     C_R   0.727972 0.347087 0.220479 -0.195921
C28   C     C_R   0.726827 0.651138 0.217841 -0.195461
C29   C     C_R   0.678828 0.159449 0.741474 -0.116665
C30   C     C_R   0.679413 0.841013 0.742165 -0.115109
C31   C     C_R   0.178834 0.659432 0.741505 -0.116879
C32   C     C_R   0.179552 0.341120 0.742355 -0.114980
C33   C     C_R   0.689414 0.014949 0.300460 0.065906
C34   C     C_R   0.188802 0.520394 0.300127 0.075117
C35   C     C_R   0.341502 0.996648 0.624541 0.061054
C36   C     C_R   0.841557 0.495642 0.624567 0.060858
C37   C     C_R   0.306726 0.995679 0.694275 -0.253931
C38   C     C_R   0.806735 0.494343 0.694258 -0.253492
C39   C     C_R   0.384100 0.098822 0.342554 0.782446
C40   C     C_R   0.384246 0.901023 0.342814 0.781556
C41   C     C_R   0.884111 0.598833 0.342571 0.782425
C42   C     C_R   0.884209 0.401052 0.342759 0.781593
C43   C     C_R   0.366945 0.998135 0.840928 -0.168961
C44   C     C_R   0.866841 0.497526 0.840866 -0.170217
C45   C     C_R   0.464158 0.001872 0.922203 -0.040223
C46   C     C_R   0.963956 0.502418 0.922091 -0.039121
C47   C     C_R   0.498547 0.002917 0.847213 0.279089
C48   C     C_R   0.998329 0.503765 0.847101 0.277905
C49   C     C_R   0.527941 0.004132 0.075258 -0.082032
C50   C     C_R   0.027703 0.505490 0.075121 -0.075864
C51   C     C_R   0.624423 0.012440 0.151674 0.138996
C52   C     C_R   0.123763 0.516511 0.151169 0.122220
C53   C     C_R   0.656605 0.015942 0.080275 -0.291366
C54   C     C_R   0.155733 0.520404 0.079318 -0.300731
C55   C     C_R   0.599183 0.007308 0.935525 0.144597
C56   C     C_R   0.098728 0.509334 0.935191 0.152731
C57   C     C_R   0.501102 0.998340 0.158018 0.014185
C58   C     C_R   0.001180 0.497821 0.158043 0.011496
C59   C     C_R   0.657842 0.007974 0.373347 0.015859
C60   C     C_R   0.157412 0.510763 0.373113 0.033037
C61   C     C_R   0.652180 0.309314 0.105547 -0.192310
C62   C     C_R   0.650788 0.688329 0.101936 -0.194624
C63   C     C_R   0.152477 0.808898 0.106219 -0.196982
C64   C     C_R   0.150639 0.188071 0.101489 -0.192965
C65   C     C_R   0.310756 0.850298 0.242994 -0.047386
C66   C     C_R   0.310111 0.148997 0.241879 -0.046875
C67   C     C_R   0.810617 0.350428 0.242762 -0.046950
C68   C     C_R   0.810153 0.649043 0.241952 -0.047335
C69   C     C_R   0.758720 0.164894 0.756082 -0.187279
C70   C     C_R   0.759921 0.836527 0.758239 -0.185248
C71   C     C_R   0.258676 0.664929 0.755991 -0.187812
C72   C     C_R   0.260181 0.336811 0.758730 -0.184046
C73   C     C_R   0.331107 0.709659 0.856916 -0.149097
C74   C     C_R   0.332815 0.292299 0.860123 -0.149190
C75   C     C_R   0.831120 0.209665 0.856951 -0.148748
C76   C     C_R   0.832485 0.791922 0.859472 -0.150000
C77   C     C_R   0.327033 0.747170 0.948930 -0.183320
C78   C     C_R   0.328093 0.253883 0.950787 -0.182599
C79   C     C_R   0.826971 0.247259 0.948816 -0.182429
C80   C     C_R   0.827838 0.753602 0.950302 -0.182720
C81   C     C_R   0.747634 0.242826 0.938115 0.080038
C82   C     C_R   0.747882 0.757174 0.938129 0.080735
C83   C     C_R   0.247736 0.742698 0.938332 0.079546
C84   C     C_R   0.248006 0.257269 0.938298 0.080817
C85   C     C_R   0.669777 0.203051 0.825092 0.075030
C86   C     C_R   0.669952 0.796707 0.824608 0.073905
C87   C     C_R   0.169856 0.702949 0.825293 0.075318
C88   C     C_R   0.170048 0.296732 0.824655 0.073976
Cu1   Cu    Cu3+1 0.526340 0.000000 0.421010 0.931885
Cu2   Cu    Cu3+1 0.026340 0.500000 0.421010 0.932013
Cu3   Cu    Cu3+1 0.473640 0.000000 0.578990 0.938948
Cu4   Cu    Cu3+1 0.973640 0.500000 0.578990 0.938703
H1    H     H_    0.220841 0.875906 0.288267 0.145710
H2    H     H_    0.218959 0.121125 0.283872 0.146232
H3    H     H_    0.720566 0.376273 0.287673 0.145068
H4    H     H_    0.719150 0.621396 0.284340 0.146547
H5    H     H_    0.730841 0.020924 0.139087 0.189976
H6    H     H_    0.229774 0.526359 0.137658 0.182182
H7    H     H_    0.429355 0.992616 0.110892 0.129524
H8    H     H_    0.929677 0.490190 0.110947 0.129962
H9    H     H_    0.293847 0.994675 0.510594 0.118784
H10   H     H_    0.793967 0.493094 0.510669 0.119001
H11   H     H_    0.335267 0.997737 0.888088 0.138280
H12   H     H_    0.835162 0.497011 0.888034 0.138666
H13   H     H_    0.232311 0.993054 0.634084 0.145561
H14   H     H_    0.732367 0.490920 0.634055 0.146153
H15   H     H_    0.513870 0.243847 0.868391 0.137855
H16   H     H_    0.512558 0.753301 0.863666 0.137009
H17   H     H_    0.014141 0.743436 0.869123 0.137642
H18   H     H_    0.012435 0.252962 0.863075 0.137094
H19   H     H_    0.587868 0.308463 0.087699 0.128834
H20   H     H_    0.585989 0.688261 0.082698 0.129335
H21   H     H_    0.088231 0.807926 0.088555 0.129379
H22   H     H_    0.085768 0.187885 0.082043 0.129310
H23   H     H_    0.385717 0.813519 0.181549 0.147481
H24   H     H_    0.386088 0.187637 0.183277 0.146864
H25   H     H_    0.885657 0.313472 0.181551 0.147229
H26   H     H_    0.886000 0.687505 0.182999 0.146705
H27   H     H_    0.766695 0.132706 0.692345 0.146372
H28   H     H_    0.768194 0.869326 0.695354 0.148867
H29   H     H_    0.266597 0.632803 0.692131 0.145963
H30   H     H_    0.268496 0.369691 0.695978 0.151229
H31   H     H_    0.386549 0.780078 0.025190 0.127920
H32   H     H_    0.387715 0.221128 0.027482 0.128594
H33   H     H_    0.886446 0.280217 0.025023 0.128056
H34   H     H_    0.887398 0.720759 0.026852 0.128174
H35   H     H_    0.392388 0.713419 0.867176 0.126918
H36   H     H_    0.394695 0.289417 0.871811 0.127972
H37   H     H_    0.892429 0.213398 0.867281 0.126913
H38   H     H_    0.894256 0.788887 0.870892 0.127320
H39   H     H_    0.520494 0.187274 0.702878 0.173627
H40   H     H_    0.520359 0.811659 0.700418 0.172125
H41   H     H_    0.020583 0.687168 0.703218 0.173289
H42   H     H_    0.020404 0.311523 0.700145 0.172449
H43   H     H_    0.706069 0.010095 0.487369 0.120737
H44   H     H_    0.205000 0.513746 0.487009 0.117366
N1    N     N_R   0.566260 0.000000 0.302220 -0.192047
N2    N     N_R   0.066260 0.500000 0.302220 -0.195635
N3    N     N_R   0.434410 1.000000 0.697680 -0.193823
N4    N     N_R   0.934410 0.500000 0.697680 -0.194201
O1    O     O_R   0.608610 0.924520 0.551740 -0.580055
O2    O     O_R   0.608610 0.075480 0.551740 -0.582628
O3    O     O_R   0.108610 0.424520 0.551740 -0.579042
O4    O     O_R   0.108610 0.575480 0.551740 -0.584428
O5    O     O_R   0.564110 0.924510 0.685150 -0.552092
O6    O     O_R   0.564110 0.075490 0.685150 -0.555755
O7    O     O_R   0.064110 0.424510 0.685150 -0.551821
O8    O     O_R   0.064110 0.575490 0.685150 -0.556465
O9    O     O_R   0.435880 0.075470 0.314850 -0.578299
O10   O     O_R   0.435880 0.924530 0.314850 -0.580911
O11   O     O_R   0.935880 0.575470 0.314850 -0.578092
O12   O     O_R   0.935880 0.424530 0.314850 -0.581017
O13   O     O_R   0.391380 0.075460 0.448260 -0.593426
O14   O     O_R   0.391380 0.924540 0.448260 -0.595873
O15   O     O_R   0.891380 0.575460 0.448260 -0.593560
O16   O     O_R   0.891380 0.424540 0.448260 -0.595736
N5    N     N_3   0.787169 0.024206 0.377529 -0.618513
H45   H     H_    0.809002 0.070124 0.439660 0.218157
H46   H     H_    0.822262 0.980405 0.445054 0.216071
N6    N     N_3   0.286042 0.533725 0.376236 -0.610042
H47   H     H_    0.292446 0.587232 0.359176 0.219401
H48   H     H_    0.324673 0.528042 0.484807 0.207158
N7    N     N_3   0.650961 0.998470 0.890369 -0.493015
H49   H     H_    0.696405 0.041877 0.925757 0.203778
H50   H     H_    0.692763 0.952845 0.939488 0.206173
N8    N     N_3   0.150676 0.498038 0.890897 -0.493451
H51   H     H_    0.196615 0.540899 0.924620 0.202599
H52   H     H_    0.191930 0.452356 0.942041 0.207865

loop_
_geom_bond_atom_site_label_1
_geom_bond_atom_site_label_2
_ccdc_geom_bond_type
C26   H2    S    
N8    H52   S    
C3    O7    A    
N5    H45   S    
C17   H39   S    
C14   C18   A    
C27   H3    S    
N7    H49   S    
C48   C56   A    
C21   H23   S    
C44   H12   S    
C16   H18   S    
C32   C72   A    
C15   C19   A    
C4    O4    A    
C18   C86   A    
C39   O13   A    
C2    C29   S    
C9    C61   A    
C28   C68   A    
C5    C11   A    
C19   C87   A    
C6    C12   A    
C12   C64   A    
Cu1   O1    S    
Cu4   O8    S    
C59   N1    A    
Cu1   O2    S    
C6    C22   A    
C34   N6    S    
C71   C73   A    
C49   C57   A    
C36   H10   S    
C25   C63   A    
C45   C47   A    
C23   C67   A    
C29   C69   A    
C26   C64   A    
C22   C66   A    
C9    C13   A    
C27   C61   A    
C6    C84   A    
C35   N3    A    
C11   C15   A    
C3    O3    A    
C74   H36   S    
C12   C16   A    
C44   C46   A    
C49   C51   A    
C18   H40   S    
C50   C52   A    
C30   C86   A    
C78   H32   S    
C60   H44   S    
C29   C85   A    
Cu2   O3    S    
C13   H15   S    
C72   H30   S    
C58   N2    A    
C62   H20   S    
C22   H24   S    
C79   H33   S    
N5    H46   S    
Cu4   O7    S    
C34   C60   A    
C40   O14   A    
C10   C62   A    
C76   H38   S    
C21   C65   A    
Cu2   N2    S    
C33   N5    S    
C81   C85   A    
C41   C68   S    
C46   C48   A    
C53   C55   A    
C54   C56   A    
Cu1   O9    S    
C31   C87   A    
C48   N4    A    
C57   N1    A    
C26   C66   A    
C76   C80   A    
C58   H8    S    
Cu3   O14   S    
C72   C74   A    
C10   C14   A    
C70   H28   S    
C79   C81   A    
C53   H5    S    
C37   H13   S    
C73   H35   S    
C69   H27   S    
C51   C53   A    
C4    O8    A    
N6    H48   S    
C37   C43   A    
C42   O16   A    
C38   C44   A    
C77   H31   S    
C43   C45   A    
Cu2   Cu4   S    
C45   C49   A    
C25   H1    S    
C16   C20   A    
C38   H14   S    
C50   C58   A    
C40   O10   A    
Cu4   O16   S    
C36   N4    A    
C8    C82   A    
Cu3   N3    S    
C19   H41   S    
Cu2   O12   S    
Cu1   O10   S    
C7    C81   A    
Cu1   N1    S    
C40   C65   S    
C70   C76   A    
C42   C67   S    
C2    O2    A    
C39   C66   S    
C17   C85   A    
C32   C88   A    
C33   C51   A    
C1    O5    A    
C56   N8    S    
Cu4   N4    S    
Cu3   O5    S    
C42   O12   A    
C35   C37   A    
C47   C55   A    
C7    C9    A    
C46   C50   A    
C73   C77   A    
N7    H50   S    
C24   H26   S    
C71   H29   S    
C8    C10   A    
C84   C88   A    
Cu2   O11   S    
C35   H9    S    
C83   C87   A    
C23   H25   S    
C5    C83   A    
Cu3   O13   S    
C41   O11   A    
C2    O6    A    
C39   O9    A    
C34   C52   A    
C13   C17   A    
C28   H4    S    
N6    H47   S    
C36   C38   A    
C60   N2    A    
C55   N7    S    
C82   C86   A    
C14   H16   S    
C15   H17   S    
C1    O1    A    
N8    H51   S    
C80   H34   S    
C61   H19   S    
C7    C23   A    
C20   C88   A    
C59   H43   S    
C1    C30   S    
C8    C24   A    
C80   C82   A    
C52   C54   A    
C69   C75   A    
Cu4   O15   S    
C3    C32   S    
C43   H11   S    
C4    C31   S    
C27   C67   A    
C24   C68   A    
C63   H21   S    
C78   C84   A    
C30   C70   A    
C5    C21   A    
C64   H22   S    
C33   C59   A    
Cu1   Cu3   S    
C74   C78   A    
C47   N3    A    
C25   C65   A    
C77   C83   A    
C54   H6    S    
C20   H42   S    
C11   C63   A    
C75   C79   A    
Cu3   O6    S    
Cu2   O4    S    
C75   H37   S    
C28   C62   A    
C31   C71   A    
C41   O15   A    
C57   H7    S    
