data_mof_unit_pretest_1882.cif
_audit_creation_date              2013-03-05T16:32:47-0500
_audit_creation_method            fapswitch 2.2
_symmetry_space_group_name_H-M    P1
_symmetry_Int_Tables_number       1
_space_group_crystal_system       triclinic
_cell_length_a                    35.665669
_cell_length_b                    35.665655
_cell_length_c                    38.840945
_cell_angle_alpha                 89.99928
_cell_angle_beta                  90.000403
_cell_angle_gamma                 89.999677
_cell_volume                      49407.2141501

loop_
_atom_site_label
_atom_site_type_symbol
_atom_site_description
_atom_site_fract_x
_atom_site_fract_y
_atom_site_fract_z
_atom_type_partial_charge
O1    O     O_R   0.054320 0.468590 0.500060 -0.572302
O2    O     O_R   0.468590 0.945680 0.500060 -0.568198
O3    O     O_R   0.945680 0.531410 0.500060 -0.572289
O4    O     O_R   0.531410 0.054320 0.500060 -0.568244
O5    O     O_R   0.054320 0.531410 0.499940 -0.568219
O6    O     O_R   0.468590 0.054320 0.499940 -0.572322
O7    O     O_R   0.945680 0.468590 0.499940 -0.568206
O8    O     O_R   0.531410 0.945680 0.499940 -0.572285
O9    O     O_R   0.554320 0.968590 0.000060 -0.568264
O10   O     O_R   0.968590 0.445680 0.000060 -0.572344
O11   O     O_R   0.445680 0.031410 0.000060 -0.568183
O12   O     O_R   0.031410 0.554320 0.000060 -0.572276
O13   O     O_R   0.554320 0.031410 0.999940 -0.572339
O14   O     O_R   0.968590 0.554320 0.999940 -0.568188
O15   O     O_R   0.445680 0.968590 0.999940 -0.572270
O16   O     O_R   0.031410 0.445680 0.999940 -0.568271
C1    C     C_R   0.072118 0.499992 0.499986 0.814196
C2    C     C_R   0.500008 0.927883 0.500014 0.814235
C3    C     C_R   0.927883 0.500008 0.499986 0.814224
C4    C     C_R   0.499992 0.072119 0.500013 0.814129
C5    C     C_R   0.572120 0.000007 0.000013 0.814089
C6    C     C_R   0.999992 0.427879 0.999988 0.814060
C7    C     C_R   0.427883 0.999992 0.000015 0.814262
C8    C     C_R   0.000008 0.572117 0.999986 0.814245
O17   O     O_R   0.999950 0.468590 0.450130 -0.578364
O18   O     O_R   0.468590 0.000050 0.450130 -0.578286
O19   O     O_R   0.000050 0.531410 0.450130 -0.578363
O20   O     O_R   0.531410 0.999950 0.450130 -0.578287
O21   O     O_R   0.999950 0.531410 0.549870 -0.578299
O22   O     O_R   0.468590 0.999950 0.549870 -0.578349
O23   O     O_R   0.000050 0.468590 0.549870 -0.578301
O24   O     O_R   0.531410 0.000050 0.549870 -0.578351
O25   O     O_R   0.499950 0.968590 0.950130 -0.578281
O26   O     O_R   0.968590 0.500050 0.950130 -0.578336
O27   O     O_R   0.500050 0.031410 0.950130 -0.578282
O28   O     O_R   0.031410 0.499950 0.950130 -0.578333
O29   O     O_R   0.499950 0.031410 0.049870 -0.578349
O30   O     O_R   0.968590 0.499950 0.049870 -0.578269
O31   O     O_R   0.500050 0.968590 0.049870 -0.578342
O32   O     O_R   0.031410 0.500050 0.049870 -0.578271
C9    C     C_R   1.000000 0.500000 0.433644 0.787286
C10   C     C_R   0.500000 0.000001 0.433646 0.786829
C11   C     C_R   1.000000 0.500000 0.566354 0.786864
C12   C     C_R   0.500000 1.000000 0.566356 0.787266
C13   C     C_R   0.500001 0.000000 0.933646 0.786820
C14   C     C_R   1.000000 0.500000 0.933643 0.787241
C15   C     C_R   0.499999 1.000000 0.066357 0.787255
C16   C     C_R   0.000000 0.499999 0.066354 0.786791
Cu1   Cu    Cu3+1 0.000000 0.462790 0.500000 1.027613
Cu2   Cu    Cu3+1 0.462790 1.000000 0.500000 1.027635
Cu3   Cu    Cu3+1 0.000000 0.537210 0.500000 1.027620
Cu4   Cu    Cu3+1 0.537210 1.000000 0.500000 1.027621
Cu5   Cu    Cu3+1 0.500000 0.962790 0.000000 1.027644
Cu6   Cu    Cu3+1 0.962790 0.500000 0.000000 1.027660
Cu7   Cu    Cu3+1 0.500000 0.037210 0.000000 1.027644
Cu8   Cu    Cu3+1 0.037210 0.500000 0.000000 1.027648
Cu9   Cu    Cu3+1 0.500000 0.500000 0.465840 1.043339
Cu10  Cu    Cu3+1 0.500000 0.500000 0.534160 1.043316
Cu11  Cu    Cu3+1 0.000000 1.000000 0.965840 1.043315
Cu12  Cu    Cu3+1 0.000000 0.000000 0.034160 1.043336
C17   C     C_R   0.012326 0.531633 0.377347 -0.142853
C18   C     C_R   0.531563 0.987503 0.377356 -0.142366
C19   C     C_R   0.987673 0.468369 0.377347 -0.142806
C20   C     C_R   0.468434 0.012498 0.377356 -0.142582
C21   C     C_R   0.012504 0.468439 0.622645 -0.142457
C22   C     C_R   0.531635 0.012316 0.622654 -0.142957
C23   C     C_R   0.987493 0.531562 0.622642 -0.142383
C24   C     C_R   0.468366 0.987677 0.622653 -0.142792
C25   C     C_R   0.512494 0.031566 0.877355 -0.142680
C26   C     C_R   0.031638 0.487694 0.877346 -0.143060
C27   C     C_R   0.487505 0.968434 0.877357 -0.142283
C28   C     C_R   0.968362 0.512316 0.877347 -0.142779
C29   C     C_R   0.512312 0.968363 0.122654 -0.143018
C30   C     C_R   0.031568 0.512488 0.122644 -0.142327
C31   C     C_R   0.487677 0.031634 0.122653 -0.142751
C32   C     C_R   0.968432 0.487512 0.122644 -0.142722
H1    H     H_    0.022105 0.556342 0.390842 0.165246
H2    H     H_    0.556216 0.977589 0.390854 0.164301
H3    H     H_    0.977894 0.443660 0.390842 0.165247
H4    H     H_    0.443781 0.022412 0.390855 0.164300
H5    H     H_    0.022425 0.443788 0.609147 0.164276
H6    H     H_    0.556346 0.022090 0.609159 0.165252
H7    H     H_    0.977572 0.556211 0.609143 0.164286
H8    H     H_    0.443655 0.977905 0.609158 0.165273
H9    H     H_    0.522406 0.056219 0.890853 0.164303
H10   H     H_    0.056352 0.477927 0.890841 0.165270
H11   H     H_    0.477592 0.943781 0.890856 0.164318
H12   H     H_    0.943648 0.522081 0.890841 0.165299
H13   H     H_    0.522084 0.943651 0.109160 0.165260
H14   H     H_    0.056224 0.522395 0.109146 0.164332
H15   H     H_    0.477906 0.056346 0.109158 0.165282
H16   H     H_    0.943776 0.477605 0.109146 0.164321
C33   C     C_R   0.012674 0.531500 0.341373 -0.117447
C34   C     C_R   0.531426 0.987153 0.341382 -0.117831
C35   C     C_R   0.987324 0.468504 0.341372 -0.117444
C36   C     C_R   0.468568 0.012846 0.341383 -0.117867
C37   C     C_R   0.012852 0.468575 0.658619 -0.117834
C38   C     C_R   0.531501 0.012664 0.658628 -0.117507
C39   C     C_R   0.987143 0.531426 0.658616 -0.117804
C40   C     C_R   0.468500 0.987328 0.658627 -0.117430
C41   C     C_R   0.512841 0.031430 0.841381 -0.117897
C42   C     C_R   0.031504 0.487348 0.841372 -0.117548
C43   C     C_R   0.487154 0.968570 0.841383 -0.117806
C44   C     C_R   0.968496 0.512666 0.841372 -0.117433
C45   C     C_R   0.512658 0.968496 0.158628 -0.117522
C46   C     C_R   0.031432 0.512839 0.158618 -0.117831
C47   C     C_R   0.487326 0.031499 0.158627 -0.117425
C48   C     C_R   0.968567 0.487165 0.158618 -0.117917
H17   H     H_    0.022448 0.556232 0.327916 0.167792
H18   H     H_    0.556103 0.977244 0.327925 0.167579
H19   H     H_    0.977550 0.443772 0.327916 0.167781
H20   H     H_    0.443890 0.022754 0.327926 0.167595
H21   H     H_    0.022767 0.443900 0.672076 0.167573
H22   H     H_    0.556235 0.022432 0.672085 0.167777
H23   H     H_    0.977227 0.556102 0.672072 0.167593
H24   H     H_    0.443765 0.977559 0.672084 0.167801
H25   H     H_    0.522748 0.056108 0.827924 0.167583
H26   H     H_    0.056241 0.477587 0.827915 0.167785
H27   H     H_    0.477247 0.943891 0.827927 0.167597
H28   H     H_    0.943759 0.522428 0.827915 0.167807
H29   H     H_    0.522424 0.943761 0.172086 0.167788
H30   H     H_    0.056113 0.522741 0.172074 0.167594
H31   H     H_    0.477559 0.056234 0.172084 0.167796
H32   H     H_    0.943886 0.477264 0.172075 0.167594
C49   C     C_R   0.999999 0.500002 0.323029 0.043371
C50   C     C_R   0.499996 0.999999 0.323039 0.043664
C51   C     C_R   0.999997 0.500001 0.676961 0.043663
C52   C     C_R   0.500000 0.999996 0.676971 0.043373
C53   C     C_R   0.499997 1.000000 0.823039 0.043660
C54   C     C_R   1.000000 0.500007 0.823028 0.043372
C55   C     C_R   0.499992 0.999997 0.176972 0.043371
C56   C     C_R   1.000000 0.500003 0.176962 0.043661
C57   C     C_R   1.000000 0.500001 0.395655 -0.032261
C58   C     C_R   0.499999 0.000001 0.395661 -0.028905
C59   C     C_R   0.999999 0.500000 0.604339 -0.028813
C60   C     C_R   0.500000 0.999998 0.604345 -0.032339
C61   C     C_R   0.500000 1.000000 0.895661 -0.028934
C62   C     C_R   1.000000 0.500003 0.895655 -0.032428
C63   C     C_R   0.499997 0.999999 0.104345 -0.032367
C64   C     C_R   0.000000 0.499999 0.104339 -0.029006
N1    N     N_R   0.976957 0.476727 0.267140 -0.209508
N2    N     N_R   0.476846 0.023168 0.267150 -0.209718
N3    N     N_R   0.023041 0.523278 0.267140 -0.209494
N4    N     N_R   0.523142 0.976828 0.267151 -0.209702
N5    N     N_R   0.976823 0.523146 0.732848 -0.209676
N6    N     N_R   0.476718 0.976961 0.732860 -0.209468
N7    N     N_R   0.023174 0.476861 0.732850 -0.209728
N8    N     N_R   0.523279 0.023034 0.732860 -0.209545
N9    N     N_R   0.476830 0.976848 0.767151 -0.209659
N10   N     N_R   0.976711 0.523034 0.767139 -0.209462
N11   N     N_R   0.523166 0.023148 0.767150 -0.209760
N12   N     N_R   0.023287 0.476975 0.767141 -0.209560
N13   N     N_R   0.476958 0.023280 0.232860 -0.209472
N14   N     N_R   0.976844 0.476840 0.232850 -0.209756
N15   N     N_R   0.523028 0.976715 0.232860 -0.209543
N16   N     N_R   0.023154 0.523166 0.232850 -0.209675
C65   C     C_R   0.999999 0.500003 0.215013 0.419363
C66   C     C_R   0.499992 0.999997 0.215023 0.419424
C67   C     C_R   0.999999 0.500006 0.784977 0.419421
C68   C     C_R   0.499998 0.999999 0.784987 0.419369
C69   C     C_R   0.499999 0.999997 0.715023 0.419424
C70   C     C_R   0.999998 0.500003 0.715012 0.419377
C71   C     C_R   0.499995 0.999998 0.284988 0.419370
C72   C     C_R   0.999999 0.500003 0.284978 0.419429
C73   C     C_R   0.327543 0.513130 0.530683 0.311204
C74   C     C_R   0.502941 0.673431 0.530615 0.316084
C75   C     C_R   0.672461 0.486914 0.530693 0.311203
C76   C     C_R   0.496800 0.326571 0.530579 0.316109
C77   C     C_R   0.326567 0.497018 0.469393 0.316111
C78   C     C_R   0.513349 0.327549 0.469387 0.311241
C79   C     C_R   0.673431 0.502943 0.469385 0.316093
C80   C     C_R   0.486920 0.672462 0.469305 0.311202
C81   C     C_R   0.826564 0.003155 0.030569 0.316187
C82   C     C_R   0.013482 0.172441 0.030580 0.311250
C83   C     C_R   0.173430 0.997089 0.030625 0.316071
C84   C     C_R   0.986922 0.827538 0.030693 0.311208
C85   C     C_R   0.827557 0.986676 0.969361 0.311211
C86   C     C_R   0.002938 0.826569 0.969383 0.316082
C87   C     C_R   0.172465 0.013045 0.969301 0.311212
C88   C     C_R   0.996683 0.173432 0.969445 0.316158
C89   C     C_R   0.366765 0.510463 0.530374 -0.210834
C90   C     C_R   0.504891 0.634102 0.530240 -0.213388
C91   C     C_R   0.633239 0.489579 0.530384 -0.210843
C92   C     C_R   0.494857 0.365899 0.530196 -0.213383
C93   C     C_R   0.365896 0.495068 0.469768 -0.213395
C94   C     C_R   0.510675 0.366772 0.469681 -0.210881
C95   C     C_R   0.634102 0.504894 0.469760 -0.213384
C96   C     C_R   0.489584 0.633239 0.469615 -0.210848
C97   C     C_R   0.865893 0.005101 0.030194 -0.213408
C98   C     C_R   0.010801 0.133220 0.030291 -0.210868
C99   C     C_R   0.134101 0.995138 0.030249 -0.213374
C100  C     C_R   0.989585 0.866760 0.030384 -0.210851
C101  C     C_R   0.866778 0.989354 0.969664 -0.210822
C102  C     C_R   0.004889 0.865898 0.969759 -0.213379
C103  C     C_R   0.133243 0.010383 0.969611 -0.210851
C104  C     C_R   0.994742 0.134103 0.969830 -0.213389
H33   H     H_    0.382208 0.516406 0.553759 0.206502
H34   H     H_    0.511277 0.619278 0.553861 0.207499
H35   H     H_    0.617798 0.483666 0.553776 0.206518
H36   H     H_    0.488265 0.380721 0.553770 0.207398
H37   H     H_    0.380719 0.488646 0.446155 0.207481
H38   H     H_    0.516787 0.382221 0.446335 0.206423
H39   H     H_    0.619278 0.511284 0.446140 0.207500
H40   H     H_    0.483674 0.617798 0.446221 0.206519
H41   H     H_    0.880711 0.011665 0.053776 0.207416
H42   H     H_    0.017007 0.117765 0.053613 0.206372
H43   H     H_    0.119276 0.988777 0.053874 0.207509
H44   H     H_    0.983677 0.882200 0.053778 0.206519
H45   H     H_    0.882230 0.983272 0.946314 0.206429
H46   H     H_    0.011274 0.880723 0.946138 0.207501
H47   H     H_    0.117803 0.016268 0.946210 0.206531
H48   H     H_    0.988053 0.119284 0.946277 0.207350
C105  C     C_R   0.386197 0.501568 0.500094 -0.156519
C106  C     C_R   0.498434 0.613804 0.499906 -0.156544
C107  C     C_R   0.613804 0.498433 0.500094 -0.156543
C108  C     C_R   0.501568 0.386200 0.499910 -0.156430
C109  C     C_R   0.886200 0.998427 0.999905 -0.156444
C110  C     C_R   0.001572 0.113798 0.000090 -0.156373
C111  C     C_R   0.113804 0.001564 0.999907 -0.156554
C112  C     C_R   0.998434 0.886196 0.000094 -0.156544
C113  C     C_R   0.307183 0.505542 0.500234 -0.131106
C114  C     C_R   0.494464 0.692819 0.499765 -0.131109
C115  C     C_R   0.692819 0.494462 0.500234 -0.131105
C116  C     C_R   0.505543 0.307188 0.499790 -0.131128
C117  C     C_R   0.807188 0.994444 0.999767 -0.131105
C118  C     C_R   0.005553 0.192808 0.000207 -0.131129
C119  C     C_R   0.192820 0.005533 0.999769 -0.131104
C120  C     C_R   0.994464 0.807181 0.000233 -0.131106
C121  C     C_1   0.266709 0.503410 0.501381 0.176161
C122  C     C_1   0.496598 0.733293 0.498624 0.176151
C123  C     C_1   0.733293 0.496596 0.501375 0.176155
C124  C     C_1   0.503416 0.266714 0.498632 0.176142
C125  C     C_1   0.766715 0.996565 0.998599 0.176173
C126  C     C_1   0.003434 0.233282 0.001379 0.176148
C127  C     C_1   0.233294 0.003397 0.998635 0.176152
C128  C     C_1   0.996598 0.766707 0.001372 0.176153
C129  C     C_1   0.232956 0.501283 0.502088 0.191095
C130  C     C_1   0.498727 0.767046 0.497921 0.191093
C131  C     C_1   0.767045 0.498725 0.502079 0.191097
C132  C     C_1   0.501292 0.232961 0.497914 0.191092
C133  C     C_1   0.732963 0.998688 0.997878 0.191099
C134  C     C_1   0.001312 0.267034 0.002106 0.191093
C135  C     C_1   0.267047 0.001267 0.997935 0.191098
C136  C     C_1   0.998727 0.732954 0.002075 0.191098
C137  C     C_R   0.172227 0.513307 0.530597 0.281523
C138  C     C_R   0.515634 0.826604 0.526559 0.286876
C139  C     C_R   0.827773 0.486765 0.530616 0.281552
C140  C     C_R   0.484152 0.173406 0.526440 0.286788
C141  C     C_R   0.173400 0.484299 0.473482 0.286872
C142  C     C_R   0.513469 0.172232 0.469459 0.281485
C143  C     C_R   0.826604 0.515640 0.473444 0.286877
C144  C     C_R   0.486773 0.827773 0.469381 0.281552
C145  C     C_R   0.673419 0.015937 0.026368 0.286844
C146  C     C_R   0.013652 0.327769 0.030490 0.281429
C147  C     C_R   0.326611 0.984427 0.026600 0.286879
C148  C     C_R   0.986788 0.672228 0.030621 0.281563
C149  C     C_R   0.672223 0.986414 0.969478 0.281434
C150  C     C_R   0.015620 0.673394 0.973431 0.286876
C151  C     C_R   0.327770 0.013158 0.969366 0.281584
C152  C     C_R   0.984000 0.326582 0.973656 0.286767
C153  C     C_R   0.132739 0.514174 0.529513 -0.147928
C154  C     C_R   0.515166 0.866158 0.527314 -0.153216
C155  C     C_R   0.867261 0.485894 0.529537 -0.147914
C156  C     C_R   0.484615 0.133853 0.527203 -0.153306
C157  C     C_R   0.133847 0.484763 0.472724 -0.153251
C158  C     C_R   0.514328 0.132744 0.470546 -0.147980
C159  C     C_R   0.866158 0.515173 0.472690 -0.153220
C160  C     C_R   0.485902 0.867261 0.470461 -0.147918
C161  C     C_R   0.633865 0.015483 0.027141 -0.153373
C162  C     C_R   0.014500 0.367257 0.029394 -0.148017
C163  C     C_R   0.366164 0.984897 0.027350 -0.153182
C164  C     C_R   0.985916 0.632739 0.029543 -0.147916
C165  C     C_R   0.632736 0.985561 0.970577 -0.147983
C166  C     C_R   0.015152 0.633841 0.972678 -0.153209
C167  C     C_R   0.367259 0.014032 0.970440 -0.147903
C168  C     C_R   0.984456 0.366136 0.972884 -0.153383
C169  C     C_R   0.113506 0.499926 0.500603 -0.198724
C170  C     C_R   0.500075 0.886496 0.499401 -0.198671
C171  C     C_R   0.886496 0.500075 0.500600 -0.198676
C172  C     C_R   0.499926 0.113509 0.499393 -0.198838
C173  C     C_R   0.613511 0.000071 0.999383 -0.198915
C174  C     C_R   0.999929 0.386487 0.000615 -0.198962
C175  C     C_R   0.386497 0.999925 0.999405 -0.198622
C176  C     C_R   0.000074 0.613504 0.000598 -0.198660
C177  C     C_R   0.192468 0.498824 0.502396 -0.135739
C178  C     C_R   0.501184 0.807534 0.497616 -0.135763
C179  C     C_R   0.807533 0.501183 0.502385 -0.135761
C180  C     C_R   0.498834 0.192474 0.497594 -0.135698
C181  C     C_R   0.692475 0.001149 0.997561 -0.135654
C182  C     C_R   0.998853 0.307521 0.002432 -0.135642
C183  C     C_R   0.307535 0.998810 0.997630 -0.135781
C184  C     C_R   0.001185 0.692466 0.002381 -0.135764
O33   O     O_R   0.499940 0.554330 0.471170 -0.576860
O34   O     O_R   0.554330 0.500060 0.471170 -0.577401
O35   O     O_R   0.500060 0.445670 0.471170 -0.576788
O36   O     O_R   0.445670 0.499940 0.471170 -0.577366
O37   O     O_R   0.499940 0.445670 0.528830 -0.577349
O38   O     O_R   0.554330 0.499940 0.528830 -0.576848
O39   O     O_R   0.500060 0.554330 0.528830 -0.577384
O40   O     O_R   0.445670 0.500060 0.528830 -0.576873
O41   O     O_R   0.999940 0.054330 0.971170 -0.577322
O42   O     O_R   0.054330 0.000060 0.971170 -0.576850
O43   O     O_R   0.000060 0.945670 0.971170 -0.577401
O44   O     O_R   0.945670 0.999940 0.971170 -0.576839
O45   O     O_R   0.999940 0.945670 0.028830 -0.576850
O46   O     O_R   0.054330 0.999940 0.028830 -0.577418
O47   O     O_R   0.000060 0.054330 0.028830 -0.576773
O48   O     O_R   0.945670 0.000060 0.028830 -0.577335
C185  C     C_R   0.499757 0.572340 0.499992 0.837245
C186  C     C_R   0.572340 0.499757 0.500008 0.837228
C187  C     C_R   0.500243 0.427661 0.499993 0.837178
C188  C     C_R   0.427660 0.500243 0.500008 0.837218
C189  C     C_R   0.000243 0.072338 0.000007 0.837139
C190  C     C_R   0.072340 0.000243 0.999992 0.837226
C191  C     C_R   0.999757 0.927660 0.000008 0.837234
C192  C     C_R   0.927661 0.999756 0.999992 0.837169
N17   N     N_R   0.308923 0.524117 0.561935 0.153025
O49   O     O_R   0.281341 0.547965 0.560937 -0.263203
O50   O     O_R   0.322959 0.514870 0.591675 -0.283720
N18   N     N_R   0.509565 0.693062 0.562454 0.159108
O51   O     O_R   0.490637 0.723151 0.569999 -0.277714
O52   O     O_R   0.531312 0.678518 0.585813 -0.281373
N19   N     N_R   0.691084 0.475972 0.561957 0.153038
O53   O     O_R   0.718672 0.452130 0.560987 -0.263230
O54   O     O_R   0.677049 0.485257 0.591687 -0.283732
N20   N     N_R   0.489892 0.306934 0.562364 0.159095
O55   O     O_R   0.508765 0.276854 0.570055 -0.277708
O56   O     O_R   0.467921 0.321465 0.585553 -0.281373
N21   N     N_R   0.306933 0.490343 0.437565 0.159114
O57   O     O_R   0.276839 0.509254 0.429999 -0.277775
O58   O     O_R   0.321477 0.468563 0.414232 -0.281394
N22   N     N_R   0.524566 0.308932 0.438202 0.153065
O59   O     O_R   0.548380 0.281329 0.439348 -0.263254
O60   O     O_R   0.515566 0.322988 0.408406 -0.283732
N23   N     N_R   0.693063 0.509572 0.437547 0.159111
O61   O     O_R   0.723152 0.490646 0.430000 -0.277708
O62   O     O_R   0.678518 0.531323 0.414190 -0.281374
N24   N     N_R   0.475982 0.691085 0.438040 0.153041
O63   O     O_R   0.452141 0.718673 0.439008 -0.263232
O64   O     O_R   0.485271 0.677050 0.408311 -0.283726
N25   N     N_R   0.806920 0.010029 0.062357 0.159133
O65   O     O_R   0.776814 0.991180 0.070009 -0.277919
O66   O     O_R   0.821463 0.031947 0.085582 -0.281400
N26   N     N_R   0.024833 0.191052 0.061728 0.153034
O67   O     O_R   0.048653 0.218646 0.060501 -0.263201
O68   O     O_R   0.015957 0.176992 0.091554 -0.283755
N27   N     N_R   0.193058 0.990501 0.062471 0.159104
O69   O     O_R   0.223139 0.009445 0.070006 -0.277631
O70   O     O_R   0.178517 0.968771 0.085847 -0.281369
N28   N     N_R   0.975986 0.808913 0.061959 0.153047
O71   O     O_R   0.952148 0.781322 0.060991 -0.263242
O72   O     O_R   0.985274 0.822950 0.091688 -0.283739
N29   N     N_R   0.808947 0.975491 0.938163 0.152971
O73   O     O_R   0.781380 0.951635 0.939280 -0.263116
O74   O     O_R   0.822987 0.984559 0.908378 -0.283764
N30   N     N_R   0.009560 0.806939 0.937544 0.159109
O75   O     O_R   0.990628 0.776853 0.929997 -0.277675
O76   O     O_R   0.031308 0.821482 0.914184 -0.281368
N31   N     N_R   0.191091 0.023946 0.938027 0.153058
O77   O     O_R   0.218686 0.047781 0.938974 -0.263264
O78   O     O_R   0.177055 0.014628 0.908306 -0.283728
N32   N     N_R   0.989640 0.193074 0.937688 0.159107
O79   O     O_R   0.008472 0.223160 0.929938 -0.277796
O80   O     O_R   0.967574 0.178544 0.914574 -0.281384
N33   N     N_R   0.191802 0.526426 0.560610 0.146546
O81   O     O_R   0.215024 0.504361 0.576632 -0.271843
O82   O     O_R   0.185193 0.559702 0.572926 -0.275945
N34   N     N_R   0.530803 0.805802 0.555100 0.151114
O83   O     O_R   0.555541 0.779597 0.549868 -0.286238
O84   O     O_R   0.519945 0.812949 0.586402 -0.274310
N35   N     N_R   0.808195 0.473716 0.560654 0.146568
O85   O     O_R   0.784964 0.495815 0.576625 -0.271878
O86   O     O_R   0.814808 0.440471 0.573040 -0.275928
N36   N     N_R   0.468753 0.194212 0.554875 0.151091
O87   O     O_R   0.444050 0.220410 0.549470 -0.286196
O88   O     O_R   0.479366 0.187077 0.586250 -0.274346
N37   N     N_R   0.194206 0.469058 0.444975 0.151109
O89   O     O_R   0.220415 0.444339 0.450264 -0.286275
O90   O     O_R   0.187058 0.479834 0.413649 -0.274323
N38   N     N_R   0.526755 0.191807 0.439508 0.146556
O91   O     O_R   0.504787 0.215049 0.423395 -0.271929
O92   O     O_R   0.560093 0.185188 0.427340 -0.275925
N39   N     N_R   0.805801 0.530816 0.444906 0.151113
O93   O     O_R   0.779595 0.555551 0.450143 -0.286246
O94   O     O_R   0.812949 0.519966 0.413602 -0.274316
N40   N     N_R   0.473732 0.808195 0.439341 0.146569
O95   O     O_R   0.495834 0.784963 0.423375 -0.271888
O96   O     O_R   0.440490 0.814809 0.426947 -0.275923
N41   N     N_R   0.694236 0.031429 0.054754 0.151087
O97   O     O_R   0.720453 0.056090 0.049271 -0.286394
O98   O     O_R   0.687099 0.020936 0.086162 -0.274326
N42   N     N_R   0.027116 0.308200 0.060377 0.146511
O99   O     O_R   0.005238 0.284976 0.076613 -0.271874
O100  O     O_R   0.060531 0.314813 0.072371 -0.275962
N43   N     N_R   0.305813 0.969321 0.055172 0.151117
O101  O     O_R   0.279611 0.944567 0.049989 -0.286187
O102  O     O_R   0.312963 0.980251 0.086452 -0.274310
N44   N     N_R   0.973761 0.691806 0.060666 0.146576
O103  O     O_R   0.995870 0.715043 0.076620 -0.271904
O104  O     O_R   0.940527 0.685192 0.073076 -0.275911
N45   N     N_R   0.691788 0.973022 0.939562 0.146476
O105  O     O_R   0.714980 0.994952 0.923348 -0.271750
O106  O     O_R   0.685188 0.939628 0.927514 -0.276012
N46   N     N_R   0.030776 0.694195 0.944884 0.151114
O107  O     O_R   0.055518 0.720399 0.950106 -0.286222
O108  O     O_R   0.019902 0.687048 0.913586 -0.274304
N47   N     N_R   0.308188 0.026132 0.939303 0.146593
O109  O     O_R   0.284944 0.003998 0.923388 -0.271921
O110  O     O_R   0.314804 0.059343 0.926842 -0.275896
N48   N     N_R   0.968438 0.305769 0.945300 0.151078
O111  O     O_R   0.943773 0.279567 0.950830 -0.286260
O112  O     O_R   0.978868 0.312899 0.913872 -0.274349
C193  C     C_1   0.111887 0.527703 0.559036 0.366462
N49   N     N_1   0.095182 0.538455 0.582599 -0.228888
C194  C     C_1   0.530482 0.885947 0.556711 0.368597
N50   N     N_1   0.542678 0.901829 0.580162 -0.225019
C195  C     C_1   0.888112 0.472430 0.559085 0.366376
N51   N     N_1   0.904817 0.461729 0.582669 -0.228978
C196  C     C_1   0.469077 0.114071 0.556506 0.368929
N52   N     N_1   0.456704 0.098196 0.579883 -0.224731
C197  C     C_1   0.114061 0.469373 0.443358 0.368704
N53   N     N_1   0.098182 0.457118 0.419931 -0.224933
C198  C     C_1   0.528004 0.111893 0.441080 0.366652
N54   N     N_1   0.538873 0.095189 0.417561 -0.228686
C199  C     C_1   0.885947 0.530497 0.443296 0.368604
N55   N     N_1   0.901828 0.542699 0.419848 -0.225018
C200  C     C_1   0.472445 0.888113 0.440910 0.366371
N56   N     N_1   0.461749 0.904817 0.417324 -0.228967
C201  C     C_1   0.614095 0.031128 0.056402 0.369093
N57   N     N_1   0.598229 0.043587 0.079745 -0.224579
C202  C     C_1   0.028339 0.388110 0.058794 0.366875
N58   N     N_1   0.039338 0.404816 0.082261 -0.228458
C203  C     C_1   0.385959 0.969646 0.056772 0.368506
N59   N     N_1   0.401845 0.957502 0.080243 -0.225099
C204  C     C_1   0.972473 0.611889 0.059100 0.366362
N60   N     N_1   0.961789 0.595185 0.082691 -0.228969
C205  C     C_1   0.611880 0.971781 0.941155 0.366803
N61   N     N_1   0.595170 0.960828 0.917672 -0.228549
C206  C     C_1   0.030454 0.614050 0.943276 0.368585
N62   N     N_1   0.042639 0.598167 0.919821 -0.225023
C207  C     C_1   0.388107 0.027425 0.940863 0.366292
N63   N     N_1   0.404809 0.038069 0.917257 -0.229044
C208  C     C_1   0.968752 0.385908 0.943650 0.369185
N64   N     N_1   0.956247 0.401776 0.920328 -0.224499

loop_
_geom_bond_atom_site_label_1
_geom_bond_atom_site_label_2
_geom_bond_distance
_ccdc_geom_bond_type
C200  N56   1.157446 T    
C31   C47   1.397344 A    
O25   C13   1.290310 A    
C199  N55   1.157459 T    
N8    N11   1.331888 A    
C107  C186  1.479594 S    
C154  C194  1.449232 S    
C17   C57   1.404178 A    
C45   C55   1.404990 A    
C87   C103  1.402169 A    
C205  N61   1.157458 T    
C46   C56   1.405001 A    
C85   C101  1.402140 A    
C19   C57   1.404179 A    
C111  C190  1.479607 S    
O18   Cu2   1.948015 S    
N1    N14   1.331891 A    
C38   H22   1.082945 S    
C133  C181  1.446715 S    
C94   H38   1.083218 S    
C5    C173  1.476453 S    
O24   Cu4   1.948011 S    
C28   H12   1.083049 S    
O39   C185  1.291246 A    
Cu1   Cu3   2.654234 S    
Cu2   Cu4   2.654236 S    
O3    C3    1.287357 A    
N20   O55   1.301235 A    
Cu11  O43   1.948741 S    
C88   C104  1.404467 A    
Cu11  O42   1.948740 S    
Cu5   Cu7   2.654234 S    
Cu11  Cu12  2.653609 S    
N15   C66   1.358120 A    
O25   Cu5   1.948011 S    
C161  C173  1.411211 A    
C143  C179  1.411406 A    
C48   H32   1.082944 S    
N34   O83   1.301258 A    
N29   O74   1.301414 A    
C97   C109  1.401887 A    
O44   C192  1.290661 A    
C95   C107  1.401917 A    
C91   C107  1.401529 A    
N6    C69   1.358120 A    
C20   C58   1.404119 A    
N10   C67   1.358120 A    
C137  C177  1.409897 A    
N19   O53   1.300995 A    
O46   C190  1.291247 A    
C19   C35   1.397347 A    
C27   C61   1.404124 A    
O17   C9    1.290360 A    
N2    C71   1.358118 A    
N23   O62   1.301492 A    
O27   Cu7   1.948016 S    
C54   C67   1.477945 S    
C55   C66   1.477945 S    
N40   O96   1.301125 A    
Cu9   O35   1.948741 S    
C22   H6    1.083049 S    
C86   C102  1.404492 A    
O40   C188  1.290682 A    
Cu10  O40   1.948743 S    
O13   C5    1.287403 A    
N22   O59   1.300997 A    
C127  C135  1.206523 T    
C21   C59   1.404115 A    
C78   C116  1.413970 A    
C139  C179  1.409909 A    
C26   C62   1.404180 A    
O7    C3    1.287829 A    
N41   O97   1.301259 A    
C109  C192  1.479498 S    
C104  C110  1.401863 A    
C121  C129  1.206519 T    
N39   O93   1.301261 A    
O27   C13   1.290320 A    
C143  C159  1.411105 A    
O31   C15   1.290361 A    
O32   C16   1.290317 A    
C131  C179  1.446736 S    
C132  C180  1.446733 S    
C24   C40   1.397347 A    
C42   C54   1.404991 A    
N7    C70   1.358117 A    
C79   C115  1.416089 A    
C19   H3    1.083051 S    
C25   C41   1.397324 A    
C56   C65   1.477937 S    
C10   C58   1.475358 S    
C158  C172  1.410609 A    
C30   H14   1.083050 S    
C157  C197  1.449233 S    
C117  C125  1.446200 S    
C81   C117  1.416118 A    
N33   O81   1.300997 A    
C167  C207  1.449407 S    
C168  C208  1.449226 S    
O9    C5    1.287870 A    
C168  C174  1.411226 A    
O11   C7    1.287819 A    
N28   O71   1.301000 A    
C134  C182  1.446720 S    
C142  N38   1.437136 S    
N23   O61   1.301237 A    
O4    C4    1.287863 A    
O36   C188  1.291241 A    
N31   O77   1.300999 A    
O5    Cu3   1.948368 S    
C146  C182  1.409874 A    
C139  C155  1.409336 A    
N38   O91   1.300999 A    
C140  C156  1.411101 A    
C164  C176  1.410546 A    
C23   H7    1.083052 S    
C197  N53   1.157462 T    
C104  H48   1.083134 S    
C95   H39   1.083098 S    
C150  C166  1.411100 A    
C86   N30   1.440597 S    
C196  N52   1.157465 T    
C74   C90   1.404494 A    
C137  C153  1.409330 A    
C103  C111  1.401536 A    
N45   O105  1.300992 A    
C112  C191  1.479597 S    
C149  C181  1.409856 A    
C201  N57   1.157474 T    
C101  C109  1.401500 A    
O23   C11   1.290315 A    
C98   H42   1.083238 S    
N27   O70   1.301493 A    
N32   O79   1.301228 A    
C85   N29   1.438064 S    
C74   N18   1.440602 S    
C141  C157  1.411106 A    
N13   C66   1.358119 A    
C35   C49   1.404993 A    
N36   O87   1.301261 A    
C147  C183  1.411409 A    
O2    Cu2   1.948371 S    
Cu12  O45   1.948746 S    
C29   C45   1.397346 A    
C17   H1    1.083051 S    
C158  C198  1.449419 S    
C92   H36   1.083115 S    
O28   C14   1.290362 A    
O26   C14   1.290361 A    
O29   C15   1.290362 A    
C167  C175  1.410536 A    
O8    Cu4   1.948373 S    
O30   C16   1.290318 A    
N5    N10   1.331891 A    
C31   H15   1.083055 S    
C28   C62   1.404183 A    
N12   C67   1.358117 A    
C137  N33   1.437122 S    
N21   O58   1.301494 A    
C76   N20   1.440581 S    
Cu10  O38   1.948742 S    
O19   Cu3   1.948016 S    
C80   N24   1.438077 S    
N25   O66   1.301494 A    
C84   C120  1.413946 A    
C16   C64   1.475362 S    
N46   O107  1.301260 A    
C20   C36   1.397323 A    
C6    C174  1.476493 S    
C145  N41   1.439486 S    
C96   C106  1.401532 A    
C29   C63   1.404183 A    
C30   C64   1.404122 A    
C96   H40   1.083203 S    
O6    Cu2   1.948370 S    
N19   O54   1.301409 A    
N18   O52   1.301494 A    
O16   Cu8   1.948373 S    
C162  C202  1.449418 S    
C102  H46   1.083101 S    
C163  C175  1.411110 A    
C202  N58   1.157458 T    
C46   H30   1.082944 S    
N30   O76   1.301490 A    
C36   C50   1.404998 A    
C99   H43   1.083097 S    
C162  C174  1.410646 A    
N48   O111  1.301260 A    
C126  C134  1.206508 T    
C51   C70   1.477937 S    
N24   O64   1.301413 A    
N44   O104  1.301128 A    
C138  C178  1.411405 A    
C49   C72   1.477945 S    
C15   C63   1.475513 S    
C50   C71   1.477937 S    
C25   H9    1.083052 S    
O18   C10   1.290315 A    
O21   Cu3   1.948007 S    
C150  C184  1.411407 A    
C27   C43   1.397324 A    
C40   C52   1.404990 A    
C148  N44   1.437130 S    
C18   H2    1.083051 S    
C4    C172  1.476406 S    
C156  C196  1.449227 S    
C7    C175  1.476258 S    
O12   C8    1.287353 A    
C151  N47   1.437134 S    
C118  C126  1.446193 S    
C22   C38   1.397347 A    
C31   C63   1.404181 A    
Cu12  O47   1.948738 S    
Cu9   Cu10  2.653609 S    
C83   N27   1.440595 S    
C88   C118  1.416097 A    
C93   C105  1.401914 A    
N47   O110  1.301123 A    
C87   C119  1.413945 A    
N9    C68   1.358120 A    
N37   O90   1.301198 A    
C80   C114  1.413946 A    
O43   C191  1.291242 A    
C152  C168  1.411109 A    
C153  C169  1.410567 A    
N26   O67   1.301004 A    
C114  C122  1.446223 S    
N1    C72   1.358115 A    
C89   C105  1.401526 A    
O13   Cu7   1.948368 S    
C53   C68   1.477937 S    
O42   C190  1.290695 A    
C33   H17   1.082946 S    
Cu11  O41   1.948743 S    
C41   C53   1.404999 A    
C12   C60   1.475513 S    
C3    C171  1.476290 S    
C193  N49   1.157449 T    
C78   N22   1.438099 S    
C40   H24   1.082949 S    
C47   H31   1.082946 S    
C129  C177  1.446731 S    
C74   C114  1.416092 A    
N34   O84   1.301200 A    
N29   O73   1.300993 A    
C146  N42   1.437124 S    
O10   C6    1.287418 A    
C155  C195  1.449413 S    
O41   C189  1.291200 A    
C84   N28   1.438082 S    
O15   Cu5   1.948372 S    
C39   H23   1.082943 S    
C17   C33   1.397347 A    
C92   C108  1.401879 A    
O5    C1    1.287836 A    
C77   N21   1.440608 S    
N35   O85   1.300994 A    
C160  C170  1.410552 A    
C83   C119  1.416077 A    
C93   H37   1.083100 S    
N17   O50   1.301412 A    
O35   C187  1.290671 A    
Cu9   O34   1.948740 S    
C144  C160  1.409340 A    
C97   H41   1.083107 S    
O32   Cu8   1.948011 S    
C151  C167  1.409347 A    
O47   C189  1.290656 A    
C110  C189  1.479454 S    
C138  C154  1.411101 A    
C164  C204  1.449412 S    
C23   C39   1.397324 A    
O33   C185  1.290688 A    
C38   C52   1.404991 A    
O22   Cu2   1.948008 S    
C89   H33   1.083202 S    
C32   C48   1.397323 A    
C44   C54   1.404990 A    
O21   C11   1.290311 A    
C135  C183  1.446739 S    
C20   H4    1.083053 S    
O22   C12   1.290357 A    
O23   Cu1   1.948012 S    
C98   C110  1.401495 A    
C9    C57   1.475509 S    
C115  C123  1.446224 S    
C195  N51   1.157445 T    
C152  C182  1.411380 A    
C43   H27   1.082943 S    
C87   N31   1.438079 S    
C24   H8    1.083051 S    
C142  C158  1.409341 A    
N14   C65   1.358117 A    
N27   O69   1.301240 A    
O3    Cu3   1.948374 S    
C128  C136  1.206523 T    
C102  C112  1.401918 A    
C28   C44   1.397351 A    
C139  N35   1.437125 S    
C34   H18   1.082942 S    
O8    C2    1.287355 A    
C144  C178  1.409911 A    
C161  C201  1.449229 S    
C206  N62   1.157458 T    
O28   Cu8   1.948012 S    
N6    N9    1.331887 A    
C36   H20   1.082942 S    
C21   H5    1.083050 S    
O30   Cu6   1.948008 S    
C165  C173  1.410623 A    
C78   C94   1.402182 A    
C88   N32   1.440588 S    
N28   O72   1.301410 A    
C43   C53   1.404998 A    
C75   C115  1.413941 A    
C147  N43   1.439462 S    
C82   C98   1.402172 A    
C27   H11   1.083055 S    
N42   O100  1.301128 A    
C159  C199  1.449226 S    
C82   N26   1.438096 S    
C163  C203  1.449227 S    
N4    C71   1.358116 A    
O9    Cu5   1.948371 S    
C32   C64   1.404120 A    
N3    C72   1.358121 A    
O11   Cu7   1.948374 S    
N38   O92   1.301123 A    
C138  N34   1.439470 S    
O16   C6    1.287885 A    
C143  N39   1.439467 S    
N46   O108  1.301200 A    
N42   O99   1.300996 A    
C81   N25   1.440618 S    
N43   O101  1.301260 A    
C26   C42   1.397343 A    
O6    C4    1.287390 A    
C145  C161  1.411122 A    
O45   C191  1.290692 A    
C41   H25   1.082947 S    
C77   C93   1.404496 A    
C116  C124  1.446212 S    
N40   O95   1.300994 A    
C82   C118  1.413974 A    
C29   H13   1.083048 S    
Cu9   O36   1.948746 S    
N18   O51   1.301238 A    
C157  C169  1.411149 A    
O31   Cu5   1.948012 S    
N32   O80   1.301499 A    
C166  C206  1.449232 S    
C155  C171  1.410550 A    
C159  C171  1.411131 A    
C52   C69   1.477945 S    
O17   Cu1   1.948011 S    
Cu12  O46   1.948742 S    
O38   C186  1.290687 A    
C113  C121  1.446219 S    
N41   O98   1.301203 A    
C150  N46   1.439463 S    
C44   H28   1.082947 S    
C152  N48   1.439479 S    
Cu12  O48   1.948743 S    
O2    C2    1.287828 A    
O20   Cu4   1.948012 S    
N21   O57   1.301236 A    
C149  N45   1.437102 S    
C90   H34   1.083098 S    
C37   C51   1.405003 A    
Cu10  O39   1.948738 S    
C207  N63   1.157445 T    
C147  C163  1.411098 A    
N25   O65   1.301238 A    
C148  C164  1.409343 A    
O4    Cu4   1.948368 S    
N8    C69   1.358121 A    
N16   C65   1.358117 A    
N22   O60   1.301417 A    
C105  C188  1.479574 S    
N33   O82   1.301124 A    
C83   C99   1.404490 A    
C84   C100  1.402163 A    
N5    C70   1.358117 A    
O14   C8    1.287826 A    
C154  C170  1.411129 A    
C123  C131  1.206518 T    
C81   C97   1.404502 A    
O37   C187  1.291209 A    
O48   C192  1.291224 A    
C2    C170  1.476286 S    
C136  C184  1.446734 S    
C77   C113  1.416099 A    
C8    C176  1.476281 S    
N35   O86   1.301126 A    
C94   C108  1.401506 A    
N47   O109  1.300999 A    
C86   C120  1.416088 A    
C42   H26   1.082950 S    
C14   C62   1.475521 S    
O15   C7    1.287346 A    
C73   C113  1.413941 A    
C144  N40   1.437129 S    
C141  C177  1.411404 A    
C100  H44   1.083203 S    
C76   C116  1.416090 A    
C141  N37   1.439476 S    
N45   O106  1.301124 A    
C160  C200  1.449411 S    
C34   C50   1.405003 A    
C25   C61   1.404117 A    
Cu6   Cu8   2.654236 S    
C48   C56   1.404999 A    
C79   N23   1.440599 S    
C24   C60   1.404178 A    
C166  C176  1.411124 A    
O7    Cu1   1.948372 S    
C47   C55   1.404991 A    
C99   C111  1.401923 A    
C198  N54   1.157449 T    
C140  C180  1.411382 A    
C108  C187  1.479499 S    
C76   C92   1.404466 A    
C85   C117  1.413942 A    
C146  C162  1.409330 A    
C91   H35   1.083203 S    
O29   Cu7   1.948007 S    
N39   O94   1.301202 A    
C103  H47   1.083200 S    
C23   C59   1.404117 A    
C30   C46   1.397329 A    
O19   C9    1.290359 A    
C101  H45   1.083213 S    
C194  N50   1.157460 T    
O34   C186  1.291244 A    
C151  C183  1.409921 A    
C13   C61   1.475358 S    
O24   C12   1.290362 A    
C45   H29   1.082945 S    
N31   O78   1.301412 A    
C11   C59   1.475354 S    
N37   O89   1.301260 A    
O12   Cu8   1.948368 S    
C32   H16   1.083050 S    
C39   C51   1.404998 A    
C125  C133  1.206513 T    
O14   Cu6   1.948370 S    
C33   C49   1.404993 A    
N26   O68   1.301423 A    
C203  N59   1.157458 T    
C153  C193  1.449415 S    
C22   C60   1.404184 A    
C122  C130  1.206520 T    
C100  C112  1.401530 A    
C37   H21   1.082942 S    
C26   H10   1.083049 S    
C148  C184  1.409914 A    
Cu10  O37   1.948746 S    
C124  C132  1.206514 T    
Cu11  O44   1.948746 S    
C75   C91   1.402161 A    
N48   O112  1.301202 A    
C145  C181  1.411392 A    
C130  C178  1.446735 S    
C106  C185  1.479593 S    
N20   O56   1.301492 A    
O26   Cu6   1.948015 S    
C119  C127  1.446227 S    
C149  C165  1.409309 A    
C79   C95   1.404494 A    
C73   C89   1.402153 A    
N11   C68   1.358119 A    
C18   C58   1.404120 A    
N4    N15   1.331892 A    
C18   C34   1.397325 A    
N7    N12   1.331892 A    
C21   C37   1.397328 A    
C208  N64   1.157470 T    
C35   H19   1.082943 S    
N43   O102  1.301198 A    
N3    N16   1.331892 A    
C140  N36   1.439466 S    
C80   C96   1.402159 A    
O20   C10   1.290316 A    
N30   O75   1.301240 A    
C156  C172  1.411181 A    
N36   O88   1.301202 A    
N2    N13   1.331887 A    
N17   O49   1.300993 A    
O10   Cu6   1.948371 S    
C1    C169  1.476323 S    
C120  C128  1.446221 S    
Cu9   O33   1.948743 S    
C73   N17   1.438073 S    
C204  N60   1.157444 T    
C165  C205  1.449418 S    
O1    C1    1.287364 A    
N24   O63   1.300995 A    
C90   C106  1.401919 A    
C142  C180  1.409893 A    
N44   O103  1.300998 A    
C75   N19   1.438079 S    
O1    Cu1   1.948371 S    
