data_mof_unit_pretest_181.cif
_audit_creation_date              2012-12-10T18:16:28-0500
_audit_creation_method            fapswitch 2.2
_symmetry_space_group_name_H-M    P1
_symmetry_Int_Tables_number       1
_space_group_crystal_system       triclinic
_cell_length_a                    18.319629
_cell_length_b                    18.428269
_cell_length_c                    18.227389
_cell_angle_alpha                 119.989045
_cell_angle_beta                  60.142531
_cell_angle_gamma                 119.875586
_cell_volume                      4360.33612944

loop_
_atom_site_label
_atom_site_type_symbol
_atom_type_description
_atom_site_fract_x
_atom_site_fract_y
_atom_site_fract_z
_atom_type_partial_charge
C1    C     C_R   0.390230 0.110050 0.609945 0.505802
C2    C     C_R   0.058503 0.970840 0.913871 -0.170669
C3    C     C_R   0.949012 0.944172 0.052088 0.038337
C4    C     C_R   0.054603 0.056312 0.948987 0.023349
C5    C     C_R   0.007028 0.914279 0.964411 -0.006397
C6    C     C_R   0.999380 0.087122 0.038298 0.029706
C7    C     C_R   0.012320 0.459679 0.906012 0.237306
C8    C     C_R   0.965801 0.518787 0.093923 0.248686
C9    C     C_R   0.963258 0.517992 0.961507 -0.190991
C10   C     C_R   0.022925 0.468984 0.038818 -0.180872
C11   C     C_R   0.941053 0.548596 0.054632 -0.002151
C12   C     C_R   0.609773 0.889956 0.390106 0.509428
C13   C     C_R   0.047658 0.440525 0.945356 0.000049
C14   C     C_R   0.065242 0.081140 0.486945 0.242792
C15   C     C_R   0.940144 0.915931 0.508130 0.247355
C16   C     C_R   0.108266 0.388860 0.890114 0.518239
C17   C     C_R   0.889360 0.608897 0.109897 0.524021
C18   C     C_R   0.010147 0.025355 0.433949 -0.176574
C19   C     C_R   0.992275 0.973680 0.563861 -0.175888
C20   C     C_R   0.946817 0.944542 0.445693 0.007118
C21   C     C_R   0.055424 0.054474 0.552255 0.010978
C22   C     C_R   0.539570 0.092455 0.526130 -0.137848
C23   C     C_R   0.922220 0.199060 0.114555 0.230460
C24   C     C_R   0.460451 0.907578 0.474097 -0.135692
C25   C     C_R   0.592835 0.038902 0.472699 -0.134185
C26   C     C_R   0.407188 0.961130 0.527526 -0.136441
C27   C     C_R   0.553598 0.946127 0.446332 0.040927
C28   C     C_R   0.446420 0.053900 0.553840 0.038651
C29   C     C_R   0.407174 0.473474 0.526572 -0.136911
C30   C     C_R   0.592969 0.524306 0.471086 -0.140339
C31   C     C_R   0.460698 0.526825 0.473098 -0.139859
C32   C     C_R   0.539438 0.470968 0.524592 -0.138057
C33   C     C_R   0.553879 0.552808 0.445341 0.041624
C34   C     C_R   0.064890 0.815363 0.962850 0.272811
C35   C     C_R   0.446242 0.445535 0.552916 0.041598
C36   C     C_R   0.429864 0.424381 0.018696 0.238997
C37   C     C_R   0.578065 0.569161 0.973575 0.249962
C38   C     C_R   0.481537 0.482488 0.074496 -0.172448
C39   C     C_R   0.519323 0.516965 0.924242 -0.171477
C40   C     C_R   0.389855 0.389232 0.890276 0.528529
C41   C     C_R   0.610334 0.610608 0.109452 0.535860
C42   C     C_R   0.555317 0.554336 0.052188 0.006033
C43   C     C_R   0.446140 0.444669 0.946136 0.005758
C44   C     C_R   0.110646 0.110321 0.609348 0.531951
C45   C     C_R   0.909117 0.276592 0.185670 -0.064635
C46   C     C_R   0.889878 0.889557 0.390207 0.540772
C47   C     C_R   0.390063 0.390033 0.609696 0.509640
C48   C     C_R   0.609970 0.609522 0.389832 0.501521
C49   C     C_R   0.109700 0.110699 0.890987 0.492345
C50   C     C_R   0.891503 0.889327 0.109293 0.551552
C51   C     C_R   0.053534 0.322532 0.195513 -0.111499
C52   C     C_R   0.030615 0.688782 0.803440 -0.061128
C53   C     C_R   0.065004 0.242510 0.128693 0.091320
C54   C     C_R   0.004019 0.763399 0.845958 0.055808
C55   C     C_R   0.999126 0.179765 0.088152 0.086588
C56   C     C_R   0.087215 0.738022 0.921251 -0.078898
C57   C     C_R   0.022775 0.828634 0.925482 0.058131
C58   C     C_3   0.407964 0.282516 0.993162 0.011062
C59   C     C_3   0.345319 0.203360 0.026385 -0.248083
C60   C     C_3   0.322405 0.230397 0.127446 -0.414569
C61   C     C_3   0.711235 0.611654 0.863892 0.018108
C62   C     C_3   0.769017 0.572336 0.862237 -0.242081
C63   C     C_3   0.825149 0.532844 0.766313 -0.494221
C64   C     C_3   0.878336 0.138852 0.992693 0.014533
C65   C     C_3   0.860780 0.215225 0.998851 -0.277438
C66   C     C_3   0.879201 0.211889 0.906073 -0.471486
C67   C     C_R   0.974752 0.338795 0.225583 0.051416
C68   C     C_3   0.169364 0.937711 0.022920 0.001905
C69   C     C_3   0.231918 0.912061 0.031435 -0.266461
C70   C     C_3   0.324001 0.982944 0.023927 -0.483132
C71   C     C_3   0.955909 0.392554 0.789458 0.022256
C72   C     C_3   0.971632 0.327387 0.693435 -0.248997
C73   C     C_3   0.890489 0.288269 0.664785 -0.497787
C74   C     C_3   0.875644 0.469110 0.214202 0.004178
C75   C     C_3   0.781881 0.450375 0.219586 -0.273722
C76   C     C_3   0.713288 0.372979 0.253860 -0.490478
C77   C     C_3   0.107884 0.215683 0.470992 0.020121
C78   C     C_R   0.073864 0.676577 0.839439 0.034719
C79   C     C_3   0.153369 0.229199 0.379905 -0.266467
C80   C     C_3   0.126478 0.296062 0.381054 -0.490674
C81   C     C_3   0.912109 0.778786 0.509123 0.007510
C82   C     C_3   0.945611 0.725071 0.409472 -0.231830
C83   C     C_3   0.986175 0.662480 0.395839 -0.488287
C84   C     C_R   0.946128 0.029834 0.087597 -0.119076
H1    H     H_    0.018413 0.043708 0.381672 0.134956
H2    H     H_    0.571071 0.449858 0.543820 0.134188
H3    H     H_    0.466937 0.468486 0.132429 0.135391
H4    H     H_    0.530192 0.532686 0.868957 0.126389
H5    H     H_    0.104058 0.370147 0.227075 0.118731
H6    H     H_    0.018900 0.640496 0.741055 0.141199
H7    H     H_    0.846829 0.287496 0.210731 0.134399
H8    H     H_    0.116722 0.726745 0.951732 0.114019
H9    H     H_    0.903080 0.053490 0.155642 0.144868
H10   H     H_    0.104857 0.949062 0.847526 0.128991
H11   H     H_    0.942382 0.539650 0.931914 0.155463
H12   H     H_    0.982662 0.956362 0.617516 0.129345
H13   H     H_    0.047054 0.452001 0.069780 0.153197
H14   H     H_    0.011946 0.472014 0.280659 0.233197
H15   H     H_    0.963697 0.417840 0.354123 0.232992
H16   H     H_    0.151727 0.607983 0.730000 0.225934
H17   H     H_    0.137412 0.603320 0.825798 0.251012
H18   H     H_    0.424963 0.258159 0.918993 0.115665
H19   H     H_    0.470469 0.309630 0.008462 0.113514
H20   H     H_    0.283488 0.172694 0.009588 0.184463
H21   H     H_    0.378393 0.152495 0.990731 0.102773
H22   H     H_    0.382895 0.251311 0.142936 0.137349
H23   H     H_    0.571356 0.163894 0.545612 0.135274
H24   H     H_    0.271143 0.173296 0.150566 0.118792
H25   H     H_    0.295412 0.286066 0.165042 0.184711
H26   H     H_    0.756006 0.670667 0.842115 0.155167
H27   H     H_    0.676943 0.564190 0.813230 0.114372
H28   H     H_    0.813818 0.625236 0.901894 0.205692
H29   H     H_    0.726043 0.518967 0.892690 0.158850
H30   H     H_    0.781314 0.475574 0.727512 0.142356
H31   H     H_    0.869615 0.509208 0.767341 0.136441
H32   H     H_    0.866679 0.583508 0.732443 0.172143
H33   H     H_    0.140025 0.222457 0.163644 0.213877
H34   H     H_    0.428664 0.836141 0.454623 0.137508
H35   H     H_    0.197628 0.273901 0.086254 0.291786
H36   H     H_    0.997374 0.824838 0.784055 0.236103
H37   H     H_    0.899137 0.783416 0.857663 0.242715
H38   H     H_    0.836288 0.075005 0.956871 0.157922
H39   H     H_    0.948860 0.142114 0.951168 0.125403
H40   H     H_    0.790198 0.211133 0.040171 0.168084
H41   H     H_    0.904690 0.279804 0.031451 0.150725
H42   H     H_    0.949992 0.217654 0.864151 0.153178
H43   H     H_    0.865947 0.268041 0.913269 0.141471
H44   H     H_    0.835051 0.148716 0.872061 0.144961
H45   H     H_    0.664646 0.070224 0.452096 0.137797
H46   H     H_    0.167049 0.004103 0.073617 0.159949
H47   H     H_    0.196819 0.945086 0.955901 0.113343
H48   H     H_    0.202627 0.902466 0.097274 0.182383
H49   H     H_    0.240119 0.848872 0.977326 0.149973
H50   H     H_    0.354177 0.994338 0.958948 0.142364
H51   H     H_    0.368124 0.960588 0.027277 0.154720
H52   H     H_    0.319184 0.045991 0.080152 0.150454
H53   H     H_    0.944531 0.447660 0.791863 0.148621
H54   H     H_    0.895167 0.357118 0.834617 0.105051
H55   H     H_    0.030391 0.362643 0.647359 0.164376
H56   H     H_    0.335379 0.929809 0.548138 0.137112
H57   H     H_    0.985701 0.272660 0.688492 0.181902
H58   H     H_    0.831170 0.251395 0.709090 0.148648
H59   H     H_    0.903727 0.241578 0.594727 0.141932
H60   H     H_    0.876075 0.341872 0.668068 0.145327
H61   H     H_    0.872985 0.484919 0.282553 0.176805
H62   H     H_    0.895189 0.408662 0.170545 0.125962
H63   H     H_    0.761966 0.510177 0.266214 0.207642
H64   H     H_    0.781669 0.434322 0.152265 0.144374
H65   H     H_    0.728645 0.310772 0.205885 0.149715
H66   H     H_    0.645830 0.363854 0.260591 0.153234
H67   H     H_    0.335369 0.454390 0.547393 0.136923
H68   H     H_    0.712829 0.386456 0.320671 0.153135
H69   H     H_    0.129556 0.280261 0.522211 0.158229
H70   H     H_    0.034133 0.196315 0.491078 0.109545
H71   H     H_    0.226988 0.253792 0.362986 0.175115
H72   H     H_    0.134761 0.164912 0.326923 0.160425
H73   H     H_    0.053463 0.271262 0.394569 0.151615
H74   H     H_    0.161885 0.305931 0.314878 0.138590
H75   H     H_    0.144630 0.361060 0.433496 0.145704
H76   H     H_    0.858432 0.731559 0.545279 0.148024
H77   H     H_    0.966162 0.812629 0.538556 0.116756
H78   H     H_    0.664780 0.543260 0.450105 0.129941
H79   H     H_    0.889111 0.685109 0.382721 0.216622
H80   H     H_    0.997155 0.770944 0.371048 0.176106
H81   H     H_    0.042343 0.700513 0.422867 0.145436
H82   H     H_    0.012205 0.626734 0.323032 0.188192
H83   H     H_    0.934862 0.612982 0.429997 0.144782
H84   H     H_    0.429059 0.547854 0.453790 0.134908
N1    N     N_3   0.959905 0.417276 0.298463 -0.674291
N2    N     N_3   0.104220 0.601635 0.791755 -0.614061
N3    N     N_3   0.141174 0.222444 0.105746 -0.632380
N4    N     N_3   0.957487 0.771041 0.807443 -0.665754
O1    O     O_3   0.249960 0.250040 0.750040 -0.445373
O2    O     O_R   0.865890 0.634160 0.194850 -0.506249
O3    O     O_R   0.305100 0.073510 0.634200 -0.546682
O4    O     O_R   0.694900 0.926490 0.365800 -0.548708
O5    O     O_R   0.134110 0.365830 0.926590 -0.568672
O6    O     O_R   0.865890 0.634170 0.073410 -0.567996
O7    O     O_R   0.426490 0.365840 0.805130 -0.562515
O8    O     O_R   0.573510 0.634160 0.194870 -0.550264
O9    O     O_R   0.134150 0.194970 0.634230 -0.514452
O10   O     O_R   0.865850 0.805030 0.365770 -0.513135
O11   O     O_R   0.426480 0.365860 0.634240 -0.551002
O12   O     O_3   0.750040 0.749960 0.249960 -0.444039
O13   O     O_R   0.573520 0.634140 0.365760 -0.551085
O14   O     O_R   0.134190 0.073490 0.805100 -0.557166
O15   O     O_R   0.865810 0.926510 0.194900 -0.546775
O16   O     O_R   0.305020 0.365860 0.634250 -0.539639
O17   O     O_R   0.694980 0.634140 0.365750 -0.567808
O18   O     O_R   0.134160 0.194930 0.926560 -0.533173
O19   O     O_R   0.865840 0.805070 0.073440 -0.530672
O20   O     O_3   0.365699 0.346562 0.033765 -0.563440
O21   O     O_3   0.652194 0.640377 0.951821 -0.547310
O22   O     O_3   0.854167 0.137895 0.079169 -0.579703
O23   O     O_R   0.305030 0.365830 0.926580 -0.504699
O24   O     O_3   0.081517 0.876613 0.042002 -0.578570
O25   O     O_3   0.032393 0.426443 0.813251 -0.521251
O26   O     O_3   0.939134 0.543459 0.186369 -0.555307
O27   O     O_3   0.136312 0.155274 0.468165 -0.547263
O28   O     O_3   0.874650 0.837187 0.521644 -0.547379
O29   O     O_R   0.694970 0.634170 0.073420 -0.528600
O30   O     O_R   0.134180 0.073510 0.634210 -0.557078
O31   O     O_R   0.865820 0.926490 0.365790 -0.554300
O32   O     O_R   0.426530 0.194970 0.634210 -0.549935
O33   O     O_R   0.573470 0.805030 0.365790 -0.545781
O34   O     O_R   0.134110 0.365840 0.805150 -0.487621
Zn1   Zn    Zn3+2 0.206570 0.293400 0.880180 0.936674
Zn2   Zn    Zn3+2 0.793430 0.706600 0.119820 0.943519
Zn3   Zn    Zn3+2 0.380110 0.293420 0.706660 0.924389
Zn4   Zn    Zn3+2 0.619890 0.706580 0.293340 0.930684
Zn5   Zn    Zn3+2 0.206560 0.293420 0.706670 0.959255
Zn6   Zn    Zn3+2 0.793440 0.706580 0.293330 0.939512
Zn7   Zn    Zn3+2 0.206610 0.119900 0.706640 0.918257
Zn8   Zn    Zn3+2 0.793390 0.880100 0.293360 0.948473

loop_
_geom_bond_atom_site_label_1
_geom_bond_atom_site_label_2
_ccdc_geom_bond_type
C17   O6    A    
C70   H52   S    
C34   C56   A    
C23   C45   A    
C68   H47   S    
C41   C42   S    
C14   C18   A    
O31   Zn8   S    
C8    O26   S    
C24   C27   A    
C6    C55   S    
C25   H45   S    
C54   C57   A    
C81   O28   S    
C81   C82   S    
C71   H53   S    
C67   N1    S    
C15   C19   A    
C83   H81   S    
C59   H21   S    
O2    Zn6   S    
C59   H20   S    
O33   Zn4   S    
C14   C21   A    
C19   C21   A    
C24   C26   A    
C38   C42   A    
C16   O34   A    
C8    C11   A    
O16   Zn5   S    
C82   H79   S    
C76   H68   S    
C22   H23   S    
C21   C44   S    
O14   Zn7   S    
C78   N2    S    
C56   C78   A    
C66   H43   S    
C65   H40   S    
C37   C42   A    
C60   H25   S    
C41   O8    A    
C77   H69   S    
C79   H72   S    
C63   H30   S    
C52   H6    S    
O34   Zn5   S    
C40   C43   S    
C11   C17   S    
C49   O14   A    
C74   O26   S    
C68   C69   S    
C22   C25   A    
O6    Zn2   S    
O32   Zn3   S    
C45   C67   A    
C1    C28   S    
C31   C33   A    
C71   O25   S    
C58   H18   S    
C9    H11   S    
C61   C62   S    
C60   H24   S    
C12   O4    A    
C63   H31   S    
C77   C79   S    
O15   Zn8   S    
C35   C47   S    
C59   C60   S    
C81   H76   S    
C22   C28   A    
C44   O30   A    
H14   N1    S    
O1    Zn5   S    
C39   H4    S    
C52   C78   A    
C50   O15   A    
C3    C50   S    
C52   C54   A    
O12   Zn6   S    
C71   H54   S    
C73   H58   S    
C53   C55   A    
O18   Zn1   S    
C72   H57   S    
C83   H82   S    
C18   H1    S    
C6    C84   A    
C74   C75   S    
C12   C27   S    
H16   N2    S    
C32   C35   A    
C54   N4    S    
C2    H10   S    
C62   H29   S    
C4    C6    A    
H36   N4    S    
C80   H75   S    
C39   C43   A    
C49   O18   A    
C75   H63   S    
C58   C59   S    
C83   H83   S    
O17   Zn6   S    
C17   O2    A    
O5    Zn1   S    
C64   O22   S    
C15   C20   A    
C51   C53   A    
C37   O21   S    
C7    O25   S    
C10   H13   S    
O1    Zn7   S    
C75   C76   S    
C62   C63   S    
C77   H70   S    
C29   H67   S    
C40   O7    A    
C77   O27   S    
H33   N3    S    
C80   H74   S    
C76   H66   S    
C32   H2    S    
O10   Zn6   S    
C34   C57   A    
C62   H28   S    
H17   N2    S    
C68   O24   S    
C51   C67   A    
O8    Zn4   S    
C50   O19   A    
C9    C11   A    
O3    Zn7   S    
C48   O17   A    
C74   H61   S    
C61   H26   S    
C63   H32   S    
C47   O11   A    
C46   O31   A    
C82   C83   S    
C58   O20   S    
C70   H51   S    
O4    Zn8   S    
C2    C5    A    
C25   C27   A    
C30   H78   S    
C41   O29   A    
C61   H27   S    
C61   O21   S    
C60   H22   S    
C16   O5    A    
C73   H59   S    
C34   O24   S    
C7    C9    A    
C29   C35   A    
C1    O3    A    
C69   H49   S    
C30   C33   A    
C36   O20   S    
C81   H77   S    
C74   H62   S    
C8    C10   A    
O1    Zn3   S    
C72   C73   S    
C3    C5    A    
C10   C13   A    
C26   H56   S    
O12   Zn4   S    
H15   N1    S    
C23   C55   A    
C75   H64   S    
O11   Zn3   S    
C64   H39   S    
C14   O27   S    
O7    Zn3   S    
C26   C28   A    
O12   Zn2   S    
C5    C57   S    
C38   H3    S    
O9    Zn5   S    
C12   O33   A    
C46   O10   A    
C36   C38   A    
C4    C49   S    
C48   O13   A    
C29   C31   A    
C64   C65   S    
C30   C32   A    
C15   O28   S    
C1    O32   A    
C80   H73   S    
C82   H80   S    
C76   H65   S    
C69   H48   S    
C64   H38   S    
C2    C4    A    
C23   O22   S    
C24   H34   S    
O29   Zn2   S    
C66   H44   S    
C18   C20   A    
C84   H9    S    
O30   Zn7   S    
C69   C70   S    
C45   H7    S    
C20   C46   S    
C53   N3    S    
C79   H71   S    
C79   C80   S    
O1    Zn1   S    
C66   H42   S    
O12   Zn8   S    
C7    C13   A    
H37   N4    S    
O23   Zn1   S    
C31   H84   S    
C72   H55   S    
C37   C39   A    
C65   C66   S    
C13   C16   S    
H35   N3    S    
C3    C84   A    
C70   H50   S    
C33   C48   S    
O13   Zn4   S    
C68   H46   S    
C36   C43   A    
C58   H19   S    
C71   C72   S    
C47   O16   A    
C56   H8    S    
C44   O9    A    
C73   H60   S    
C51   H5    S    
C19   H12   S    
C65   H41   S    
O19   Zn2   S    
C40   O23   A    
