data_mof_unit_pretest_792.cif
_audit_creation_date              2012-12-11T17:01:33-0500
_audit_creation_method            fapswitch 2.2
_symmetry_space_group_name_H-M    P1
_symmetry_Int_Tables_number       1
_space_group_crystal_system       triclinic
_cell_length_a                    15.188641
_cell_length_b                    14.982371
_cell_length_c                    15.102291
_cell_angle_alpha                 110.046305
_cell_angle_beta                  109.453693
_cell_angle_gamma                 109.750935
_cell_volume                      2617.83108538

loop_
_atom_site_label
_atom_site_type_symbol
_atom_type_description
_atom_site_fract_x
_atom_site_fract_y
_atom_site_fract_z
_atom_type_partial_charge
C1    C     C_R   0.947104 0.762765 0.039460 -0.102928
C2    C     C_R   0.225086 0.751348 0.314394 -0.084785
C3    C     C_R   0.913046 0.406344 0.209474 -0.139525
C4    C     C_R   0.791664 0.195286 0.700479 -0.146311
C5    C     C_R   0.300352 0.591764 0.000139 -0.157245
C6    C     C_R   0.945675 0.497252 0.303440 -0.031697
C7    C     C_R   0.304730 0.499853 0.947386 0.014672
C8    C     C_R   0.326171 0.776667 0.323772 0.048277
C9    C     C_R   0.934757 0.133064 0.935106 0.079188
C10   C     C_3   0.488079 0.441043 0.844343 -0.187452
C11   C     C_3   0.382486 0.438416 0.835458 -0.485782
C12   C     C_R   0.697856 0.131960 0.695753 0.076270
C13   C     C_3   0.530203 0.438053 0.022765 -0.388188
C14   C     C_3   0.599876 0.618583 0.027704 -0.413154
C15   C     C_3   0.574734 0.497418 0.968318 0.283264
C16   C     C_R   0.034320 0.588253 0.774242 -0.127990
C17   C     C_3   0.401351 0.500076 0.951723 0.383907
C18   C     C_3   0.429253 0.441470 0.014928 -0.371374
C19   C     C_3   0.497312 0.620021 0.013625 -0.408613
C20   C     C_R   0.622043 0.964832 0.518733 0.164193
C21   C     C_R   0.620018 0.014922 0.614516 0.020193
C22   C     C_R   0.531060 0.954686 0.621359 -0.190186
C23   C     C_R   0.957144 0.493282 0.673728 0.077016
C24   C     C_R   0.436188 0.863023 0.525986 -0.185071
C25   C     C_R   0.430451 0.832740 0.424193 0.028076
C26   C     C_R   0.528340 0.875292 0.424528 0.179268
C27   C     C_3   0.557769 0.915233 0.354350 -0.516537
C28   C     C_R   0.684916 0.405814 0.952740 -0.115822
C29   C     C_3   0.660306 0.012456 0.457335 -0.510029
C30   C     C_R   0.894467 0.541968 0.444760 0.122651
C31   C     C_R   0.936747 0.490120 0.390957 0.071564
C32   C     C_R   0.975601 0.428467 0.425663 -0.176283
C33   C     C_R   0.977476 0.425778 0.516759 -0.210551
C34   C     C_R   0.675083 0.498392 0.984218 -0.026542
C35   C     C_R   0.939980 0.484400 0.573108 0.035922
C36   C     C_R   0.896501 0.538968 0.533346 0.182071
C37   C     C_3   0.849387 0.610627 0.555101 -0.574260
C38   C     C_3   0.846242 0.614769 0.453442 -0.292540
C39   C     C_R   0.859316 0.887776 0.961618 0.153859
C40   C     C_R   0.936345 0.403639 0.686068 -0.130052
C41   C     C_R   0.921177 0.851148 0.925894 0.041089
C42   C     C_R   0.942545 0.875468 0.850684 -0.189283
C43   C     C_R   0.929728 0.958843 0.837579 -0.191132
C44   C     C_R   0.896815 0.017571 0.900863 0.026645
C45   C     C_R   0.000315 0.590627 0.301838 -0.056224
C46   C     C_R   0.847109 0.970350 0.949193 0.161294
C47   C     C_3   0.853945 0.021084 0.057655 -0.514513
C48   C     C_3   0.867055 0.930612 0.070872 -0.516808
C49   C     C_R   0.777663 0.591296 0.052843 -0.091582
C50   C     C_R   0.699119 0.195845 0.788251 -0.105611
C51   C     C_R   0.041364 0.767846 0.952877 -0.123927
C52   C     C_R   0.969371 0.797444 0.971916 0.052979
C53   C     C_2   0.463915 0.327091 0.770080 0.987441
C54   C     C_2   0.733442 0.559552 0.358929 1.044119
C55   C     C_2   0.031188 0.704348 0.374523 0.920820
C56   C     C_R   0.210619 0.407363 0.911170 -0.146237
C57   C     C_R   0.312606 0.746635 0.220923 -0.142157
C58   C     C_R   0.904926 0.196580 0.994643 -0.149870
C59   C     C_R   0.997924 0.195956 0.906857 -0.122747
H1    H     H_    0.900064 0.778125 0.074991 0.102606
H2    H     H_    0.359712 0.478766 0.789346 0.157102
H3    H     H_    0.826041 0.165696 0.653264 0.098729
H4    H     H_    0.312986 0.352284 0.789564 0.179766
H5    H     H_    0.510268 0.350781 0.983787 0.185571
H6    H     H_    0.361505 0.355116 0.973072 0.166233
H7    H     H_    0.656916 0.660685 0.117199 0.193608
H8    H     H_    0.637444 0.666637 0.995005 0.149206
H9    H     H_    0.480643 0.662206 0.967514 0.158095
H10   H     H_    0.510623 0.668587 0.096433 0.162034
H11   H     H_    0.592521 0.479066 0.110171 0.198759
H12   H     H_    0.183669 0.321615 0.859699 0.097922
H13   H     H_    0.443109 0.485972 0.098792 0.173548
H14   H     H_    0.528891 0.985035 0.696223 0.134578
H15   H     H_    0.079825 0.669523 0.788378 0.099034
H16   H     H_    0.364728 0.826259 0.531161 0.144017
H17   H     H_    0.573246 0.859136 0.299335 0.194958
H18   H     H_    0.503115 0.940719 0.314422 0.204022
H19   H     H_    0.734672 0.011834 0.461925 0.195302
H20   H     H_    0.663217 0.092166 0.474994 0.206688
H21   H     H_    0.008785 0.386503 0.385368 0.136739
H22   H     H_    0.012847 0.382581 0.545984 0.136610
H23   H     H_    0.372321 0.749737 0.197230 0.111022
H24   H     H_    0.768698 0.565919 0.545822 0.220800
H25   H     H_    0.908733 0.691076 0.632679 0.193365
H26   H     H_    0.622784 0.319866 0.908778 0.119433
H27   H     H_    0.900848 0.699198 0.474298 0.182601
H28   H     H_    0.981310 0.841080 0.812767 0.124345
H29   H     H_    0.960016 0.986353 0.790788 0.131439
H30   H     H_    0.927959 0.103755 0.119586 0.204554
H31   H     H_    0.776350 0.015528 0.048960 0.191728
H32   H     H_    0.948424 0.962821 0.139680 0.206679
H33   H     H_    0.796902 0.872845 0.069617 0.189033
H34   H     H_    0.841089 0.168420 0.012410 0.101527
H35   H     H_    0.887431 0.317287 0.622800 0.103847
H36   H     H_    0.800920 0.674525 0.106539 0.108198
H37   H     H_    0.646764 0.167536 0.818458 0.089127
H38   H     H_    0.083749 0.793026 0.913504 0.093175
H39   H     H_    0.477401 0.233365 0.648368 0.328320
H40   H     H_    0.585442 0.422079 0.253190 0.312161
H41   H     H_    0.044032 0.847540 0.388498 0.324800
H42   H     H_    0.022689 0.167461 0.848675 0.089287
H43   H     H_    0.208370 0.764138 0.379838 0.110428
H44   H     H_    0.860607 0.320494 0.180699 0.110829
H45   H     H_    0.353878 0.676656 0.027222 0.092257
H46   H     H_    0.521092 0.494535 0.813832 0.125672
N1    N     N_R   0.995640 0.706130 0.053910 -0.032463
N2    N     N_R   0.054010 0.556790 0.847890 -0.041562
N3    N     N_R   0.789940 0.443190 0.997130 -0.043291
N4    N     N_R   0.997630 0.443170 0.791110 -0.043018
N5    N     N_R   0.846320 0.556810 0.053910 -0.029464
N6    N     N_R   0.791080 0.293860 0.847890 -0.039128
N7    N     N_R   0.052880 0.706130 0.997130 -0.044636
N8    N     N_R   0.002370 0.556830 0.208890 -0.062225
N9    N     N_R   0.153680 0.443190 0.946090 -0.034709
N10   N     N_R   0.208920 0.706140 0.152110 -0.046936
N11   N     N_R   0.947120 0.293870 0.002870 -0.041379
N12   N     N_R   0.004360 0.293870 0.946090 -0.041917
N13   N     N_R   0.151690 0.706140 0.208890 -0.034482
N14   N     N_R   0.945990 0.443210 0.152110 -0.049444
N15   N     N_R   0.210060 0.556810 0.002870 -0.035656
N16   N     N_R   0.848310 0.293860 0.791110 -0.038088
Ni1   Ni    Ni4+2 0.999010 0.630300 0.130220 0.271789
Ni2   Ni    Ni4+2 0.000990 0.369700 0.869780 0.206438
Ni3   Ni    Ni4+2 0.130280 0.630280 0.000000 0.215634
Ni4   Ni    Ni4+2 0.869720 0.369720 0.000000 0.209359
O1    O     O_2   0.415781 0.248232 0.777165 -0.663393
O2    O     O_R   0.496751 0.312472 0.692563 -0.798537
O3    O     O_2   0.707649 0.612353 0.320291 -0.680398
O4    O     O_R   0.658429 0.449094 0.316160 -0.799312
O5    O     O_2   0.072448 0.742259 0.473204 -0.663491
O6    O     O_R   0.018292 0.770396 0.330580 -0.811215

loop_
_geom_bond_atom_site_label_1
_geom_bond_atom_site_label_2
_ccdc_geom_bond_type
C51   H38   S    
C51   N7    A    
C6    C45   A    
C27   C29   S    
N2    N4    A    
C41   C42   A    
C39   C48   S    
C35   C36   A    
N8    Ni1   S    
C3    C6    A    
C2    N13   A    
H41   O6    S    
C57   N10   A    
N1    N7    A    
C18   H6    S    
C26   C27   S    
C13   C18   S    
C38   H27   S    
C16   H15   S    
C43   H29   S    
N2    Ni3   S    
C36   C37   S    
C58   H34   S    
N7    Ni3   S    
C11   H4    S    
C10   C15   S    
C30   C31   A    
N6    N16   A    
C13   H11   S    
C2    H43   S    
C23   C40   A    
C4    H3    S    
N11   N12   A    
C30   C38   S    
C9    C58   A    
N13   Ni1   S    
C10   C53   S    
C53   O2    S    
C16   N2    A    
C17   C19   S    
N8    N14   A    
C29   H19   S    
C31   C32   A    
C7    C17   S    
C48   H32   S    
C29   H20   S    
N6    Ni4   S    
C14   H8    S    
C37   H25   S    
N3    Ni4   S    
C4    C12   A    
C15   C34   S    
C1    N1    A    
N10   N13   A    
C6    C31   S    
C5    H45   S    
C28   C34   A    
C59   N12   A    
C21   C22   A    
C58   N11   A    
C8    C25   S    
C47   H30   S    
C7    C56   A    
C44   C46   A    
C20   C29   S    
C18   H13   S    
H40   O4    S    
C5    N15   A    
C51   C52   A    
C59   H42   S    
C24   C25   A    
C39   C41   A    
C53   O1    D    
C1    H1    S    
C5    C7    A    
N4    Ni2   S    
C27   H18   S    
C25   C26   A    
C54   O3    D    
C12   C21   S    
C9    C59   A    
C43   C44   A    
C37   C38   S    
C8    C57   A    
C32   H21   S    
C47   C48   S    
C38   C54   S    
C55   O5    D    
N1    Ni1   S    
C17   C18   S    
C14   H7    S    
C19   H9    S    
C49   H36   S    
C9    C44   S    
C3    N14   A    
C39   C46   A    
N9    Ni2   S    
N14   Ni4   S    
H39   O2    S    
C16   C23   A    
C23   C35   S    
N11   Ni4   S    
C13   C15   S    
C47   H31   S    
C22   C24   A    
C19   H10   S    
C42   C43   A    
C27   H17   S    
C3    H44   S    
C54   O4    S    
C46   C47   S    
C11   C17   S    
C34   C49   A    
N10   Ni3   S    
C41   C52   S    
C14   C15   S    
C14   C19   S    
C2    C8    A    
C40   H35   S    
C11   H2    S    
C12   C50   A    
C24   H16   S    
C40   N4    A    
C55   O6    S    
C30   C36   A    
C32   C33   A    
N12   Ni2   S    
N5    Ni1   S    
C50   H37   S    
C13   H5    S    
C20   C26   A    
C28   N3    A    
C50   N6    A    
C33   C35   A    
N3    N5    A    
C4    N16   A    
C1    C52   A    
N16   Ni2   S    
C10   C11   S    
C45   N8    A    
C20   C21   A    
C45   C55   S    
C48   H33   S    
C28   H26   S    
C56   N9    A    
C57   H23   S    
C37   H24   S    
C10   H46   S    
C42   H28   S    
C22   H14   S    
C33   H22   S    
N9    N15   A    
N15   Ni3   S    
C56   H12   S    
C49   N5    A    
