data_mof_unit_pretest_1191.cif
_audit_creation_date              2012-12-10T19:46:25-0500
_audit_creation_method            fapswitch 2.2
_symmetry_space_group_name_H-M    P1
_symmetry_Int_Tables_number       1
_space_group_crystal_system       triclinic
_cell_length_a                    10.874272
_cell_length_b                    10.879484
_cell_length_c                    10.439601
_cell_angle_alpha                 91.047548
_cell_angle_beta                  90.796342
_cell_angle_gamma                 89.758029
_cell_volume                      1234.73690098

loop_
_atom_site_label
_atom_site_type_symbol
_atom_type_description
_atom_site_fract_x
_atom_site_fract_y
_atom_site_fract_z
_atom_type_partial_charge
C1    C     C_R   0.497863 0.261501 0.498659 0.795944
C2    C     C_R   0.687090 0.839540 0.753931 -0.113135
C3    C     C_R   0.432833 0.113928 0.260785 0.039425
C4    C     C_R   0.567180 0.886070 0.739212 0.039425
C5    C     C_R   0.514728 0.116325 0.156420 0.044199
C6    C     C_R   0.485280 0.883658 0.843572 0.044208
C7    C     C_R   0.473867 0.166427 0.039858 -0.105616
C8    C     C_R   0.526138 0.833545 0.960127 -0.105621
C9    C     C_R   0.354542 0.212853 0.026904 -0.103873
C10   C     C_R   0.645466 0.787124 0.973080 -0.103868
C11   C     C_R   0.472288 0.931372 0.389419 -0.253009
C12   C     C_R   0.502138 0.738499 0.501341 0.795955
C13   C     C_R   0.527718 0.068626 0.610581 -0.253002
C14   C     C_R   0.502981 0.872039 0.503349 -0.081688
C15   C     C_R   0.497025 0.127960 0.496650 -0.081683
C16   C     C_R   0.261514 0.503203 0.499049 0.795808
C17   C     C_R   0.738486 0.496796 0.500952 0.795800
C18   C     C_R   0.531308 0.941500 0.615480 -0.021711
C19   C     C_R   0.468702 0.058499 0.384519 -0.021713
C20   C     C_1   0.500035 0.500007 0.071982 0.069025
C21   C     C_1   0.499964 0.499992 0.928018 0.069020
C22   C     C_R   0.228471 0.736140 0.155028 -0.095896
C23   C     C_R   0.872090 0.495037 0.502399 -0.086855
C24   C     C_R   0.771481 0.263862 0.844931 -0.095847
C25   C     C_R   0.175398 0.695496 0.267719 -0.122340
C26   C     C_R   0.824569 0.304509 0.732253 -0.122296
C27   C     C_R   0.114773 0.581833 0.268805 0.133030
C28   C     C_R   0.885227 0.418150 0.731193 0.133005
C29   C     C_R   0.106381 0.510470 0.155670 -0.149291
C30   C     C_R   0.893648 0.489477 0.844347 -0.149328
C31   C     C_R   0.161032 0.550636 0.043612 -0.166267
C32   C     C_R   0.838985 0.449305 0.956396 -0.166269
C33   C     C_R   0.222007 0.663397 0.043249 -0.087716
C34   C     C_R   0.127910 0.504960 0.497603 -0.086854
C35   C     C_R   0.777968 0.336576 0.956728 -0.087699
C36   C     C_R   0.931623 0.531325 0.391349 -0.239761
C37   C     C_R   0.068378 0.468676 0.608654 -0.239762
C38   C     C_2   0.642245 0.068033 0.168766 0.286325
C39   C     C_2   0.357760 0.931941 0.831227 0.286311
C40   C     C_R   0.941230 0.462234 0.612259 -0.002508
C41   C     C_R   0.058770 0.537764 0.387744 -0.002521
C42   C     C_R   0.274153 0.209412 0.129609 -0.079708
C43   C     C_R   0.725859 0.790578 0.870379 -0.079688
C44   C     C_R   0.312925 0.160461 0.246064 -0.113135
Cu1   Cu    Cu3+1 0.500000 0.500000 0.625300 0.972809
Cu2   Cu    Cu3+1 0.500000 0.500000 0.374700 0.972815
H1    H     H_    0.264184 0.694069 0.956292 0.158373
H2    H     H_    0.818253 0.247896 0.645976 0.107883
H3    H     H_    0.058232 0.423580 0.154804 0.124699
H4    H     H_    0.941819 0.576351 0.845233 0.124721
H5    H     H_    0.156025 0.494445 0.957066 0.131669
H6    H     H_    0.844014 0.505472 0.042956 0.131679
H7    H     H_    0.878880 0.558177 0.307361 0.156044
H8    H     H_    0.121120 0.441823 0.692641 0.156043
H9    H     H_    0.324114 0.250822 0.936652 0.129081
H10   H     H_    0.675891 0.749144 0.063325 0.129081
H11   H     H_    0.181252 0.243651 0.118564 0.125166
H12   H     H_    0.735773 0.305905 0.043674 0.158368
H13   H     H_    0.818760 0.756335 0.881420 0.125172
H14   H     H_    0.249213 0.157958 0.324831 0.118142
H15   H     H_    0.750804 0.842052 0.675167 0.118144
H16   H     H_    0.677820 0.037761 0.260516 0.094711
H17   H     H_    0.322185 0.962210 0.739480 0.094716
H18   H     H_    0.533851 0.169358 0.958265 0.142060
H19   H     H_    0.466148 0.830598 0.041714 0.142071
H20   H     H_    0.449597 0.878676 0.303210 0.153540
H21   H     H_    0.550403 0.121322 0.696792 0.153522
H22   H     H_    0.274432 0.824052 0.154691 0.155440
H23   H     H_    0.725488 0.175972 0.845244 0.155368
H24   H     H_    0.181690 0.752136 0.353980 0.107898
N1    N     N_1   0.500010 0.499990 0.186410 -0.142698
N2    N     N_1   0.499990 0.500010 0.813590 -0.142700
O1    O     O_R   0.499990 0.319650 0.605810 -0.586562
O2    O     O_2   0.290484 0.939015 0.923715 -0.570558
O3    O     O_R   0.500010 0.680350 0.394190 -0.586558
O4    O     O_R   0.499990 0.319640 0.394190 -0.572087
O5    O     O_R   0.500010 0.680360 0.605810 -0.572089
O6    O     O_R   0.319640 0.500010 0.605810 -0.588877
O7    O     O_R   0.680360 0.499990 0.394190 -0.588876
O8    O     O_R   0.319650 0.500010 0.394190 -0.563249
O9    O     O_R   0.680350 0.499990 0.605810 -0.563251
O10   O     O_2   0.709520 0.060958 0.076279 -0.570532

loop_
_geom_bond_atom_site_label_1
_geom_bond_atom_site_label_2
_ccdc_geom_bond_type
C30   C32   A    
C27   C29   A    
C34   C37   A    
C14   C18   A    
Cu2   O4    S    
C29   H3    S    
Cu1   Cu2   S    
C15   C19   A    
C11   C19   A    
C9    C42   A    
C17   C23   S    
C13   C18   A    
C35   H12   S    
C24   C26   A    
C37   C40   A    
Cu2   O7    S    
C11   C14   A    
C28   C40   S    
C23   C40   A    
C17   O7    A    
Cu1   O1    S    
C39   O2    D    
C32   H6    S    
C36   H7    S    
C16   C34   S    
C22   C25   A    
C31   C33   A    
C20   N1    T    
C3    C19   S    
Cu1   O6    S    
C1    C15   S    
C10   H10   S    
C16   O6    A    
C2    H15   S    
C43   H13   S    
C4    C18   S    
C30   H4    S    
C8    H19   S    
C5    C38   S    
C38   O10   D    
Cu1   N2    S    
C36   C41   A    
C34   C41   A    
C42   C44   A    
C42   H11   S    
Cu2   O3    S    
C24   H23   S    
C3    C44   A    
C24   C35   A    
C21   N2    T    
C32   C35   A    
C4    C6    A    
C5    C7    A    
C6    C8    A    
C16   O8    A    
C2    C4    A    
C27   C41   S    
C2    C43   A    
C12   O5    A    
C22   H22   S    
Cu2   N1    S    
C9    H9    S    
C37   H8    S    
C12   C14   S    
C13   C15   A    
C33   H1    S    
C13   H21   S    
C7    C9    A    
C22   C33   A    
C10   C43   A    
C1    O4    A    
Cu1   O9    S    
C31   H5    S    
C3    C5    A    
C11   H20   S    
C26   H2    S    
C25   C27   A    
C39   H17   S    
C26   C28   A    
C1    O1    A    
C28   C30   A    
C29   C31   A    
Cu2   O8    S    
C44   H14   S    
C17   O9    A    
C7    H18   S    
C20   C21   S    
C8    C10   A    
C23   C36   A    
C12   O3    A    
C6    C39   S    
Cu1   O5    S    
C25   H24   S    
C38   H16   S    
