data_mof_unit_pretest_1976.cif
_audit_creation_date              2013-03-05T16:39:03-0500
_audit_creation_method            fapswitch 2.2
_symmetry_space_group_name_H-M    P1
_symmetry_Int_Tables_number       1
_space_group_crystal_system       triclinic
_cell_length_a                    25.708993
_cell_length_b                    25.708612
_cell_length_c                    60.072808
_cell_angle_alpha                 89.997768
_cell_angle_beta                  89.99955
_cell_angle_gamma                 90.00013
_cell_volume                      39704.6734288

loop_
_atom_site_label
_atom_site_type_symbol
_atom_site_description
_atom_site_fract_x
_atom_site_fract_y
_atom_site_fract_z
_atom_type_partial_charge
Zn1   Zn    Zn3+2 0.561090 0.000000 0.731040 1.046459
Zn2   Zn    Zn3+2 0.438910 0.000000 0.268960 1.046281
Zn3   Zn    Zn3+2 0.000000 0.561090 0.731040 1.050040
Zn4   Zn    Zn3+2 0.000000 0.438910 0.268960 1.049475
Zn5   Zn    Zn3+2 0.438910 0.000000 0.731040 1.045942
Zn6   Zn    Zn3+2 0.561090 0.000000 0.268960 1.046625
Zn7   Zn    Zn3+2 0.000000 0.438910 0.731040 1.049309
Zn8   Zn    Zn3+2 0.000000 0.561090 0.268960 1.049261
Zn9   Zn    Zn3+2 0.061090 0.500000 0.231040 1.046329
Zn10  Zn    Zn3+2 0.938910 0.500000 0.768960 1.046333
Zn11  Zn    Zn3+2 0.500000 0.061090 0.231040 1.049461
Zn12  Zn    Zn3+2 0.500000 0.938910 0.768960 1.050013
Zn13  Zn    Zn3+2 0.938910 0.500000 0.231040 1.046636
Zn14  Zn    Zn3+2 0.061090 0.500000 0.768960 1.045975
Zn15  Zn    Zn3+2 0.500000 0.938910 0.231040 1.049304
Zn16  Zn    Zn3+2 0.500000 0.061090 0.768960 1.049347
O1    O     O_3   0.500000 0.000000 0.750000 -0.518716
O2    O     O_3   0.500000 0.000000 0.250000 -0.518710
O3    O     O_3   0.000000 0.500000 0.750000 -0.518701
O4    O     O_3   0.000000 0.500000 0.250000 -0.518731
O5    O     O_R   0.500000 0.042590 0.799690 -0.630511
O6    O     O_R   0.500000 0.957410 0.200310 -0.630580
O7    O     O_R   0.957410 0.500000 0.799690 -0.634370
O8    O     O_R   0.042590 0.500000 0.200310 -0.634241
O9    O     O_R   0.500000 0.957410 0.799690 -0.631038
O10   O     O_R   0.500000 0.042590 0.200310 -0.630734
O11   O     O_R   0.042590 0.500000 0.799690 -0.634632
O12   O     O_R   0.957410 0.500000 0.200310 -0.634002
O13   O     O_R   0.000000 0.542590 0.299690 -0.630647
O14   O     O_R   0.000000 0.457410 0.700310 -0.630498
O15   O     O_R   0.457410 0.000000 0.299690 -0.634408
O16   O     O_R   0.542590 0.000000 0.700310 -0.634207
O17   O     O_R   0.000000 0.457410 0.299690 -0.630731
O18   O     O_R   0.000000 0.542590 0.700310 -0.630929
O19   O     O_R   0.542590 0.000000 0.299690 -0.634123
O20   O     O_R   0.457410 0.000000 0.700310 -0.634647
O21   O     O_R   0.560170 0.897070 0.762850 -0.614514
O22   O     O_R   0.439830 0.102930 0.237150 -0.614359
O23   O     O_R   0.102930 0.560170 0.762850 -0.613186
O24   O     O_R   0.897070 0.439830 0.237150 -0.611918
O25   O     O_R   0.439830 0.102930 0.762850 -0.615417
O26   O     O_R   0.560170 0.897070 0.237150 -0.614662
O27   O     O_R   0.897070 0.439830 0.762850 -0.612143
O28   O     O_R   0.102930 0.560170 0.237150 -0.611818
O29   O     O_R   0.560170 0.102930 0.237150 -0.615286
O30   O     O_R   0.439830 0.897070 0.762850 -0.613758
O31   O     O_R   0.102930 0.439830 0.237150 -0.612899
O32   O     O_R   0.897070 0.560170 0.762850 -0.612733
O33   O     O_R   0.439830 0.897070 0.237150 -0.615467
O34   O     O_R   0.560170 0.102930 0.762850 -0.614834
O35   O     O_R   0.897070 0.560170 0.237150 -0.612569
O36   O     O_R   0.102930 0.439830 0.762850 -0.611951
O37   O     O_R   0.060170 0.397070 0.262850 -0.615169
O38   O     O_R   0.939830 0.602930 0.737150 -0.613670
O39   O     O_R   0.602930 0.060170 0.262850 -0.612659
O40   O     O_R   0.397070 0.939830 0.737150 -0.612533
O41   O     O_R   0.939830 0.602930 0.262850 -0.615483
O42   O     O_R   0.060170 0.397070 0.737150 -0.614563
O43   O     O_R   0.397070 0.939830 0.262850 -0.612553
O44   O     O_R   0.602930 0.060170 0.737150 -0.611445
O45   O     O_R   0.060170 0.602930 0.737150 -0.614597
O46   O     O_R   0.939830 0.397070 0.262850 -0.614472
O47   O     O_R   0.602930 0.939830 0.737150 -0.613378
O48   O     O_R   0.397070 0.060170 0.262850 -0.612173
O49   O     O_R   0.939830 0.397070 0.737150 -0.615697
O50   O     O_R   0.060170 0.602930 0.262850 -0.614656
O51   O     O_R   0.397070 0.060170 0.737150 -0.612614
O52   O     O_R   0.602930 0.939830 0.262850 -0.611823
C1    C     C_R   0.500000 0.999999 0.810508 0.863641
C2    C     C_R   0.500000 0.000001 0.189492 0.863933
C3    C     C_R   1.000000 0.499999 0.810509 0.855782
C4    C     C_R   0.000000 0.500000 0.189494 0.855633
C5    C     C_R   0.999999 0.499999 0.310508 0.863997
C6    C     C_R   0.999999 0.500000 0.689493 0.863544
C7    C     C_R   0.500000 1.000000 0.310508 0.855797
C8    C     C_R   0.500000 0.000001 0.689492 0.855682
C9    C     C_R   0.599131 0.900863 0.749999 0.825301
C10   C     C_R   0.400868 0.099136 0.250001 0.825869
C11   C     C_R   0.099131 0.599137 0.750000 0.825457
C12   C     C_R   0.900867 0.400864 0.249999 0.825904
C13   C     C_R   0.400868 0.099135 0.749999 0.825419
C14   C     C_R   0.599133 0.900865 0.250001 0.825899
C15   C     C_R   0.900867 0.400866 0.750002 0.825615
C16   C     C_R   0.099133 0.599135 0.249998 0.825937
C17   C     C_R   0.599132 0.099135 0.250001 0.825270
C18   C     C_R   0.400869 0.900863 0.749999 0.826055
C19   C     C_R   0.099132 0.400865 0.249999 0.825236
C20   C     C_R   0.900869 0.599137 0.750001 0.825917
C21   C     C_R   0.400867 0.900865 0.250001 0.825310
C22   C     C_R   0.599134 0.099134 0.749998 0.826246
C23   C     C_R   0.900867 0.599135 0.249998 0.825251
C24   C     C_R   0.099132 0.400864 0.750001 0.826044
C25   C     C_R   0.747009 0.291784 0.765233 0.194241
C26   C     C_R   0.254483 0.706749 0.235607 0.194433
C27   C     C_R   0.706046 0.744827 0.763956 0.194649
C28   C     C_R   0.292785 0.254027 0.235329 0.195267
C29   C     C_R   0.256458 0.704790 0.763097 0.194022
C30   C     C_R   0.745739 0.293036 0.235476 0.194455
C31   C     C_R   0.292655 0.253888 0.764748 0.195150
C32   C     C_R   0.708672 0.747417 0.234527 0.195637
C33   C     C_R   0.746057 0.707275 0.235293 0.194110
C34   C     C_R   0.255212 0.293972 0.763941 0.194375
C35   C     C_R   0.708341 0.252907 0.234699 0.195212
C36   C     C_R   0.293973 0.744802 0.763941 0.194936
C37   C     C_R   0.255331 0.294100 0.236139 0.194057
C38   C     C_R   0.743559 0.704813 0.763112 0.194355
C39   C     C_R   0.291890 0.746869 0.234823 0.195228
C40   C     C_R   0.709666 0.251599 0.765969 0.195983
C41   C     C_R   0.245516 0.793258 0.264390 0.194076
C42   C     C_R   0.752988 0.208225 0.734762 0.194617
C43   C     C_R   0.207218 0.245981 0.264674 0.194991
C44   C     C_R   0.793958 0.755182 0.736049 0.194885
C45   C     C_R   0.754262 0.206957 0.264521 0.194087
C46   C     C_R   0.243545 0.795202 0.736898 0.194294
C47   C     C_R   0.791325 0.752574 0.265476 0.195322
C48   C     C_R   0.207340 0.246101 0.735258 0.195434
C49   C     C_R   0.244786 0.206020 0.736063 0.194062
C50   C     C_R   0.753942 0.792719 0.264710 0.194477
C51   C     C_R   0.206032 0.755187 0.736053 0.194708
C52   C     C_R   0.791662 0.247084 0.265297 0.195517
C53   C     C_R   0.756444 0.795195 0.736892 0.194082
C54   C     C_R   0.244669 0.205906 0.263864 0.194371
C55   C     C_R   0.790329 0.248412 0.734025 0.195639
C56   C     C_R   0.208107 0.753140 0.265173 0.195529
C57   C     C_R   0.787196 0.290048 0.749261 -0.190171
C58   C     C_R   0.212734 0.710027 0.250782 -0.190276
C59   C     C_R   0.712631 0.789875 0.750846 -0.190226
C60   C     C_R   0.287310 0.210070 0.249191 -0.190279
C61   C     C_R   0.212631 0.710125 0.749153 -0.190198
C62   C     C_R   0.787257 0.289982 0.250775 -0.190247
C63   C     C_R   0.287300 0.210056 0.750808 -0.190288
C64   C     C_R   0.712758 0.789998 0.249235 -0.190259
C65   C     C_R   0.787239 0.709995 0.250768 -0.190300
C66   C     C_R   0.212697 0.289936 0.749196 -0.190249
C67   C     C_R   0.712745 0.210010 0.249222 -0.190288
C68   C     C_R   0.287373 0.789867 0.750842 -0.190169
C69   C     C_R   0.212692 0.289936 0.250812 -0.190317
C70   C     C_R   0.787372 0.710132 0.749158 -0.190192
C71   C     C_R   0.287264 0.789980 0.249215 -0.190319
C72   C     C_R   0.712800 0.209961 0.750734 -0.190127
C73   C     C_1   0.827541 0.329168 0.749561 0.173690
C74   C     C_1   0.172429 0.670866 0.250457 0.173397
C75   C     C_1   0.672382 0.829091 0.750486 0.173178
C76   C     C_1   0.327592 0.170886 0.249530 0.173248
C77   C     C_1   0.172382 0.670909 0.749513 0.173164
C78   C     C_1   0.827568 0.329137 0.250454 0.173487
C79   C     C_1   0.327586 0.170877 0.750470 0.173204
C80   C     C_1   0.672439 0.829144 0.249551 0.173507
C81   C     C_1   0.827560 0.670851 0.250451 0.173407
C82   C     C_1   0.172412 0.329118 0.749533 0.173295
C83   C     C_1   0.672433 0.170859 0.249543 0.173376
C84   C     C_1   0.327620 0.829085 0.750484 0.173221
C85   C     C_1   0.172409 0.329118 0.250472 0.173187
C86   C     C_1   0.827620 0.670914 0.749517 0.173234
C87   C     C_1   0.327570 0.829139 0.249541 0.173293
C88   C     C_1   0.672457 0.170838 0.750435 0.173843
C89   C     C_1   0.638876 0.138165 0.750202 -0.034068
C90   C     C_1   0.361130 0.861831 0.249791 -0.034385
C91   C     C_1   0.861144 0.638185 0.749786 -0.034448
C92   C     C_1   0.138863 0.361825 0.250212 -0.034452
C93   C     C_1   0.361144 0.861815 0.750214 -0.034319
C94   C     C_1   0.638869 0.138170 0.249791 -0.034313
C95   C     C_1   0.138865 0.361824 0.749790 -0.034504
C96   C     C_1   0.861128 0.638167 0.250207 -0.034347
C97   C     C_1   0.638871 0.861831 0.249794 -0.034464
C98   C     C_1   0.361134 0.138172 0.750212 -0.034373
C99   C     C_1   0.861131 0.361828 0.250207 -0.034417
C100  C     C_1   0.138857 0.638182 0.749784 -0.034165
C101  C     C_1   0.361137 0.138177 0.249789 -0.034602
C102  C     C_1   0.638857 0.861818 0.750216 -0.034286
C103  C     C_1   0.138869 0.638171 0.250208 -0.034498
C104  C     C_1   0.861124 0.361838 0.749796 -0.033996
C105  C     C_R   0.502309 0.046313 0.582813 0.662653
C106  C     C_R   0.502300 0.953698 0.417187 0.662557
C107  C     C_R   0.953677 0.502688 0.582816 0.662577
C108  C     C_R   0.046296 0.502011 0.417190 0.662542
C109  C     C_R   0.497696 0.953706 0.582815 0.662332
C110  C     C_R   0.497702 0.046306 0.417185 0.662462
C111  C     C_R   0.046243 0.497343 0.582818 0.662295
C112  C     C_R   0.953662 0.498003 0.417189 0.662582
C113  C     C_R   0.003008 0.546273 0.082818 0.662275
C114  C     C_R   0.001738 0.453663 0.917195 0.662484
C115  C     C_R   0.453701 0.002341 0.082814 0.662571
C116  C     C_R   0.546308 0.002275 0.917186 0.662717
C117  C     C_R   0.997001 0.453746 0.082821 0.662162
C118  C     C_R   0.998258 0.546320 0.917192 0.662242
C119  C     C_R   0.546305 0.997673 0.082814 0.662666
C120  C     C_R   0.453699 0.997725 0.917186 0.662483
O53   O     O_2   0.504820 0.090845 0.594640 -0.470976
O54   O     O_2   0.504803 0.909166 0.405359 -0.471131
O55   O     O_2   0.909166 0.505557 0.594644 -0.469535
O56   O     O_2   0.090844 0.504237 0.405363 -0.469612
O57   O     O_2   0.495185 0.909175 0.594645 -0.471692
O58   O     O_2   0.495198 0.090837 0.405355 -0.471355
O59   O     O_2   0.090751 0.494470 0.594646 -0.469699
O60   O     O_2   0.909117 0.495772 0.405360 -0.469402
O61   O     O_2   0.006202 0.590763 0.094645 -0.471016
O62   O     O_2   0.003720 0.409103 0.905368 -0.471125
O63   O     O_2   0.409172 0.004879 0.094643 -0.469648
O64   O     O_2   0.590840 0.004755 0.905357 -0.469396
O65   O     O_2   0.993806 0.409259 0.094651 -0.471084
O66   O     O_2   0.996273 0.590878 0.905362 -0.471650
O67   O     O_2   0.590834 0.995135 0.094643 -0.469366
O68   O     O_2   0.409166 0.995244 0.905358 -0.469914
N1    N     N_R   0.500002 0.000010 0.593914 -0.331450
N2    N     N_R   0.500001 0.000002 0.406086 -0.331463
N3    N     N_R   0.999959 0.500009 0.593917 -0.331693
N4    N     N_R   0.999981 0.500004 0.406089 -0.331657
N5    N     N_R   0.000002 0.500011 0.093920 -0.331611
N6    N     N_R   0.999997 0.499990 0.906092 -0.331421
N7    N     N_R   0.500003 0.000006 0.093915 -0.331663
N8    N     N_R   0.500003 1.000000 0.906086 -0.331632
C121  C     C_R   0.546632 0.989712 0.629726 0.315214
C122  C     C_R   0.546632 0.010289 0.370273 0.314990
C123  C     C_R   0.010722 0.546521 0.629729 0.315314
C124  C     C_R   0.989916 0.546678 0.370274 0.314929
C125  C     C_R   0.453373 0.010307 0.629726 0.315093
C126  C     C_R   0.453369 0.989710 0.370274 0.315039
C127  C     C_R   0.989219 0.453473 0.629732 0.314935
C128  C     C_R   0.010055 0.453321 0.370277 0.315043
C129  C     C_R   0.046425 0.488862 0.129733 0.315564
C130  C     C_R   0.046713 0.509873 0.870279 0.315258
C131  C     C_R   0.510332 0.046627 0.129727 0.314935
C132  C     C_R   0.489735 0.046636 0.870273 0.314991
C133  C     C_R   0.953570 0.511155 0.129733 0.315356
C134  C     C_R   0.953280 0.490107 0.870278 0.314871
C135  C     C_R   0.489675 0.953380 0.129727 0.314978
C136  C     C_R   0.510270 0.953362 0.870274 0.315040
C137  C     C_R   0.545865 0.989718 0.653087 -0.231980
C138  C     C_R   0.545865 0.010280 0.346912 -0.231743
C139  C     C_R   0.010713 0.545763 0.653089 -0.227194
C140  C     C_R   0.989916 0.545910 0.346914 -0.226077
C141  C     C_R   0.454138 0.010295 0.653087 -0.232606
C142  C     C_R   0.454135 0.989719 0.346913 -0.232172
C143  C     C_R   0.989257 0.454235 0.653093 -0.226099
C144  C     C_R   0.010063 0.454087 0.346916 -0.226396
C145  C     C_R   0.045672 0.488895 0.153093 -0.232137
C146  C     C_R   0.045947 0.509892 0.846918 -0.232644
C147  C     C_R   0.510321 0.045860 0.153088 -0.226360
C148  C     C_R   0.489742 0.045869 0.846912 -0.226045
C149  C     C_R   0.954325 0.511112 0.153094 -0.231762
C150  C     C_R   0.954049 0.490096 0.846917 -0.232128
C151  C     C_R   0.489684 0.954145 0.153088 -0.226118
C152  C     C_R   0.510261 0.954128 0.846913 -0.227139
C153  C     C_R   0.500002 0.000010 0.617904 0.060199
C154  C     C_R   0.500001 0.000000 0.382095 0.060203
C155  C     C_R   0.999959 0.500001 0.617908 0.059568
C156  C     C_R   0.999984 0.500000 0.382098 0.059593
C157  C     C_R   0.999999 0.500012 0.117912 0.059978
C158  C     C_R   0.999997 0.499988 0.882101 0.060308
C159  C     C_R   0.500003 0.000004 0.117905 0.059584
C160  C     C_R   0.500003 0.999999 0.882096 0.059621
C161  C     C_R   0.500002 0.000008 0.547411 -0.172571
C162  C     C_R   0.500001 0.000004 0.452589 -0.172549
C163  C     C_R   0.999964 0.500023 0.547414 -0.172392
C164  C     C_R   0.999975 0.500015 0.452593 -0.172352
C165  C     C_R   0.000007 0.500005 0.047417 -0.172583
C166  C     C_R   0.000002 0.499995 0.952596 -0.172554
C167  C     C_R   0.500003 0.000007 0.047411 -0.172355
C168  C     C_R   0.500003 0.000002 0.952589 -0.172378
C169  C     C_R   0.502316 0.047514 0.559301 -0.114762
C170  C     C_R   0.502308 0.952497 0.440699 -0.114698
C171  C     C_R   0.952477 0.502702 0.559305 -0.114900
C172  C     C_R   0.047495 0.502006 0.440702 -0.114883
C173  C     C_R   0.497687 0.952503 0.559303 -0.114601
C174  C     C_R   0.497693 0.047509 0.440696 -0.114629
C175  C     C_R   0.047448 0.497341 0.559306 -0.114923
C176  C     C_R   0.952457 0.498019 0.440700 -0.114912
C177  C     C_R   0.003020 0.547473 0.059306 -0.114744
C178  C     C_R   0.001711 0.452463 0.940706 -0.114709
C179  C     C_R   0.452500 0.002350 0.059303 -0.114861
C180  C     C_R   0.547510 0.002283 0.940698 -0.114958
C181  C     C_R   0.996993 0.452541 0.059310 -0.114755
C182  C     C_R   0.998290 0.547525 0.940703 -0.114655
C183  C     C_R   0.547507 0.997665 0.059303 -0.114918
C184  C     C_R   0.452497 0.997720 0.940698 -0.114805
C185  C     C_R   0.504811 0.094731 0.547415 0.554623
C186  C     C_R   0.504796 0.905279 0.452585 0.554581
C187  C     C_R   0.905281 0.505555 0.547418 0.554363
C188  C     C_R   0.094728 0.504175 0.452589 0.554438
C189  C     C_R   0.495192 0.905284 0.547419 0.554625
C190  C     C_R   0.495205 0.094728 0.452581 0.554531
C191  C     C_R   0.094647 0.494495 0.547421 0.554548
C192  C     C_R   0.905222 0.495857 0.452585 0.554384
C193  C     C_R   0.006194 0.594650 0.047418 0.554652
C194  C     C_R   0.003584 0.405217 0.952594 0.554423
C195  C     C_R   0.405284 0.004872 0.047417 0.554451
C196  C     C_R   0.594729 0.004745 0.952583 0.554484
C197  C     C_R   0.993822 0.405361 0.047425 0.554718
C198  C     C_R   0.996420 0.594773 0.952588 0.554580
C199  C     C_R   0.594723 0.995142 0.047417 0.554432
C200  C     C_R   0.405278 0.995259 0.952584 0.554397
C201  C     C_R   0.500001 0.000004 0.664876 -0.133320
C202  C     C_R   0.500000 1.000000 0.335124 -0.133508
C203  C     C_R   0.999990 0.500000 0.664878 -0.135449
C204  C     C_R   0.999994 0.499999 0.335126 -0.135776
C205  C     C_R   1.000000 0.500003 0.164880 -0.133112
C206  C     C_R   0.999999 0.499996 0.835128 -0.133543
C207  C     C_R   0.500001 0.000002 0.164876 -0.135698
C208  C     C_R   0.500001 0.999999 0.835124 -0.135559
H1    H     H_    0.418546 0.018076 0.662139 0.222770
H2    H     H_    0.418541 0.981943 0.337862 0.222960
H3    H     H_    0.981135 0.418720 0.662147 0.224516
H4    H     H_    0.017676 0.418455 0.337867 0.224567
H5    H     H_    0.581457 0.981935 0.662139 0.222815
H6    H     H_    0.581459 0.018056 0.337860 0.223086
H7    H     H_    0.018851 0.581281 0.662138 0.224161
H8    H     H_    0.982307 0.581542 0.337862 0.224657
H9    H     H_    0.918879 0.519541 0.162146 0.222732
H10   H     H_    0.918386 0.482626 0.837868 0.223184
H11   H     H_    0.481878 0.918557 0.162141 0.224566
H12   H     H_    0.518020 0.918530 0.837862 0.224393
H13   H     H_    0.081120 0.480461 0.162143 0.222487
H14   H     H_    0.081611 0.517364 0.837870 0.222784
H15   H     H_    0.518127 0.081447 0.162139 0.224568
H16   H     H_    0.481983 0.081467 0.837859 0.224525
C209  C     C_R   0.999345 0.547777 0.988152 0.028654
C210  C     C_R   0.998032 0.452260 0.011861 0.028626
C211  C     C_R   0.452238 0.998731 0.988147 0.028692
C212  C     C_R   0.547768 0.998670 0.011853 0.028676
C213  C     C_R   0.000665 0.452221 0.988155 0.028692
C214  C     C_R   0.001981 0.547743 0.011857 0.028661
C215  C     C_R   0.547769 0.001278 0.988147 0.028662
C216  C     C_R   0.452239 0.001341 0.011854 0.028671
C217  C     C_R   0.498700 0.047771 0.488145 0.028678
C218  C     C_R   0.498693 0.952241 0.511854 0.028659
C219  C     C_R   0.952198 0.499057 0.488150 0.028672
C220  C     C_R   0.047721 0.498367 0.511857 0.028649
C221  C     C_R   0.501301 0.952239 0.488148 0.028672
C222  C     C_R   0.501309 0.047772 0.511852 0.028652
C223  C     C_R   0.047743 0.500987 0.488151 0.028679
C224  C     C_R   0.952214 0.501681 0.511856 0.028686
C225  C     C_R   0.000004 0.499998 0.976359 0.087142
C226  C     C_R   0.000007 0.500003 0.023653 0.087171
C227  C     C_R   0.500003 0.000004 0.976353 0.087194
C228  C     C_R   0.500003 0.000006 0.023648 0.087206
C229  C     C_R   0.500001 0.000005 0.476353 0.087131
C230  C     C_R   0.500001 0.000007 0.523647 0.087123
C231  C     C_R   0.999972 0.500020 0.476356 0.087216
C232  C     C_R   0.999966 0.500024 0.523651 0.087211
C233  C     C_R   0.995278 0.594304 0.975808 -0.293758
C234  C     C_R   0.992687 0.405862 0.024205 -0.293693
C235  C     C_R   0.405765 0.994093 0.975803 -0.293637
C236  C     C_R   0.594234 0.993974 0.024198 -0.293536
C237  C     C_R   0.004731 0.405691 0.975815 -0.293684
C238  C     C_R   0.007328 0.594143 0.024198 -0.293731
C239  C     C_R   0.594242 0.005914 0.975802 -0.293544
C240  C     C_R   0.405773 0.006039 0.024198 -0.293589
C241  C     C_R   0.494037 0.094241 0.475800 -0.293687
C242  C     C_R   0.494023 0.905771 0.524200 -0.293751
C243  C     C_R   0.905698 0.494705 0.475806 -0.293550
C244  C     C_R   0.094153 0.493346 0.524201 -0.293621
C245  C     C_R   0.505964 0.905768 0.475805 -0.293691
C246  C     C_R   0.505979 0.094242 0.524195 -0.293640
C247  C     C_R   0.094245 0.505336 0.475808 -0.293617
C248  C     C_R   0.905780 0.506706 0.524198 -0.293575
H17   H     H_    0.989853 0.631576 0.983645 0.165034
H18   H     H_    0.986235 0.368754 0.016369 0.165084
H19   H     H_    0.368563 0.988196 0.983638 0.165027
H20   H     H_    0.631429 0.988029 0.016364 0.165065
H21   H     H_    0.010157 0.368421 0.983653 0.165032
H22   H     H_    0.013782 0.631249 0.016359 0.165051
H23   H     H_    0.631444 0.011812 0.983636 0.165071
H24   H     H_    0.368578 0.011985 0.016364 0.165055
H25   H     H_    0.488118 0.131441 0.483633 0.165030
H26   H     H_    0.488099 0.868572 0.516367 0.165032
H27   H     H_    0.868460 0.489046 0.483641 0.165066
H28   H     H_    0.131306 0.487147 0.516366 0.165066
H29   H     H_    0.511883 0.868569 0.483640 0.165035
H30   H     H_    0.511902 0.131441 0.516360 0.165071
H31   H     H_    0.131482 0.510999 0.483645 0.165041
H32   H     H_    0.868629 0.512908 0.516361 0.165053
N9    N     N_R   0.667434 0.254233 0.781637 0.252322
O69   O     O_R   0.640176 0.296643 0.783566 -0.254689
O70   O     O_R   0.655954 0.214262 0.793986 -0.320325
N10   N     N_R   0.335647 0.742732 0.220004 0.252303
O71   O     O_R   0.363053 0.700205 0.219353 -0.255828
O72   O     O_R   0.348369 0.781450 0.207157 -0.317691
N11   N     N_R   0.738086 0.659729 0.777102 0.252218
O73   O     O_R   0.728263 0.665043 0.798229 -0.261652
O74   O     O_R   0.743032 0.613231 0.768810 -0.310833
N12   N     N_R   0.259615 0.338014 0.221412 0.252225
O75   O     O_R   0.267674 0.330979 0.200240 -0.261247
O76   O     O_R   0.255335 0.385161 0.229076 -0.309434
N13   N     N_R   0.339757 0.738660 0.777454 0.252103
O77   O     O_R   0.367135 0.696176 0.776281 -0.256031
O78   O     O_R   0.354349 0.775508 0.790926 -0.317377
N14   N     N_R   0.664811 0.256827 0.219748 0.252411
O79   O     O_R   0.637418 0.299344 0.218904 -0.255312
O80   O     O_R   0.652280 0.217919 0.206973 -0.317726
N15   N     N_R   0.259377 0.337763 0.778740 0.252006
O81   O     O_R   0.267283 0.330550 0.799912 -0.262882
O82   O     O_R   0.255147 0.384974 0.771142 -0.308698
N16   N     N_R   0.743242 0.664817 0.219743 0.251989
O83   O     O_R   0.737207 0.673888 0.198589 -0.262426
O84   O     O_R   0.746842 0.616969 0.226639 -0.308775
N17   N     N_R   0.665464 0.743819 0.219391 0.252231
O85   O     O_R   0.638102 0.701318 0.218270 -0.255814
O86   O     O_R   0.653200 0.783003 0.206723 -0.319654
N18   N     N_R   0.337160 0.258764 0.779111 0.252173
O87   O     O_R   0.364589 0.301304 0.779107 -0.256166
O88   O     O_R   0.350539 0.220706 0.792194 -0.317119
N19   N     N_R   0.742584 0.335835 0.220109 0.251818
O89   O     O_R   0.736085 0.327229 0.198945 -0.263862
O90   O     O_R   0.746330 0.383528 0.227182 -0.309410
N20   N     N_R   0.261943 0.659692 0.777078 0.252418
O91   O     O_R   0.271784 0.664986 0.798205 -0.260293
O92   O     O_R   0.256984 0.613202 0.768780 -0.309626
N21   N     N_R   0.337413 0.259035 0.221044 0.252093
O93   O     O_R   0.364823 0.301586 0.221152 -0.256585
O94   O     O_R   0.350923 0.221087 0.207929 -0.318576
N22   N     N_R   0.660280 0.738704 0.777481 0.252242
O95   O     O_R   0.632895 0.696222 0.776323 -0.255954
O96   O     O_R   0.645708 0.775568 0.790951 -0.315710
N23   N     N_R   0.257873 0.663723 0.220367 0.251857
O97   O     O_R   0.264693 0.672015 0.199198 -0.263706
O98   O     O_R   0.254021 0.616135 0.227561 -0.309005
N24   N     N_R   0.745199 0.333248 0.781293 0.251824
O99   O     O_R   0.740504 0.322847 0.802397 -0.263437
O100  O     O_R   0.748382 0.381513 0.774911 -0.307360
N25   N     N_R   0.164347 0.757282 0.279990 0.252147
O101  O     O_R   0.136948 0.799813 0.280641 -0.256186
O102  O     O_R   0.151618 0.718564 0.292836 -0.319333
N26   N     N_R   0.832558 0.245783 0.718355 0.252516
O103  O     O_R   0.859822 0.203376 0.716427 -0.254244
O104  O     O_R   0.844032 0.285755 0.706007 -0.318631
N27   N     N_R   0.240382 0.161989 0.278589 0.252014
O105  O     O_R   0.232318 0.169019 0.299761 -0.262902
O106  O     O_R   0.244659 0.114843 0.270923 -0.309737
N28   N     N_R   0.761912 0.840276 0.722900 0.252419
O107  O     O_R   0.771731 0.834958 0.701772 -0.260243
O108  O     O_R   0.756964 0.886775 0.731189 -0.310533
N29   N     N_R   0.835195 0.243160 0.280247 0.252252
O109  O     O_R   0.862581 0.200638 0.281090 -0.255667
O110  O     O_R   0.847733 0.282067 0.293020 -0.319354
N30   N     N_R   0.160251 0.761325 0.722538 0.252224
O111  O     O_R   0.132867 0.803805 0.723711 -0.255775
O112  O     O_R   0.145666 0.724476 0.709064 -0.315674
N31   N     N_R   0.756762 0.835180 0.280257 0.251769
O113  O     O_R   0.762802 0.826114 0.301411 -0.264132
O114  O     O_R   0.753165 0.883026 0.273359 -0.309148
N32   N     N_R   0.240624 0.162232 0.721262 0.252216
O115  O     O_R   0.232723 0.169450 0.700090 -0.261433
O116  O     O_R   0.244858 0.115019 0.728858 -0.308375
N33   N     N_R   0.162833 0.241221 0.720896 0.252024
O117  O     O_R   0.135411 0.198677 0.720900 -0.256502
O118  O     O_R   0.149446 0.279278 0.707814 -0.318789
N34   N     N_R   0.834530 0.756167 0.280615 0.252392
O119  O     O_R   0.861899 0.798665 0.281735 -0.255435
O120  O     O_R   0.846787 0.716983 0.293284 -0.318094
N35   N     N_R   0.238057 0.840302 0.722919 0.252221
O121  O     O_R   0.228211 0.835012 0.701793 -0.261609
O122  O     O_R   0.243013 0.886790 0.731219 -0.309906
N36   N     N_R   0.757413 0.164162 0.279890 0.252036
O123  O     O_R   0.763907 0.172773 0.301054 -0.262276
O124  O     O_R   0.753662 0.116467 0.272820 -0.309019
N37   N     N_R   0.839727 0.761310 0.722526 0.252121
O125  O     O_R   0.867106 0.803796 0.723684 -0.256209
O126  O     O_R   0.854306 0.724447 0.709058 -0.317358
N38   N     N_R   0.162593 0.240978 0.278961 0.252228
O127  O     O_R   0.135175 0.198431 0.278853 -0.256263
O128  O     O_R   0.149090 0.278927 0.292078 -0.317005
N39   N     N_R   0.754802 0.166758 0.718704 0.251603
O129  O     O_R   0.759502 0.177154 0.697600 -0.264831
O130  O     O_R   0.751624 0.118494 0.725088 -0.307782
N40   N     N_R   0.242130 0.836280 0.279632 0.252072
O131  O     O_R   0.235315 0.827984 0.300801 -0.262128
O132  O     O_R   0.245986 0.883870 0.272440 -0.308634
N41   N     N_R   0.405112 0.020890 0.618354 0.232510
O133  O     O_R   0.368568 0.047188 0.628263 -0.310913
O134  O     O_R   0.395503 0.001105 0.598851 -0.355979
N42   N     N_R   0.405107 0.979138 0.381647 0.232603
O135  O     O_R   0.368558 0.952844 0.371739 -0.310284
O136  O     O_R   0.395500 0.998931 0.401148 -0.355777
N43   N     N_R   0.978166 0.405320 0.618359 0.233077
O137  O     O_R   0.951463 0.369056 0.628260 -0.305418
O138  O     O_R   0.997907 0.395499 0.598868 -0.355150
N44   N     N_R   0.020378 0.405005 0.381652 0.233098
O139  O     O_R   0.046506 0.368331 0.371750 -0.306481
O140  O     O_R   0.000505 0.395491 0.401147 -0.355175
N45   N     N_R   0.594893 0.979133 0.618354 0.232757
O141  O     O_R   0.631437 0.952834 0.628263 -0.311294
O142  O     O_R   0.604503 0.998924 0.598852 -0.355367
N46   N     N_R   0.594896 0.020861 0.381645 0.232724
O143  O     O_R   0.631448 0.047146 0.371734 -0.309916
O144  O     O_R   0.604500 0.001077 0.401149 -0.355498
N47   N     N_R   0.021787 0.594661 0.618352 0.232821
O145  O     O_R   0.048705 0.630826 0.628210 -0.307556
O146  O     O_R   0.001849 0.604574 0.598905 -0.355235
N48   N     N_R   0.979584 0.594993 0.381646 0.233071
O147  O     O_R   0.953429 0.631652 0.371745 -0.305724
O148  O     O_R   0.999478 0.604524 0.401136 -0.355208
N49   N     N_R   0.905526 0.522627 0.118357 0.232624
O149  O     O_R   0.869582 0.549831 0.128220 -0.310099
O150  O     O_R   0.895455 0.502794 0.098906 -0.355260
N50   N     N_R   0.904924 0.479987 0.881652 0.232507
O151  O     O_R   0.868160 0.453968 0.871758 -0.309347
O152  O     O_R   0.895471 0.499954 0.901135 -0.355975
N51   N     N_R   0.479063 0.905125 0.118356 0.233139
O153  O     O_R   0.452749 0.868593 0.128267 -0.306075
O154  O     O_R   0.498838 0.895506 0.098852 -0.355068
N52   N     N_R   0.520819 0.905093 0.881647 0.232955
O155  O     O_R   0.547083 0.868527 0.871737 -0.307281
O156  O     O_R   0.501033 0.895500 0.901152 -0.355558
N53   N     N_R   0.094463 0.477382 0.118355 0.232521
O157  O     O_R   0.130363 0.450088 0.128202 -0.311116
O158  O     O_R   0.104572 0.497295 0.098922 -0.355298
N54   N     N_R   0.095066 0.519992 0.881654 0.232517
O159  O     O_R   0.131817 0.546046 0.871766 -0.311519
O160  O     O_R   0.104532 0.499988 0.901129 -0.355849
N55   N     N_R   0.520946 0.094881 0.118354 0.233050
O161  O     O_R   0.547279 0.131403 0.128261 -0.305983
O162  O     O_R   0.501156 0.104510 0.098854 -0.355239
N56   N     N_R   0.479189 0.094906 0.881644 0.233183
O163  O     O_R   0.452925 0.131473 0.871733 -0.306386
O164  O     O_R   0.498976 0.104500 0.901148 -0.354953
O165  O     O_3   0.509996 0.141816 0.558354 -0.553794
C249  C     C_3   0.461822 0.168060 0.557684 -0.145622
H33   H     H_    0.430104 0.144039 0.565034 0.176591
H34   H     H_    0.451592 0.179830 0.540412 0.133833
H35   H     H_    0.465046 0.204042 0.567778 0.212567
O166  O     O_3   0.509974 0.858194 0.441646 -0.553938
C250  C     C_3   0.461796 0.831957 0.442317 -0.145613
H36   H     H_    0.430080 0.855982 0.434967 0.176684
H37   H     H_    0.451566 0.820187 0.459589 0.133854
H38   H     H_    0.465015 0.795974 0.432222 0.212548
O167  O     O_3   0.858237 0.511102 0.558357 -0.553919
C251  C     C_3   0.831629 0.463128 0.557692 -0.144070
H39   H     H_    0.855406 0.431231 0.565046 0.176839
H40   H     H_    0.819783 0.452978 0.540421 0.133549
H41   H     H_    0.795671 0.466630 0.567786 0.212932
O168  O     O_3   0.141847 0.509037 0.441650 -0.553807
C252  C     C_3   0.167754 0.460680 0.442316 -0.144402
H42   H     H_    0.143514 0.429133 0.434962 0.176718
H43   H     H_    0.179449 0.450358 0.459587 0.133590
H44   H     H_    0.203759 0.463658 0.432222 0.212876
O169  O     O_3   0.490007 0.858201 0.558361 -0.554036
C253  C     C_3   0.538180 0.831956 0.557691 -0.146255
H45   H     H_    0.569900 0.855977 0.565040 0.176661
H46   H     H_    0.548409 0.820184 0.540419 0.133979
H47   H     H_    0.534957 0.795975 0.567787 0.212369
O170  O     O_3   0.490026 0.141812 0.441639 -0.554076
C254  C     C_3   0.538204 0.168050 0.442308 -0.145579
H48   H     H_    0.569920 0.144025 0.434960 0.176754
H49   H     H_    0.548434 0.179821 0.459580 0.133943
H50   H     H_    0.534985 0.204032 0.432212 0.212503
O171  O     O_3   0.141688 0.488949 0.558362 -0.553694
C255  C     C_3   0.168290 0.536927 0.557699 -0.144883
H51   H     H_    0.144507 0.568818 0.565054 0.176610
H52   H     H_    0.180137 0.547086 0.540429 0.133593
H53   H     H_    0.204247 0.533426 0.567794 0.212808
O172  O     O_3   0.858105 0.490992 0.441645 -0.553808
C256  C     C_3   0.832200 0.539351 0.442305 -0.144001
H54   H     H_    0.856443 0.570893 0.434948 0.176765
H55   H     H_    0.820502 0.549682 0.459575 0.133527
H56   H     H_    0.796197 0.536370 0.432210 0.212975
O173  O     O_3   0.012072 0.641654 0.058356 -0.553914
C257  C     C_3   0.964284 0.668595 0.057695 -0.145621
H57   H     H_    0.932228 0.645039 0.065052 0.176751
H58   H     H_    0.954207 0.680510 0.040424 0.133794
H59   H     H_    0.968041 0.704528 0.067787 0.212522
O174  O     O_3   0.008158 0.358067 0.941657 -0.554210
C258  C     C_3   0.959637 0.332469 0.942313 -0.144984
H60   H     H_    0.928255 0.356907 0.934951 0.176936
H61   H     H_    0.949220 0.320843 0.959583 0.133864
H62   H     H_    0.962399 0.296442 0.932222 0.212621
O175  O     O_3   0.358204 0.010086 0.058358 -0.553766
C259  C     C_3   0.331930 0.961928 0.057689 -0.144486
H63   H     H_    0.355931 0.930193 0.065039 0.176698
H64   H     H_    0.320152 0.951706 0.040417 0.133543
H65   H     H_    0.295951 0.965173 0.067785 0.212877
O176  O     O_3   0.641815 0.009897 0.941642 -0.553613
C260  C     C_3   0.668026 0.961704 0.942313 -0.144467
H66   H     H_    0.643983 0.930001 0.934964 0.176538
H67   H     H_    0.679790 0.951466 0.959585 0.133599
H68   H     H_    0.704009 0.964902 0.932217 0.212915
O177  O     O_3   0.987944 0.358359 0.058366 -0.553814
C261  C     C_3   0.035734 0.331420 0.057707 -0.145886
H69   H     H_    0.067788 0.354979 0.065064 0.176646
H70   H     H_    0.045813 0.319503 0.040438 0.133834
H71   H     H_    0.031977 0.295488 0.067802 0.212481
O178  O     O_3   0.991844 0.641920 0.941647 -0.554149
C262  C     C_3   0.040365 0.667519 0.942299 -0.146028
H72   H     H_    0.071746 0.643078 0.934937 0.176781
H73   H     H_    0.050787 0.679148 0.959568 0.133972
H74   H     H_    0.037602 0.703543 0.932206 0.212404
O179  O     O_3   0.641803 0.989929 0.058357 -0.553698
C263  C     C_3   0.668075 0.038088 0.057687 -0.144164
H75   H     H_    0.644073 0.069822 0.065036 0.176673
H76   H     H_    0.679852 0.048311 0.040415 0.133548
H77   H     H_    0.704054 0.034844 0.067782 0.212944
O180  O     O_3   0.358191 0.990106 0.941644 -0.553930
C264  C     C_3   0.331981 0.038299 0.942312 -0.144590
H78   H     H_    0.356023 0.070002 0.934962 0.176736
H79   H     H_    0.320217 0.048538 0.959584 0.133652
H80   H     H_    0.295997 0.035099 0.932217 0.212828

loop_
_geom_bond_atom_site_label_1
_geom_bond_atom_site_label_2
_geom_bond_distance
_ccdc_geom_bond_type
N27   O105  1.301266 A    
C123  C155  1.418183 A    
C62   C78   1.444878 S    
C256  H54   1.114136 S    
C248  H32   1.076689 S    
C263  H77   1.109216 S    
C107  N3    1.365738 A    
Zn5   O51   1.919549 S    
C16   C103  1.432111 S    
C224  C232  1.418106 A    
C173  C189  1.409788 A    
C211  C227  1.418118 A    
O173  C257  1.410930 S    
C221  C245  1.411226 A    
C82   C95   1.204615 T    
C244  H28   1.076686 S    
C257  H59   1.109220 S    
C187  O167  1.383794 S    
C109  O57   1.348980 S    
C55   N26   1.438523 S    
C142  C202  1.400613 A    
N19   O90   1.301253 A    
C125  C153  1.418291 A    
N1    C153  1.441177 S    
N17   O86   1.301254 A    
O170  C254  1.410932 S    
C138  H6    1.083065 S    
Zn3   O38   1.919556 S    
C196  C239  1.395254 A    
C51   N30   1.438521 S    
C41   N40   1.438525 S    
Zn5   O20   1.906319 S    
C259  H63   1.114137 S    
C118  O66   1.348980 S    
C132  N56   1.442288 S    
N37   O125  1.301271 A    
C112  C176  1.412753 A    
Zn13  O35   1.919549 S    
C40   N9    1.438518 S    
O34   C22   1.268469 A    
Zn14  O36   1.919551 S    
C123  C139  1.403429 A    
C251  H39   1.114138 S    
N51   O154  1.300921 A    
C43   N38   1.438520 S    
C33   N16   1.438519 S    
Zn3   O3    1.940031 S    
O178  C262  1.410929 S    
C61   C77   1.444855 S    
C112  O60   1.348978 S    
N6    C158  1.441225 S    
C70   C86   1.444882 S    
Zn3   O45   1.919555 S    
C164  C176  1.416124 A    
C189  C242  1.395246 A    
C186  C245  1.395247 A    
C87   C90   1.204596 T    
C80   C97   1.204615 T    
C191  C244  1.395256 A    
C181  C197  1.409815 A    
C25   N24   1.438518 S    
C178  C194  1.409812 A    
C214  C226  1.418098 A    
C167  C228  1.427552 A    
C68   C84   1.444876 S    
C147  C207  1.400607 A    
C137  H5    1.083064 S    
C111  N3    1.365732 A    
C56   N25   1.438518 S    
C212  C215  1.425697 A    
C44   C70   1.410719 A    
C163  C232  1.427540 A    
C213  C225  1.418097 A    
O44   C22   1.268366 A    
C168  C227  1.427546 A    
C54   N27   1.438511 S    
Zn1   O44   1.919548 S    
C125  C141  1.403487 A    
Zn2   O43   1.919550 S    
C111  O59   1.348982 S    
O22   C10   1.268397 A    
Zn3   O18   1.906339 S    
N41   O133  1.301589 A    
C76   C101  1.204612 T    
C242  H26   1.076676 S    
C129  C145  1.403434 A    
C260  H68   1.109218 S    
C48   N33   1.438513 S    
C127  C143  1.403499 A    
C42   C55   1.411005 A    
C106  C170  1.412744 A    
C45   C52   1.410995 A    
C110  O58   1.348980 S    
C186  O166  1.383796 S    
O40   C18   1.268425 A    
C136  C152  1.403486 A    
C45   N36   1.438522 S    
C47   C50   1.411004 A    
C218  C221  1.425700 A    
C215  C239  1.411226 A    
O174  C258  1.410931 S    
C69   C85   1.444869 S    
N47   O146  1.300935 A    
C59   C75   1.444860 S    
C60   C76   1.444891 S    
C126  C142  1.403487 A    
C72   C88   1.444881 S    
C123  N47   1.442106 S    
O17   C5    1.273280 A    
C119  N7    1.365731 A    
Zn7   O3    1.940105 S    
C252  H43   1.112337 S    
C256  H56   1.109218 S    
C117  N5    1.365743 A    
C23   C96   1.432084 S    
O9    C1    1.273261 A    
N48   O147  1.301589 A    
C192  O172  1.383792 S    
C245  H29   1.076675 S    
O11   C3    1.273307 A    
N30   O111  1.301271 A    
C43   C69   1.410731 A    
C135  C159  1.418298 A    
C188  O168  1.383796 S    
C161  C169  1.416128 A    
C257  H57   1.114135 S    
C162  C174  1.416126 A    
C210  C213  1.425682 A    
C211  C235  1.411224 A    
Zn14  O3    1.940090 S    
Zn13  O4    1.940096 S    
Zn15  O26   1.919543 S    
N3    C155  1.441207 S    
C262  H74   1.109219 S    
C161  C230  1.427546 A    
C118  C182  1.412755 A    
C190  O170  1.383797 S    
C249  H33   1.114135 S    
C33   C65   1.410712 A    
C124  C156  1.418268 A    
C122  N46   1.442288 S    
C198  O178  1.383790 S    
C259  H65   1.109217 S    
C145  H13   1.083093 S    
N34   O119  1.301271 A    
C108  N4    1.365743 A    
C255  H52   1.112335 S    
C144  C204  1.400642 A    
C8    C201  1.478794 S    
C166  C225  1.427534 A    
C131  C147  1.403481 A    
O38   C20   1.268374 A    
C120  N8    1.365731 A    
C223  C231  1.418111 A    
C44   N37   1.438514 S    
C251  H41   1.109220 S    
C110  N2    1.365729 A    
N22   O96   1.301256 A    
Zn15  O33   1.919537 S    
N33   O117  1.301270 A    
N28   O108  1.301252 A    
C134  N50   1.442231 S    
N16   O83   1.301268 A    
Zn4   O4    1.940030 S    
C31   N18   1.438516 S    
C48   C66   1.410715 A    
O168  C252  1.410931 S    
C195  C240  1.395250 A    
C45   C67   1.410712 A    
C106  N2    1.365732 A    
C46   C68   1.410708 A    
N21   O93   1.301274 A    
N13   O78   1.301250 A    
C14   C97   1.432112 S    
C216  C228  1.418117 A    
Zn15  O2    1.940105 S    
C261  H70   1.112338 S    
C78   C99   1.204613 T    
Zn11  O2    1.940031 S    
Zn16  O5    1.906303 S    
C119  O67   1.348981 S    
C166  C182  1.416117 A    
C188  C247  1.395254 A    
O27   C15   1.268358 A    
O29   C17   1.268418 A    
C53   N28   1.438521 S    
C113  O61   1.348986 S    
C4    C205  1.478602 S    
C249  H35   1.109217 S    
Zn6   O19   1.906319 S    
C213  C237  1.411203 A    
N27   O106  1.301246 A    
C192  C243  1.395264 A    
C47   N34   1.438520 S    
O13   C5    1.273269 A    
O46   C12   1.268429 A    
N22   O95   1.301271 A    
C129  N53   1.442046 S    
C27   N22   1.438516 S    
C7    C202  1.478794 S    
N31   O114  1.301254 A    
O14   C6    1.273216 A    
C250  H38   1.109216 S    
C67   C83   1.444855 S    
C134  C150  1.403500 A    
C261  H71   1.109220 S    
C219  C243  1.411214 A    
C114  N6    1.365753 A    
O43   C21   1.268390 A    
C258  H60   1.114133 S    
C107  C171  1.412757 A    
C209  C214  1.425675 A    
C108  C172  1.412750 A    
C149  H9    1.083088 S    
C141  C201  1.400616 A    
N14   O79   1.301268 A    
C116  O64   1.348984 S    
C1    C208  1.478788 S    
C2    C207  1.478776 S    
N23   O98   1.301253 A    
C63   C79   1.444864 S    
N36   O123  1.301269 A    
C147  H15   1.083067 S    
C84   C93   1.204611 T    
C174  C190  1.409783 A    
C141  H1    1.083063 S    
C43   C54   1.410990 A    
C194  C237  1.395268 A    
C218  C230  1.418118 A    
C152  H12   1.083064 S    
C221  C229  1.418120 A    
N46   O143  1.301585 A    
C264  H79   1.112339 S    
N10   O72   1.301259 A    
C113  C177  1.412756 A    
C200  C235  1.395250 A    
C26   C39   1.411001 A    
N53   O158  1.300938 A    
C115  C179  1.412746 A    
C131  N55   1.442273 S    
C217  C229  1.418121 A    
N42   O135  1.301587 A    
Zn12  O30   1.919557 S    
C46   N35   1.438520 S    
C81   C96   1.204598 T    
C9    C102  1.432081 S    
C195  O175  1.383799 S    
C120  O68   1.348982 S    
Zn1   O16   1.906326 S    
O5    C1    1.273251 A    
C258  H61   1.112339 S    
O31   C19   1.268385 A    
C124  C140  1.403476 A    
N44   O140  1.300925 A    
C197  C234  1.395267 A    
N4    C156  1.441207 S    
C26   N23   1.438522 S    
C27   C38   1.411000 A    
C133  N49   1.442100 S    
C199  C236  1.395253 A    
C254  H48   1.114137 S    
C71   C87   1.444859 S    
C128  N44   1.442264 S    
N45   O141  1.301588 A    
C254  H50   1.109217 S    
O37   C19   1.268386 A    
C18   C93   1.432106 S    
C121  C153  1.418294 A    
C182  C198  1.409811 A    
C220  C232  1.418107 A    
C37   N12   1.438516 S    
C235  H19   1.076674 S    
C130  C158  1.418231 A    
C24   C95   1.432114 S    
C185  O165  1.383795 S    
N26   O103  1.301269 A    
O51   C13   1.268413 A    
C135  N51   1.442287 S    
C165  C177  1.416123 A    
C189  O169  1.383796 S    
N55   O161  1.301587 A    
C167  C179  1.416125 A    
C152  C208  1.400611 A    
C56   C58   1.410713 A    
N15   O82   1.301254 A    
Zn4   O17   1.906339 S    
C36   C68   1.410717 A    
O48   C10   1.268391 A    
C75   C102  1.204597 T    
N18   O87   1.301268 A    
C38   N11   1.438520 S    
O16   C8    1.273266 A    
N36   O124  1.301252 A    
C250  H36   1.114136 S    
C110  C174  1.412747 A    
C35   N14   1.438522 S    
Zn1   O1    1.940079 S    
O52   C14   1.268391 A    
C22   C89   1.432112 S    
N56   O163  1.301588 A    
C44   C53   1.410997 A    
C243  H27   1.076689 S    
N17   O85   1.301270 A    
C163  C175  1.416120 A    
O45   C11   1.268369 A    
C32   C33   1.411001 A    
C51   C61   1.410710 A    
C259  H64   1.112337 S    
C39   C71   1.410704 A    
N44   O139  1.301586 A    
C49   C63   1.410701 A    
C107  O55   1.348982 S    
C50   C64   1.410723 A    
O166  C250  1.410931 S    
C132  C160  1.418303 A    
C37   C69   1.410710 A    
N35   O121  1.301269 A    
C220  C244  1.411210 A    
C169  C185  1.409785 A    
C162  C170  1.416126 A    
C251  H40   1.112337 S    
C193  O173  1.383794 S    
N47   O145  1.301585 A    
C136  C160  1.418307 A    
N32   O115  1.301270 A    
C252  H42   1.114137 S    
O42   C24   1.268426 A    
Zn16  O25   1.919545 S    
C77   C100  1.204597 T    
C74   C103  1.204612 T    
C119  C183  1.412746 A    
C28   C37   1.410987 A    
N12   O75   1.301268 A    
C17   C94   1.432076 S    
Zn4   O37   1.919554 S    
N37   O126  1.301254 A    
Zn5   O40   1.919524 S    
O171  C255  1.410931 S    
Zn6   O39   1.919522 S    
C223  C247  1.411217 A    
C233  H17   1.076705 S    
N11   O73   1.301269 A    
C222  C246  1.411227 A    
Zn8   O50   1.919534 S    
C210  C234  1.411200 A    
O8    C4    1.273221 A    
C253  H45   1.114136 S    
N25   O101  1.301270 A    
C143  H3    1.083076 S    
C5    C204  1.478848 S    
C6    C203  1.478686 S    
N2    C154  1.441177 S    
Zn16  O34   1.919534 S    
C53   C59   1.410699 A    
C217  C241  1.411225 A    
N9    O70   1.301254 A    
C25   C40   1.410998 A    
O165  C249  1.410932 S    
C55   C57   1.410691 A    
Zn5   O1    1.940096 S    
C133  C149  1.403466 A    
C30   C35   1.410999 A    
Zn4   O46   1.919557 S    
C133  C157  1.418168 A    
C28   C60   1.410738 A    
C117  O65   1.348986 S    
Zn12  O21   1.919554 S    
C260  H67   1.112337 S    
Zn13  O24   1.919524 S    
O35   C23   1.268381 A    
Zn14  O23   1.919522 S    
Zn15  O6    1.906303 S    
C28   N21   1.438517 S    
N30   O112  1.301256 A    
Zn16  O1    1.940100 S    
N29   O110  1.301257 A    
O26   C14   1.268454 A    
Zn12  O1    1.940030 S    
C151  H11   1.083065 S    
C13   C98   1.432086 S    
O32   C20   1.268417 A    
Zn13  O12   1.906319 S    
C167  C183  1.416129 A    
Zn14  O11   1.906319 S    
N8    C160  1.441177 S    
C219  C231  1.418111 A    
C190  C241  1.395251 A    
C187  C248  1.395268 A    
Zn7   O14   1.906303 S    
N49   O149  1.301583 A    
C256  H55   1.112336 S    
O12   C4    1.273215 A    
N48   O148  1.300924 A    
C220  C223  1.425687 A    
C144  H4    1.083063 S    
C236  H20   1.076674 S    
C145  C205  1.400605 A    
N50   O152  1.300931 A    
N52   O156  1.300925 A    
N41   O134  1.300922 A    
C257  H58   1.112337 S    
C116  C180  1.412746 A    
O7    C3    1.273300 A    
C21   C90   1.432081 S    
C215  C227  1.418121 A    
O33   C21   1.268428 A    
C262  H73   1.112339 S    
O180  C264  1.410931 S    
C149  C205  1.400620 A    
C47   C65   1.410699 A    
C150  H10   1.083059 S    
O21   C9    1.268362 A    
C58   C74   1.444883 S    
N39   O129  1.301272 A    
O176  C260  1.410932 S    
O49   C15   1.268461 A    
O23   C11   1.268417 A    
C168  C180  1.416126 A    
Zn11  O22   1.919556 S    
N31   O113  1.301265 A    
Zn7   O49   1.919537 S    
Zn9   O4    1.940079 S    
O15   C7    1.273268 A    
C175  C191  1.409795 A    
Zn10  O3    1.940078 S    
C83   C94   1.204596 T    
O25   C13   1.268415 A    
C15   C104  1.432081 S    
C30   C62   1.410722 A    
C142  H2    1.083065 S    
C217  C222  1.425695 A    
C41   C56   1.410996 A    
C164  C172  1.416126 A    
N16   O84   1.301255 A    
C106  O54   1.348982 S    
C114  C178  1.412756 A    
C129  C157  1.418136 A    
Zn9   O31   1.919531 S    
N40   O132  1.301256 A    
C49   N32   1.438525 S    
C118  N6    1.365756 A    
Zn10  O32   1.919529 S    
O10   C2    1.273253 A    
C127  C155  1.418258 A    
O36   C24   1.268419 A    
Zn8   O13   1.906303 S    
C122  C138  1.403482 A    
N13   O77   1.301270 A    
C131  C159  1.418295 A    
C134  C158  1.418245 A    
N52   O155  1.301588 A    
C146  H14   1.083058 S    
O41   C23   1.268447 A    
C165  C181  1.416119 A    
C210  C226  1.418099 A    
N24   O100  1.301253 A    
C263  H76   1.112334 S    
O28   C16   1.268396 A    
C162  C229  1.427546 A    
C249  H34   1.112336 S    
C29   N20   1.438528 S    
C179  C195  1.409787 A    
C42   N39   1.438516 S    
C224  C248  1.411214 A    
C125  N41   1.442281 S    
C126  N42   1.442278 S    
C194  O174  1.383789 S    
C132  C148  1.403482 A    
C183  C199  1.409782 A    
C32   C64   1.410705 A    
C128  C156  1.418282 A    
C135  C151  1.403488 A    
C250  H37   1.112339 S    
C148  C208  1.400616 A    
C85   C92   1.204596 T    
C171  C187  1.409803 A    
C216  C240  1.411226 A    
C109  N1    1.365732 A    
C48   C49   1.411001 A    
C54   C60   1.410726 A    
C166  C178  1.416123 A    
C25   C57   1.410715 A    
C29   C36   1.410998 A    
C246  H30   1.076674 S    
C27   C59   1.410710 A    
C86   C91   1.204612 T    
C31   C34   1.411004 A    
N34   O120  1.301258 A    
N38   O127  1.301275 A    
N14   O80   1.301260 A    
C200  O180  1.383796 S    
C252  H44   1.109218 S    
C237  H21   1.076703 S    
N20   O91   1.301266 A    
C105  N1    1.365733 A    
C211  C216  1.425699 A    
C191  O171  1.383794 S    
N51   O153  1.301586 A    
N5    C157  1.441219 S    
N35   O122  1.301254 A    
C111  C175  1.412747 A    
N55   O162  1.300922 A    
O39   C17   1.268368 A    
Zn2   O2    1.940078 S    
N19   O89   1.301268 A    
C114  O62   1.348984 S    
O179  C263  1.410931 S    
N46   O144  1.300921 A    
C264  H78   1.114136 S    
N15   O81   1.301272 A    
C214  C238  1.411205 A    
N49   O150  1.300937 A    
C140  H8    1.083063 S    
C19   C92   1.432076 S    
O19   C7    1.273266 A    
N53   O157  1.301586 A    
Zn8   O4    1.940100 S    
C176  C192  1.409799 A    
C52   C62   1.410710 A    
C126  C154  1.418294 A    
C177  C193  1.409812 A    
C255  H51   1.114137 S    
N11   O74   1.301251 A    
N42   O136  1.300921 A    
C109  C173  1.412741 A    
C36   N13   1.438518 S    
C247  H31   1.076687 S    
C219  C224  1.425692 A    
Zn8   O41   1.919545 S    
C108  O56   1.348979 S    
N43   O138  1.300927 A    
C196  O176  1.383796 S    
C115  N7    1.365734 A    
O167  C251  1.410931 S    
C170  C186  1.409781 A    
C39   N10   1.438520 S    
C130  N54   1.442210 S    
C113  N5    1.365743 A    
C34   N15   1.438515 S    
C20   C91   1.432108 S    
C105  O53   1.348983 S    
N33   O118  1.301255 A    
C35   C67   1.410700 A    
N28   O107  1.301270 A    
O20   C8    1.273268 A    
C172  C188  1.409804 A    
C165  C226  1.427522 A    
C240  H24   1.076675 S    
C209  C225  1.418101 A    
C254  H49   1.112335 S    
C11   C100  1.432080 S    
N21   O94   1.301256 A    
C12   C99   1.432104 S    
C105  C169  1.412738 A    
C52   N29   1.438514 S    
Zn6   O52   1.919551 S    
C261  H69   1.114135 S    
N25   O102  1.301252 A    
C212  C228  1.418119 A    
C222  C230  1.418119 A    
Zn1   O47   1.919531 S    
C193  C238  1.395275 A    
Zn2   O48   1.919529 S    
C116  N8    1.365734 A    
C26   C58   1.410716 A    
Zn6   O2    1.940090 S    
C121  N45   1.442279 S    
C64   C80   1.444886 S    
C65   C81   1.444863 S    
C263  H75   1.114138 S    
C238  H22   1.076700 S    
N18   O88   1.301259 A    
C57   C73   1.444855 S    
N43   O137  1.301587 A    
C40   C72   1.410699 A    
C120  C184  1.412745 A    
Zn11  O10   1.906339 S    
C161  C173  1.416125 A    
O169  C253  1.410931 S    
C218  C242  1.411223 A    
C130  C146  1.403481 A    
C10   C101  1.432102 S    
C115  O63   1.348979 S    
Zn2   O15   1.906326 S    
C198  C233  1.395269 A    
C168  C184  1.416130 A    
N56   O164  1.300920 A    
C34   C66   1.410714 A    
C139  C203  1.400592 A    
C79   C98   1.204598 T    
C117  C181  1.412749 A    
C140  C204  1.400645 A    
C124  N48   1.442251 S    
C73   C104  1.204595 T    
N23   O97   1.301268 A    
O24   C12   1.268374 A    
C197  O177  1.383797 S    
C122  C154  1.418296 A    
C50   N31   1.438519 S    
C137  C201  1.400618 A    
C199  O179  1.383799 S    
C209  C233  1.411205 A    
C146  C206  1.400673 A    
C121  C137  1.403481 A    
C151  C207  1.400611 A    
O172  C256  1.410931 S    
C38   C70   1.410707 A    
O18   C6    1.273235 A    
O177  C261  1.410931 S    
C32   N17   1.438512 S    
C164  C231  1.427534 A    
C136  N52   1.442283 S    
C30   N19   1.438518 S    
N32   O116  1.301255 A    
C234  H18   1.076703 S    
C264  H80   1.109217 S    
N10   O71   1.301269 A    
N54   O160  1.300932 A    
N24   O99   1.301269 A    
O47   C9    1.268415 A    
C150  C206  1.400678 A    
Zn9   O28   1.919548 S    
N12   O76   1.301243 A    
Zn7   O42   1.919543 S    
C66   C82   1.444886 S    
Zn10  O27   1.919550 S    
C128  C144  1.403498 A    
C255  H53   1.109217 S    
C46   C51   1.411001 A    
N38   O128  1.301264 A    
O175  C259  1.410932 S    
C148  H16   1.083066 S    
Zn9   O8    1.906326 S    
Zn10  O7    1.906326 S    
C180  C196  1.409785 A    
C253  H46   1.112341 S    
N40   O131  1.301272 A    
C31   C63   1.410704 A    
Zn12  O9    1.906339 S    
C41   C71   1.410706 A    
C258  H62   1.109219 S    
C42   C72   1.410720 A    
C3    C206  1.478926 S    
C29   C61   1.410695 A    
C262  H72   1.114137 S    
C138  C202  1.400617 A    
N9    O69   1.301269 A    
C127  N43   1.442228 S    
C185  C246  1.395246 A    
C163  C171  1.416125 A    
N26   O104  1.301259 A    
N50   O151  1.301582 A    
N45   O142  1.300926 A    
O6    C2    1.273247 A    
N20   O92   1.301256 A    
C260  H66   1.114140 S    
C139  H7    1.083086 S    
C143  C203  1.400627 A    
C239  H23   1.076675 S    
Zn11  O29   1.919555 S    
O50   C16   1.268439 A    
C184  C200  1.409785 A    
C88   C89   1.204610 T    
C253  H47   1.109216 S    
N29   O109  1.301269 A    
N39   O130  1.301254 A    
N54   O159  1.301580 A    
N7    C159  1.441183 S    
C112  N4    1.365742 A    
C212  C236  1.411223 A    
C241  H25   1.076674 S    
O30   C18   1.268378 A    
