data_mof_unit_pretest_1437.cif
_audit_creation_date              2012-12-11T17:43:15-0500
_audit_creation_method            fapswitch 2.2
_symmetry_space_group_name_H-M    P1
_symmetry_Int_Tables_number       1
_space_group_crystal_system       triclinic
_cell_length_a                    15.114989
_cell_length_b                    14.979555
_cell_length_c                    17.122468
_cell_angle_alpha                 108.001456
_cell_angle_beta                  106.01646
_cell_angle_gamma                 109.066756
_cell_volume                      3163.6732896

loop_
_atom_site_label
_atom_site_type_symbol
_atom_type_description
_atom_site_fract_x
_atom_site_fract_y
_atom_site_fract_z
_atom_type_partial_charge
Br1   Br    Br    0.144068 0.364017 0.461742 -0.464362
Br2   Br    Br    0.854901 0.654589 0.537300 -0.468677
Br3   Br    Br    0.631464 0.172794 0.125091 -0.430584
Br4   Br    Br    0.495062 0.167570 0.306221 -0.429683
Br5   Br    Br    0.670738 0.360305 0.671822 -0.597987
Br6   Br    Br    0.324225 0.610385 0.307435 -0.615202
C1    C     C_R   0.082537 0.285127 0.076969 -0.075710
C2    C     C_R   0.077172 0.108716 0.127358 -0.142249
C3    C     C_R   0.988594 0.920823 0.074374 0.030986
C4    C     C_R   0.986032 0.106166 0.075207 0.048484
C5    C     C_R   0.078961 0.017175 0.130069 0.113752
C6    C     C_R   0.891462 0.016690 0.045496 0.117741
C7    C     C_R   0.713516 0.946336 0.929694 -0.259856
C8    C     C_R   0.152041 0.991989 0.265177 -0.166974
C9    C     C_R   0.595177 0.013542 0.959576 -0.253169
C10   C     C_R   0.335247 0.061469 0.349955 -0.318270
C11   C     C_R   0.590997 0.745306 0.303785 -0.135207
C12   C     C_R   0.908178 0.721652 0.976622 -0.088728
C13   C     C_R   0.411787 0.213647 0.665077 -0.120806
C14   C     C_R   0.560407 0.692554 0.210559 0.228183
C15   C     C_R   0.434630 0.264218 0.756962 0.225803
C16   C     C_R   0.938150 0.468923 0.735967 -0.108296
C17   C     C_R   0.061929 0.543242 0.263144 -0.099280
C18   C     C_R   0.525415 0.582768 0.169418 0.020738
C19   C     C_R   0.451945 0.369843 0.795315 0.031249
C20   C     C_R   0.521757 0.527857 0.222684 -0.170892
C21   C     C_R   0.445317 0.422387 0.740307 -0.173040
C22   C     C_R   0.551940 0.581249 0.315546 0.028225
C23   C     C_R   0.030379 0.497814 0.727681 0.108629
C24   C     C_R   0.422175 0.370971 0.648668 0.024794
C25   C     C_R   0.586766 0.689930 0.356095 -0.020278
C26   C     C_R   0.405286 0.266667 0.611067 -0.017476
C27   C     C_R   0.575956 0.499670 0.053832 -0.177216
C28   C     C_R   0.398311 0.451733 0.910643 -0.189293
C29   C     C_R   0.560251 0.450733 0.963855 0.072955
C30   C     C_R   0.414805 0.501312 0.000745 0.072186
C31   C     C_R   0.471131 0.424832 0.891006 0.054668
C32   C     C_R   0.503451 0.525942 0.073325 0.055244
C33   C     C_R   0.617293 0.945405 0.900615 0.244432
C34   C     C_R   0.969642 0.519529 0.271643 0.105335
C35   C     C_R   0.234424 0.008579 0.338842 0.240547
C36   C     C_R   0.963648 0.522934 0.354310 -0.047586
C37   C     C_R   0.037122 0.497091 0.645922 -0.055936
C38   C     C_R   0.077940 0.436565 0.519553 0.312307
C39   C     C_R   0.921903 0.582975 0.480177 0.302945
C40   C     C_R   0.736062 0.206502 0.818956 -0.155565
C41   C     C_R   0.277451 0.785452 0.176765 -0.180163
C42   C     C_R   0.083725 0.443102 0.604146 0.166839
C43   C     C_R   0.915656 0.575688 0.395136 0.183982
C44   C     C_R   0.987168 0.545793 0.606847 -0.175770
C45   C     C_R   0.689841 0.205525 0.737499 -0.005774
C46   C     C_R   0.013669 0.474684 0.393883 -0.152146
C47   C     C_R   0.977316 0.537844 0.522173 -0.006877
C48   C     C_R   0.023215 0.482528 0.478257 -0.012916
C49   C     C_R   0.618371 0.114677 0.656028 0.128914
C50   C     C_R   0.413848 0.862680 0.334075 0.112343
C51   C     C_R   0.575466 0.018037 0.417283 -0.152160
C52   C     C_R   0.464776 0.952262 0.573543 -0.137820
C53   C     C_R   0.498752 0.937360 0.334788 -0.162519
C54   C     C_R   0.535983 0.036786 0.654980 -0.164206
C55   C     C_R   0.403391 0.868256 0.413525 -0.184528
C56   C     C_R   0.330443 0.778865 0.252582 0.014859
C57   C     C_R   0.635163 0.106621 0.578577 -0.183643
C58   C     C_R   0.477762 0.947116 0.494801 0.139172
C59   C     C_R   0.564186 0.023613 0.496988 0.123954
C60   C     C_R   0.668192 0.081677 0.048534 0.316942
C61   C     C_R   0.354280 0.095373 0.286094 0.353098
C62   C     C_R   0.765217 0.082243 0.079197 0.160336
C63   C     C_R   0.271365 0.077638 0.210524 0.121784
C64   C     C_R   0.287638 0.569691 0.980517 -0.106642
C65   C     C_R   0.701878 0.406710 0.999685 -0.126250
C66   C     C_R   0.788852 0.015512 0.018314 -0.059420
C67   C     C_R   0.333615 0.517597 0.015886 0.050121
C68   C     C_R   0.169228 0.027415 0.201276 -0.084766
C69   C     C_R   0.735955 0.304437 0.743212 0.281632
C70   C     C_R   0.272696 0.684437 0.248481 0.277606
C71   C     C_R   0.280301 0.471822 0.057362 -0.064183
C72   C     C_R   0.706058 0.502741 0.923092 -0.096127
C73   C     C_R   0.110710 0.556885 0.812674 -0.084035
C74   C     C_R   0.889225 0.454067 0.187009 -0.064511
C75   C     C_R   0.912370 0.201593 0.995779 -0.104897
C76   C     C_R   0.080660 0.805418 0.050991 -0.089223
C77   C     C_R   0.993530 0.192759 0.048608 0.064745
C78   C     C_R   0.645550 0.441558 0.951397 0.065411
C79   C     C_R   0.992105 0.819348 0.039096 0.056541
C80   C     C_R   0.894354 0.923569 0.041866 -0.196264
H1    H     H_    0.158602 0.310788 0.126909 0.122593
H2    H     H_    0.457476 0.503099 0.768416 0.153279
H3    H     H_    0.549153 0.538483 0.356216 0.161184
H4    H     H_    0.416948 0.411915 0.606702 0.158932
H5    H     H_    0.647225 0.521778 0.109272 0.160541
H6    H     H_    0.327426 0.431522 0.855984 0.168808
H7    H     H_    0.046856 0.432410 0.357817 0.202503
H8    H     H_    0.953932 0.587769 0.643163 0.194956
H9    H     H_    0.862549 0.430351 0.681741 0.173842
H10   H     H_    0.138256 0.587614 0.317422 0.163358
H11   H     H_    0.702163 0.166440 0.581723 0.151182
H12   H     H_    0.827688 0.703260 0.949665 0.100362
H13   H     H_    0.334812 0.812653 0.412103 0.163299
H14   H     H_    0.525313 0.043322 0.716136 0.174499
H15   H     H_    0.505379 0.932980 0.272487 0.187520
H16   H     H_    0.641604 0.076935 0.418761 0.183063
H17   H     H_    0.398646 0.892849 0.571659 0.175163
H18   H     H_    0.520730 0.013152 0.936302 0.210374
H19   H     H_    0.398965 0.076260 0.408399 0.187421
H20   H     H_    0.713739 0.143949 0.839119 0.131816
H21   H     H_    0.305546 0.845664 0.155320 0.142488
H22   H     H_    0.315597 0.619792 0.950183 0.129268
H23   H     H_    0.730338 0.894350 0.882706 0.174531
H24   H     H_    0.675674 0.352523 0.027321 0.150372
H25   H     H_    0.298510 0.428921 0.094702 0.126871
H26   H     H_    0.682848 0.537450 0.879330 0.124527
H27   H     H_    0.191225 0.600147 0.828976 0.121564
H28   H     H_    0.808084 0.415297 0.170981 0.145974
H29   H     H_    0.831366 0.151282 0.966997 0.106564
H30   H     H_    0.159713 0.863630 0.090249 0.121024
H31   H     H_    0.822371 0.852854 0.011116 0.142059
H32   H     H_    0.147481 0.181620 0.165993 0.149550
H33   H     H_    0.074303 0.953564 0.258906 0.177881
H34   H     H_    0.610800 0.731358 0.428151 0.152981
H35   H     H_    0.387200 0.226893 0.540039 0.150128
H36   H     H_    0.619937 0.829701 0.336159 0.153668
H37   H     H_    0.397670 0.132565 0.635102 0.164236
H38   H     H_    0.496756 0.443829 0.192331 0.169054
I1    I     I_    0.575661 0.783629 0.137213 -0.398351
I2    I     I_    0.434161 0.174295 0.831556 -0.374480
I3    I     I_    0.838963 0.646934 0.329461 -0.316905
I4    I     I_    0.155653 0.366324 0.666395 -0.343031
I5    I     I_    0.505490 0.841378 0.767251 -0.382895
I6    I     I_    0.205439 0.956704 0.434644 -0.384390
I7    I     I_    0.873360 0.181070 0.216859 -0.278357
I8    I     I_    0.300466 0.119177 0.108257 -0.296228
N1    N     N_R   0.055660 0.348550 0.045620 -0.046386
N2    N     N_R   0.185200 0.638170 0.176300 -0.067694
N3    N     N_R   0.201680 0.494570 0.045620 -0.044832
N4    N     N_R   0.798320 0.505430 0.954380 -0.045169
N5    N     N_R   0.068420 0.560530 0.871650 -0.054141
N6    N     N_R   0.931580 0.439470 0.128350 -0.056903
N7    N     N_R   0.948070 0.295860 0.997670 -0.049329
N8    N     N_R   0.051930 0.704140 0.002330 -0.050809
N9    N     N_R   0.944340 0.651450 0.954380 -0.043498
N10   N     N_R   0.960830 0.507850 0.823700 -0.045163
N11   N     N_R   0.039170 0.492150 0.176300 -0.042381
N12   N     N_R   0.811290 0.303410 0.871650 -0.058706
N13   N     N_R   0.188710 0.696590 0.128350 -0.059930
N14   N     N_R   0.205200 0.552990 0.997670 -0.049278
N15   N     N_R   0.794800 0.447010 0.002330 -0.050549
N16   N     N_R   0.814800 0.361830 0.823700 -0.068127
Ni1   Ni    Ni4+2 0.119340 0.493420 0.109960 0.267578
Ni2   Ni    Ni4+2 0.880660 0.506580 0.890040 0.266761
Ni3   Ni    Ni4+2 0.872590 0.372590 0.000000 0.228526
Ni4   Ni    Ni4+2 0.127410 0.627410 0.000000 0.236914

loop_
_geom_bond_atom_site_label_1
_geom_bond_atom_site_label_2
_ccdc_geom_bond_type
C1    C77   A    
N5    N10   A    
C57   C59   A    
C16   C23   A    
C62   I7    S    
C28   C31   A    
C16   H9    S    
C60   C62   A    
N12   N16   A    
C17   N11   A    
C41   C56   A    
C41   N13   A    
C2    H32   S    
C47   C48   A    
C51   H16   S    
C13   H37   S    
C8    C68   A    
C13   C15   A    
N16   Ni2   S    
C1    N1    A    
N12   Ni3   S    
N6    N11   A    
C27   H5    S    
C35   I6    S    
C51   C53   A    
C52   C54   A    
C17   C34   A    
C65   H24   S    
C4    C77   S    
C11   C14   A    
C17   H10   S    
C71   H25   S    
C76   N8    A    
C3    C79   S    
C1    H1    S    
C14   C18   A    
C49   C57   A    
C18   C32   S    
C34   C74   A    
N5    Ni4   S    
C22   H3    S    
C64   N14   A    
C9    H18   S    
C37   C42   A    
N8    Ni4   S    
C45   C49   S    
C24   H4    S    
C19   C31   S    
C34   C36   S    
C6    C66   S    
C7    H23   S    
C49   C54   A    
C23   C37   S    
C21   C24   A    
C56   C70   A    
C55   H13   S    
C20   H38   S    
C13   C26   A    
C75   C77   A    
C46   C48   A    
N9    Ni2   S    
C12   N9    A    
Br2   C39   S    
C52   C58   A    
C43   I3    S    
C44   C47   A    
C53   H15   S    
C63   C68   A    
N1    Ni1   S    
N8    N9    A    
C70   N2    A    
C44   H8    S    
C40   N12   A    
N4    N15   A    
C33   I5    S    
N3    Ni1   S    
N2    Ni1   S    
C40   C45   A    
C61   C63   A    
Br5   C69   S    
C55   C58   A    
N15   Ni3   S    
C72   C78   A    
C3    C80   A    
C42   I4    S    
Br1   C38   S    
C23   C73   A    
C39   C43   A    
C62   C66   A    
N3    N14   A    
C75   H29   S    
C64   C67   A    
C46   H7    S    
C10   C61   A    
C3    C5    A    
C9    C33   A    
C65   N15   A    
C4    C6    A    
C10   H19   S    
C8    C35   A    
N14   Ni4   S    
N6    Ni3   S    
C73   N5    A    
C74   H28   S    
N1    N7    A    
C41   H21   S    
C73   H27   S    
C11   C25   A    
C50   C56   S    
Br3   C60   S    
C63   I8    S    
C45   C69   A    
C65   C78   A    
C75   N7    A    
N2    N13   A    
C15   C19   A    
C29   C31   A    
C12   C79   A    
C26   H35   S    
C22   C25   A    
C18   C20   A    
C51   C59   A    
C54   H14   S    
C5    C68   S    
Br4   C61   S    
N4    Ni2   S    
C29   C78   S    
C37   C44   A    
Br6   C70   S    
C7    C66   A    
C69   N16   A    
C19   C21   A    
C76   C79   A    
C12   H12   S    
C20   C22   A    
C27   C32   A    
C50   C53   A    
C6    C80   A    
C58   C59   A    
N10   Ni2   S    
C30   C32   A    
C76   H30   S    
C14   I1    S    
C57   H11   S    
C64   H22   S    
C24   C26   A    
C9    C60   A    
C16   N10   A    
C2    C5    A    
C74   N6    A    
C40   H20   S    
N7    Ni3   S    
C27   C29   A    
C80   H31   S    
C28   C30   A    
C21   H2    S    
C28   H6    S    
C25   H34   S    
C7    C33   A    
N13   Ni4   S    
C30   C67   S    
C36   C43   A    
C39   C47   A    
C38   C48   A    
C11   H36   S    
N11   Ni1   S    
C2    C4    A    
C8    H33   S    
C67   C71   A    
C50   C55   A    
C72   H26   S    
C52   H17   S    
C71   N3    A    
C15   I2    S    
C72   N4    A    
C10   C35   A    
C38   C42   A    
C36   C46   A    
