data_mof_unit_pretest_1913.cif
_audit_creation_date              2012-12-10T17:09:49-0500
_audit_creation_method            fapswitch 2.2
_symmetry_space_group_name_H-M    P1
_symmetry_Int_Tables_number       1
_space_group_crystal_system       triclinic
_cell_length_a                    21.650142
_cell_length_b                    21.621889
_cell_length_c                    22.004143
_cell_angle_alpha                 119.795168
_cell_angle_beta                  118.558052
_cell_angle_gamma                 90.031731
_cell_volume                      7458.42066541

loop_
_atom_site_label
_atom_site_type_symbol
_atom_type_description
_atom_site_fract_x
_atom_site_fract_y
_atom_site_fract_z
_atom_type_partial_charge
C1    C     C_R   0.498085 0.118093 0.496183 0.866049
C2    C     C_3   0.210810 0.709851 0.917754 0.340178
C3    C     C_3   0.763568 0.206236 0.047927 -0.397022
C4    C     C_3   0.233655 0.793973 0.952024 -0.380165
C5    C     C_3   0.714913 0.157791 0.950750 -0.391067
C6    C     C_3   0.282324 0.842521 0.049210 -0.398829
C7    C     C_1   0.834875 0.335783 0.173725 -0.103357
C8    C     C_1   0.164954 0.664039 0.826283 -0.103054
C9    C     C_1   0.661019 0.162554 0.826323 -0.119587
C10   C     C_1   0.338847 0.837589 0.173686 -0.120031
C11   C     C_1   0.623973 0.125246 0.751219 -0.184403
C12   C     C_R   0.501756 0.881868 0.503780 0.865546
C13   C     C_1   0.375964 0.874857 0.248786 -0.184461
C14   C     C_R   0.361828 0.123151 0.375457 -0.176302
C15   C     C_R   0.482515 0.876496 0.624255 -0.177480
C16   C     C_R   0.580566 0.081027 0.662175 0.900187
C17   C     C_R   0.419423 0.918999 0.337827 0.899426
C18   C     C_R   0.295222 0.130375 0.326661 -0.143615
C19   C     C_R   0.463619 0.869205 0.673223 -0.143635
C20   C     C_R   0.292535 0.199204 0.337614 -0.134511
C21   C     C_R   0.451130 0.800555 0.662880 -0.130972
C22   C     C_R   0.356969 0.260367 0.395201 -0.177301
C23   C     C_1   0.872740 0.373551 0.248806 -0.122540
C24   C     C_R   0.460042 0.739632 0.605646 -0.180583
C25   C     C_R   0.425685 0.253391 0.443050 0.096084
C26   C     C_R   0.481589 0.746583 0.557307 0.096088
C27   C     C_R   0.427317 0.185343 0.436520 0.100573
C28   C     C_R   0.489015 0.814495 0.563452 0.100299
C29   C     C_R   0.494881 0.181533 0.490839 -0.106361
C30   C     C_R   0.503738 0.818395 0.509122 -0.107779
C31   C     C_R   0.560048 0.241508 0.546019 -0.207940
C32   C     C_R   0.515598 0.758587 0.454198 -0.207740
C33   C     C_R   0.559160 0.306667 0.549451 -0.209357
C34   C     C_1   0.127156 0.626222 0.751200 -0.122048
C35   C     C_R   0.511602 0.693481 0.450910 -0.215308
C36   C     C_R   0.492965 0.312721 0.498297 -0.111742
C37   C     C_R   0.495144 0.687367 0.502031 -0.110398
C38   C     C_R   0.765812 0.438895 0.466868 -0.214279
C39   C     C_R   0.233760 0.471494 0.532214 -0.214602
C40   C     C_R   0.717900 0.641229 0.570808 -0.170993
C41   C     C_R   0.282871 0.570929 0.430742 -0.170600
C42   C     C_R   0.819973 0.507507 0.513880 -0.092084
C43   C     C_R   0.180020 0.493433 0.486067 -0.093221
C44   C     C_R   0.883246 0.503579 0.506797 0.927416
C45   C     C_3   0.706669 0.208105 0.917809 0.353632
C46   C     C_R   0.116778 0.496705 0.493233 0.926751
C47   C     C_R   0.917848 0.418641 0.337838 0.959308
C48   C     C_R   0.082127 0.581258 0.662164 0.958882
C49   C     C_R   0.619805 0.500328 0.499076 0.878262
C50   C     C_R   0.380202 0.501278 0.500926 0.847737
C51   C     C_R   0.497041 0.379577 0.499695 0.873787
C52   C     C_R   0.497688 0.620480 0.500446 0.844203
C53   C     C_R   0.736339 0.574100 0.541454 0.051414
C54   C     C_R   0.264079 0.532856 0.459342 0.050957
C55   C     C_R   0.863425 0.648235 0.617117 0.381049
C56   C     C_3   0.293154 0.791997 0.082202 0.353666
C57   C     C_R   0.137262 0.531186 0.384173 0.381275
C58   C     C_R   0.844026 0.713948 0.645721 -0.164207
C59   C     C_R   0.157071 0.568828 0.356559 -0.165629
C60   C     C_R   0.771120 0.710396 0.620470 -0.211579
C61   C     C_R   0.230051 0.590781 0.381987 -0.205571
C62   C     C_R   0.699335 0.437290 0.460314 -0.213047
C63   C     C_R   0.300233 0.476486 0.538755 -0.218460
C64   C     C_R   0.684965 0.504184 0.497687 -0.077316
C65   C     C_R   0.315067 0.506474 0.502336 -0.073164
C66   C     C_R   0.807870 0.576753 0.557127 0.018387
C67   C     C_3   0.719541 0.314788 0.050589 -0.397956
C68   C     C_R   0.192512 0.519672 0.443573 0.017082
C69   C     C_3   0.670891 0.266342 0.953420 -0.388786
C70   C     C_3   0.330446 0.735821 0.046632 -0.385150
C71   C     C_3   0.784721 0.250492 0.950200 -0.404442
C72   C     C_3   0.216143 0.747255 0.049825 -0.398205
C73   C     C_3   0.833353 0.298917 0.047340 -0.361940
C74   C     C_3   0.167499 0.698736 0.952684 -0.376233
C75   C     C_3   0.281795 0.687286 0.949473 -0.405682
C76   C     C_3   0.788996 0.290085 0.082257 0.337388
Cl1   Cl    Cl    0.958077 0.660139 0.674730 -0.667717
Cl2   Cl    Cl    0.042547 0.484499 0.325800 -0.668763
H1    H     H_    0.756532 0.761496 0.642998 0.162083
H2    H     H_    0.313940 0.694838 0.925176 0.167199
H3    H     H_    0.812594 0.187118 0.069833 0.172044
H4    H     H_    0.183483 0.811562 0.930073 0.183201
H5    H     H_    0.611621 0.238265 0.587588 0.159544
H6    H     H_    0.526814 0.761904 0.412688 0.159532
H7    H     H_    0.361415 0.068324 0.363899 0.150150
H8    H     H_    0.492866 0.931253 0.635534 0.150705
H9    H     H_    0.245417 0.082539 0.280672 0.135978
H10   H     H_    0.458214 0.916889 0.718990 0.134130
H11   H     H_    0.240457 0.205108 0.300905 0.141448
H12   H     H_    0.244965 0.619663 0.360137 0.161991
H13   H     H_    0.435133 0.794638 0.699871 0.136582
H14   H     H_    0.351942 0.312969 0.402378 0.154290
H15   H     H_    0.449045 0.687260 0.599252 0.148681
H16   H     H_    0.662227 0.640669 0.555248 0.149946
H17   H     H_    0.338466 0.585792 0.446053 0.141395
H18   H     H_    0.610577 0.352304 0.591490 0.161243
H19   H     H_    0.522289 0.647918 0.409004 0.158657
H20   H     H_    0.659099 0.383740 0.426466 0.150042
H21   H     H_    0.340112 0.456473 0.571867 0.149593
H22   H     H_    0.774504 0.386012 0.433939 0.162551
H23   H     H_    0.740567 0.115399 0.925982 0.169316
H24   H     H_    0.224757 0.451258 0.564493 0.163794
H25   H     H_    0.886249 0.768259 0.690604 0.170875
H26   H     H_    0.115090 0.578331 0.312175 0.171124
H27   H     H_    0.736408 0.374963 0.074444 0.173822
H28   H     H_    0.266792 0.626954 0.925654 0.169470
H29   H     H_    0.664388 0.303248 0.930609 0.169068
H30   H     H_    0.338805 0.698799 0.069474 0.167439
H31   H     H_    0.811634 0.209760 0.925438 0.172287
H32   H     H_    0.188174 0.786485 0.074560 0.170998
H33   H     H_    0.780262 0.287131 0.927351 0.171097
H34   H     H_    0.255541 0.883445 0.073951 0.169199
H35   H     H_    0.222449 0.710429 0.072713 0.170094
H36   H     H_    0.852258 0.358817 0.071160 0.184026
H37   H     H_    0.150442 0.638607 0.928914 0.169832
H38   H     H_    0.883623 0.281451 0.069247 0.179775
H39   H     H_    0.116167 0.714659 0.930745 0.185612
H40   H     H_    0.659459 0.126721 0.928311 0.166329
H41   H     H_    0.336986 0.875281 0.071638 0.169516
H42   H     H_    0.731489 0.198444 0.072180 0.167075
H43   H     H_    0.264935 0.803415 0.927763 0.167045
H44   H     H_    0.614666 0.237187 0.931038 0.168180
H45   H     H_    0.385960 0.766695 0.069015 0.168581
H46   H     H_    0.686680 0.308923 0.074889 0.166712
O1    O     O_R   0.448260 0.091600 0.499990 -0.623417
O2    O     O_R   0.448270 0.908380 0.500020 -0.623764
O3    O     O_R   0.509690 0.061420 0.622860 -0.623685
O4    O     O_R   0.490310 0.938580 0.377140 -0.616096
O5    O     O_R   0.613170 0.061430 0.622850 -0.615107
O6    O     O_R   0.386830 0.938570 0.377150 -0.622628
O7    O     O_R   0.908550 0.551730 0.500000 -0.598368
O8    O     O_R   0.091450 0.448270 0.500000 -0.633961
O9    O     O_R   0.908530 0.448300 0.500020 -0.633488
O10   O     O_R   0.091470 0.551700 0.499980 -0.598277
O11   O     O_R   0.938770 0.490290 0.377130 -0.572782
O12   O     O_R   0.551740 0.908400 0.500010 -0.620421
O13   O     O_R   0.061230 0.509710 0.622870 -0.632540
O14   O     O_R   0.938740 0.386860 0.377150 -0.633221
O15   O     O_R   0.061260 0.613140 0.622850 -0.573498
O16   O     O_R   0.626330 0.534680 0.569330 -0.612344
O17   O     O_R   0.373670 0.465320 0.430670 -0.621823
O18   O     O_R   0.556960 0.465330 0.430620 -0.621281
O19   O     O_R   0.443040 0.534670 0.569380 -0.630674
O20   O     O_R   0.534700 0.443070 0.569370 -0.619169
O21   O     O_R   0.465300 0.556930 0.430630 -0.621768
O22   O     O_R   0.465330 0.373710 0.430660 -0.625121
O23   O     O_R   0.534670 0.626290 0.569340 -0.627810
O24   O     O_R   0.551730 0.091620 0.499980 -0.620293
Zn1   Zn    Zn3+2 0.430910 0.999990 0.500010 0.950604
Zn2   Zn    Zn3+2 0.569090 0.000010 0.499990 0.954922
Zn3   Zn    Zn3+2 0.000200 0.569060 0.499990 1.037545
Zn4   Zn    Zn3+2 0.999800 0.430940 0.500010 0.960902
Zn5   Zn    Zn3+2 0.546330 0.546310 0.592620 0.953672
Zn6   Zn    Zn3+2 0.453670 0.453690 0.407380 0.953225

loop_
_geom_bond_atom_site_label_1
_geom_bond_atom_site_label_2
_ccdc_geom_bond_type
C63   C65   A    
C60   H1    S    
C9    C45   S    
C52   O21   A    
C40   C60   A    
C27   C29   A    
C50   C65   S    
C14   C18   A    
O7    Zn3   S    
C41   C61   A    
C67   H46   S    
C69   H29   S    
C54   C65   A    
C51   O20   A    
C50   O19   A    
C44   O7    A    
C15   C19   A    
C73   H38   S    
C48   O13   A    
C59   H26   S    
C19   C21   A    
C1    O1    A    
C38   C42   A    
C46   O8    A    
C55   Cl1   S    
C53   C64   A    
C7    C23   T    
O17   Zn6   S    
C57   C59   A    
C12   O2    A    
C74   H37   S    
C58   C60   A    
C33   C36   A    
C31   H5    S    
O20   Zn5   S    
C62   C64   A    
C62   H20   S    
C70   H45   S    
C43   C68   A    
C56   C72   S    
C22   C25   A    
C71   H33   S    
C3    H3    S    
C63   H21   S    
C31   C33   A    
O13   Zn4   S    
C14   C27   A    
C10   C56   S    
C75   H2    S    
C2    C74   S    
C50   O17   A    
O16   Zn5   S    
C12   C30   S    
C49   C64   S    
O9    Zn4   S    
C42   C44   S    
C16   O3    A    
C72   H32   S    
C32   H6    S    
C5    H23   S    
C59   C61   A    
C23   C47   S    
C45   C69   S    
C32   C35   A    
C4    C6    S    
C19   H10   S    
C40   H16   S    
C71   C73   S    
C37   C52   S    
C67   H27   S    
C39   C43   A    
C51   O22   A    
O14   Zn4   S    
C5    C45   S    
C72   H35   S    
C73   H36   S    
C67   C69   S    
C2    C4    S    
C53   C66   A    
C46   O10   A    
C11   C16   S    
O22   Zn6   S    
C49   O18   A    
O6    Zn1   S    
C1    C29   S    
C47   O11   A    
C17   O4    A    
C8    C34   T    
O18   Zn6   S    
C16   O5    A    
C9    C11   T    
C4    H4    S    
C36   C51   S    
O1    Zn1   S    
C15   H8    S    
O21   Zn6   S    
O24   Zn2   S    
C72   C74   S    
C20   C22   A    
C52   O23   A    
C56   C70   S    
O8    Zn4   S    
C73   C76   S    
C55   C58   A    
C34   C48   S    
C21   C24   A    
C57   C68   A    
C33   H18   S    
C6    H41   S    
C55   C66   A    
C61   H12   S    
C39   H24   S    
C21   H13   S    
O4    Zn2   S    
C44   O9    A    
C74   H39   S    
C22   H14   S    
C48   O15   A    
C35   C37   A    
C17   O6    A    
C6    H34   S    
C57   Cl2   S    
C2    C8    S    
C24   C26   A    
C14   H7    S    
C6    C56   S    
C3    C5    S    
C10   C13   T    
O12   Zn2   S    
C26   C37   A    
C7    C76   S    
C58   H25   S    
C25   C27   A    
C39   C63   A    
C20   H11   S    
C26   C28   A    
C18   H9    S    
C13   C17   S    
C5    H40   S    
C28   C30   A    
O5    Zn2   S    
C29   C31   A    
C70   H30   S    
C24   H15   S    
O3    Zn1   S    
C30   C32   A    
C38   H22   S    
C15   C28   A    
C41   H17   S    
C69   H44   S    
O11   Zn3   S    
O10   Zn3   S    
C71   H31   S    
C47   O14   A    
O15   Zn3   S    
O2    Zn1   S    
C4    H43   S    
C18   C20   A    
O23   Zn5   S    
C43   C46   S    
C41   C54   A    
O19   Zn5   S    
C3    H42   S    
C25   C36   A    
C54   C68   A    
C75   H28   S    
C40   C53   A    
C12   O12   A    
C49   O16   A    
C70   C75   S    
C42   C66   A    
C3    C76   S    
C1    O24   A    
C45   C71   S    
C67   C76   S    
C35   H19   S    
C2    C75   S    
C38   C62   A    
