data_mof_unit_pretest_1463.cif
_audit_creation_date              2012-12-11T14:15:07-0500
_audit_creation_method            fapswitch 2.2
_symmetry_space_group_name_H-M    P1
_symmetry_Int_Tables_number       1
_space_group_crystal_system       triclinic
_cell_length_a                    24.478758
_cell_length_b                    17.285905
_cell_length_c                    15.589539
_cell_angle_alpha                 90.000011
_cell_angle_beta                  129.22487
_cell_angle_gamma                 90.0
_cell_volume                      5110.12534862

loop_
_atom_site_label
_atom_site_type_symbol
_atom_type_description
_atom_site_fract_x
_atom_site_fract_y
_atom_site_fract_z
_atom_type_partial_charge
C1    C     C_R   0.333126 0.394781 0.198129 -0.100355
C2    C     C_R   0.666873 0.394781 0.801871 -0.100354
C3    C     C_R   0.833126 0.894781 0.198129 -0.100355
C4    C     C_R   0.166873 0.894781 0.801871 -0.100354
C5    C     C_R   0.387031 0.600863 0.593098 -0.179237
C6    C     C_R   0.612969 0.600863 0.406902 -0.179237
C7    C     C_R   0.887031 0.100863 0.593098 -0.179237
C8    C     C_R   0.112969 0.100863 0.406902 -0.179237
C9    C     C_R   0.317605 0.613933 0.502518 0.111566
C10   C     C_R   0.682395 0.613933 0.497482 0.111566
C11   C     C_R   0.817605 0.113933 0.502518 0.111566
C12   C     C_R   0.182395 0.113933 0.497482 0.111566
C13   C     C_R   0.383703 0.683745 0.213577 0.150759
C14   C     C_R   0.616297 0.683745 0.786423 0.150759
C15   C     C_R   0.883703 0.183745 0.213577 0.150760
C16   C     C_R   0.116296 0.183745 0.786423 0.150759
C17   C     C_2   0.729247 0.653281 0.405697 -0.153861
C18   C     C_2   0.270754 0.653281 0.594303 -0.153861
C19   C     C_2   0.229246 0.153281 0.405697 -0.153860
C20   C     C_2   0.770753 0.153281 0.594303 -0.153861
C21   C     C_2   0.740701 0.625796 0.495893 -0.178298
C22   C     C_2   0.259299 0.625795 0.504107 -0.178301
C23   C     C_2   0.240701 0.125795 0.495893 -0.178301
C24   C     C_2   0.759299 0.125795 0.504107 -0.178299
C25   C     C_2   0.280001 0.205940 0.416446 -0.062973
C26   C     C_2   0.719998 0.205940 0.583554 -0.062972
C27   C     C_2   0.780002 0.705940 0.416446 -0.062973
C28   C     C_2   0.219998 0.705940 0.583554 -0.062973
C29   C     C_2   0.318188 0.254171 0.503436 -0.167147
C30   C     C_2   0.681811 0.254171 0.496563 -0.167148
C31   C     C_2   0.818188 0.754171 0.503436 -0.167148
C32   C     C_2   0.181811 0.754171 0.496563 -0.167147
C33   C     C_2   0.692344 0.346298 0.978151 -0.220480
C34   C     C_2   0.307656 0.346298 0.021849 -0.220480
C35   C     C_2   0.192344 0.846298 0.978151 -0.220480
C36   C     C_2   0.807656 0.846298 0.021849 -0.220480
C37   C     C_2   0.762518 0.346106 0.039120 -0.100261
C38   C     C_2   0.237482 0.346106 0.960880 -0.100261
C39   C     C_2   0.262518 0.846106 0.039120 -0.100261
C40   C     C_2   0.737482 0.846106 0.960880 -0.100261
C41   C     C_2   0.358586 0.756757 0.152443 -0.207721
C42   C     C_2   0.641414 0.756757 0.847557 -0.207721
C43   C     C_2   0.858586 0.256757 0.152443 -0.207721
C44   C     C_2   0.141414 0.256757 0.847557 -0.207721
C45   C     C_R   0.592742 0.362169 0.406651 -0.244734
C46   C     C_R   0.407258 0.362169 0.593349 -0.244734
C47   C     C_R   0.092742 0.862169 0.406651 -0.244734
C48   C     C_R   0.907258 0.862169 0.593349 -0.244734
C49   C     C_2   0.304364 0.794498 0.134058 -0.110955
C50   C     C_2   0.695636 0.794497 0.865942 -0.110955
C51   C     C_2   0.804364 0.294497 0.134058 -0.110954
C52   C     C_2   0.195636 0.294498 0.865942 -0.110954
C53   C     C_R   0.669573 0.363802 0.590927 0.489308
C54   C     C_R   0.330427 0.363802 0.409073 0.489308
C55   C     C_R   0.169573 0.863802 0.590927 0.489308
C56   C     C_R   0.830427 0.863802 0.409073 0.489308
C57   C     C_R   0.576132 0.391575 0.800667 -0.142475
C58   C     C_R   0.423868 0.391575 0.199333 -0.142475
C59   C     C_R   0.076132 0.891575 0.800667 -0.142475
C60   C     C_R   0.923868 0.891575 0.199333 -0.142474
C61   C     C_R   0.353467 0.373353 0.136681 0.137967
C62   C     C_R   0.646533 0.373353 0.863319 0.137966
C63   C     C_R   0.853467 0.873353 0.136681 0.137966
C64   C     C_R   0.146533 0.873353 0.863319 0.137966
C65   C     C_R   0.647817 0.321824 0.498638 0.062165
C66   C     C_R   0.352183 0.321824 0.501362 0.062165
C67   C     C_R   0.147817 0.821824 0.498638 0.062165
C68   C     C_R   0.852183 0.821824 0.501362 0.062165
C69   C     C_R   0.311883 0.599927 0.409779 0.157229
C70   C     C_R   0.688117 0.599927 0.590221 0.157227
C71   C     C_R   0.811883 0.099927 0.409779 0.157228
C72   C     C_R   0.188117 0.099927 0.590221 0.157229
C73   C     C_R   0.441949 0.642160 0.243624 -0.133270
C74   C     C_R   0.558051 0.642160 0.756376 -0.133269
C75   C     C_R   0.941949 0.142160 0.243624 -0.133270
C76   C     C_R   0.058051 0.142160 0.756376 -0.133269
C77   C     C_R   0.649112 0.640896 0.754987 -0.152109
C78   C     C_R   0.350888 0.640896 0.245013 -0.152108
C79   C     C_R   0.149112 0.140897 0.754987 -0.152108
C80   C     C_R   0.850888 0.140897 0.245013 -0.152109
H1    H     H_    0.279720 0.400185 0.167126 0.109373
H2    H     H_    0.720280 0.400186 0.832874 0.109373
H3    H     H_    0.779720 0.900185 0.167126 0.109373
H4    H     H_    0.220280 0.900185 0.832874 0.109373
H5    H     H_    0.793851 0.624990 0.574176 0.162152
H6    H     H_    0.206149 0.624989 0.425824 0.162153
H7    H     H_    0.293851 0.124989 0.574176 0.162153
H8    H     H_    0.706149 0.124990 0.425824 0.162152
H9    H     H_    0.276853 0.214204 0.344413 0.171379
H10   H     H_    0.723147 0.214204 0.655587 0.171379
H11   H     H_    0.776853 0.714204 0.344413 0.171379
H12   H     H_    0.223147 0.714204 0.655587 0.171379
H13   H     H_    0.320873 0.247954 0.575297 0.129377
H14   H     H_    0.679127 0.247954 0.424703 0.129377
H15   H     H_    0.820872 0.747955 0.575297 0.129377
H16   H     H_    0.179127 0.747954 0.424703 0.129377
H17   H     H_    0.283045 0.777246 0.174594 0.131806
H18   H     H_    0.716954 0.777246 0.825406 0.131806
H19   H     H_    0.783045 0.277246 0.174594 0.131805
H20   H     H_    0.216954 0.277246 0.825406 0.131805
H21   H     H_    0.787893 0.372702 0.009401 0.130536
H22   H     H_    0.212107 0.372702 0.990599 0.130536
H23   H     H_    0.287893 0.872702 0.009401 0.130536
H24   H     H_    0.712107 0.872702 0.990599 0.130536
H25   H     H_    0.379010 0.774352 0.110529 0.137049
H26   H     H_    0.620990 0.774352 0.889471 0.137049
H27   H     H_    0.879010 0.274352 0.110529 0.137050
H28   H     H_    0.120990 0.274352 0.889471 0.137049
H29   H     H_    0.667784 0.318863 0.008974 0.132995
H30   H     H_    0.332215 0.318863 0.991026 0.132995
H31   H     H_    0.167785 0.818863 0.008974 0.132995
H32   H     H_    0.832215 0.818863 0.991026 0.132995
H33   H     H_    0.565516 0.347859 0.320888 0.131184
H34   H     H_    0.434483 0.347859 0.679112 0.131184
H35   H     H_    0.065516 0.847858 0.320888 0.131184
H36   H     H_    0.934483 0.847859 0.679112 0.131184
H37   H     H_    0.546234 0.393385 0.830008 0.093457
H38   H     H_    0.453766 0.393385 0.169991 0.093457
H39   H     H_    0.046234 0.893385 0.830008 0.093457
H40   H     H_    0.953766 0.893385 0.169991 0.093456
H41   H     H_    0.478987 0.658720 0.231029 0.101573
H42   H     H_    0.521013 0.658720 0.768971 0.101572
H43   H     H_    0.978987 0.158720 0.231029 0.101573
H44   H     H_    0.021013 0.158720 0.768971 0.101573
H45   H     H_    0.695780 0.656188 0.766379 0.123891
H46   H     H_    0.304220 0.656188 0.233622 0.123889
H47   H     H_    0.195780 0.156188 0.766378 0.123889
H48   H     H_    0.804220 0.156188 0.233621 0.123890
H49   H     H_    0.407609 0.593850 0.677725 0.105536
H50   H     H_    0.592391 0.593850 0.322275 0.105536
H51   H     H_    0.907609 0.093850 0.677725 0.105536
H52   H     H_    0.092391 0.093850 0.322275 0.105536
H53   H     H_    0.677439 0.650728 0.324929 0.136279
H54   H     H_    0.322561 0.650728 0.675071 0.136279
H55   H     H_    0.177438 0.150728 0.324929 0.136279
H56   H     H_    0.822561 0.150728 0.675071 0.136279
N1    N     N_R   0.389060 0.424180 0.294540 -0.056512
N2    N     N_R   0.610940 0.424180 0.705460 -0.056512
N3    N     N_R   0.889060 0.924180 0.294540 -0.056512
N4    N     N_R   0.110940 0.924180 0.705460 -0.056512
N5    N     N_R   0.579670 0.423790 0.443360 -0.057714
N6    N     N_R   0.420330 0.423790 0.556640 -0.057714
N7    N     N_R   0.079670 0.923790 0.443360 -0.057714
N8    N     N_R   0.920330 0.923790 0.556640 -0.057714
N9    N     N_R   0.625470 0.423490 0.556600 -0.109708
N10   N     N_R   0.374530 0.423490 0.443400 -0.109708
N11   N     N_R   0.125470 0.923490 0.556600 -0.109708
N12   N     N_R   0.874530 0.923490 0.443400 -0.109708
N13   N     N_R   0.555250 0.423100 0.705420 -0.036617
N14   N     N_R   0.444750 0.423100 0.294580 -0.036617
N15   N     N_R   0.055250 0.923100 0.705420 -0.036617
N16   N     N_R   0.944750 0.923100 0.294580 -0.036617
N17   N     N_R   0.375210 0.577180 0.443400 -0.078279
N18   N     N_R   0.624790 0.577180 0.556600 -0.078279
N19   N     N_R   0.875210 0.077180 0.443400 -0.078279
N20   N     N_R   0.124790 0.077180 0.556600 -0.078279
N21   N     N_R   0.445430 0.577570 0.294580 -0.037157
N22   N     N_R   0.554570 0.577570 0.705420 -0.037157
N23   N     N_R   0.945430 0.077570 0.294580 -0.037157
N24   N     N_R   0.054570 0.077570 0.705420 -0.037157
N25   N     N_R   0.611620 0.576500 0.705460 -0.050000
N26   N     N_R   0.388380 0.576500 0.294540 -0.050000
N27   N     N_R   0.111620 0.076500 0.705460 -0.050000
N28   N     N_R   0.888380 0.076500 0.294540 -0.050000
N29   N     N_R   0.421010 0.576890 0.556640 -0.049136
N30   N     N_R   0.578990 0.576890 0.443360 -0.049136
N31   N     N_R   0.921010 0.076890 0.556640 -0.049136
N32   N     N_R   0.078990 0.076890 0.443360 -0.049136
Ni1   Ni    Ni4+2 0.383200 0.500680 0.370150 0.194267
Ni2   Ni    Ni4+2 0.616800 0.500680 0.629850 0.194267
Ni3   Ni    Ni4+2 0.883200 0.000680 0.370150 0.194267
Ni4   Ni    Ni4+2 0.116800 0.000680 0.629850 0.194267
Ni5   Ni    Ni4+2 0.512440 0.500680 0.370150 0.204460
Ni6   Ni    Ni4+2 0.487560 0.500680 0.629850 0.204460
Ni7   Ni    Ni4+2 0.012440 0.000680 0.370150 0.204460
Ni8   Ni    Ni4+2 0.987560 0.000680 0.629850 0.204460
O1    O     O_3   0.734610 0.357570 0.693445 -0.784541
H57   H     H_    0.747493 0.410189 0.725721 0.297135
O2    O     O_3   0.265390 0.357571 0.306555 -0.784541
H58   H     H_    0.252507 0.410189 0.274279 0.297136
O3    O     O_3   0.234610 0.857571 0.693445 -0.784541
H59   H     H_    0.247493 0.910189 0.725721 0.297135
O4    O     O_3   0.765390 0.857571 0.306555 -0.784541
H60   H     H_    0.752507 0.910189 0.274279 0.297135
N33   N     N_2   0.247601 0.581571 0.303498 -0.112638
H61   H     H_    0.252758 0.547913 0.254399 0.154133
C81   C     C_3   0.195873 0.643041 0.244829 -0.993622
H62   H     H_    0.185223 0.655861 0.165638 0.247598
H63   H     H_    0.213847 0.697343 0.294129 0.252461
H64   H     H_    0.145781 0.624055 0.225243 0.264164
N34   N     N_2   0.752399 0.581570 0.696502 -0.112638
H65   H     H_    0.747242 0.547913 0.745600 0.154132
C82   C     C_3   0.804127 0.643041 0.755171 -0.993615
H66   H     H_    0.814780 0.655857 0.834366 0.247597
H67   H     H_    0.786150 0.697345 0.705874 0.252459
H68   H     H_    0.854218 0.624058 0.774750 0.264162
N35   N     N_2   0.747601 0.081571 0.303498 -0.112638
H69   H     H_    0.752758 0.047913 0.254399 0.154132
C83   C     C_3   0.695873 0.143041 0.244829 -0.993619
H70   H     H_    0.685221 0.155860 0.165636 0.247597
H71   H     H_    0.713849 0.197345 0.294127 0.252460
H72   H     H_    0.645782 0.124058 0.225247 0.264163
N36   N     N_2   0.252399 0.081571 0.696502 -0.112638
H73   H     H_    0.247242 0.047913 0.745601 0.154132
C84   C     C_3   0.304127 0.143041 0.755171 -0.993617
H74   H     H_    0.314778 0.155861 0.834362 0.247597
H75   H     H_    0.286153 0.197344 0.705871 0.252460
H76   H     H_    0.354219 0.124055 0.774755 0.264163

loop_
_geom_bond_atom_site_label_1
_geom_bond_atom_site_label_2
_ccdc_geom_bond_type
N32   Ni7   S    
C15   C75   A    
N36   H73   S    
C6    N30   A    
C72   N20   A    
C73   N21   A    
N2    Ni2   S    
N6    N10   A    
C35   C39   D    
N7    Ni7   S    
C75   N23   A    
C6    H50   S    
C13   C41   S    
C17   H53   S    
C35   H31   S    
C57   C62   A    
N6    Ni6   S    
O3    H59   S    
C7    C11   A    
N36   C84   S    
C12   C23   S    
N18   Ni2   S    
C59   C64   A    
C41   H25   S    
C60   C63   A    
C75   H43   S    
C14   C74   A    
C9    C69   A    
C46   C66   A    
C37   C51   S    
C11   C71   A    
C9    C22   S    
N33   C81   S    
C4    N4    A    
N20   N32   A    
C19   H55   S    
C20   H56   S    
C47   N7    A    
N3    N16   A    
C58   H38   S    
N12   Ni3   S    
C54   O2    S    
C48   N8    A    
N13   Ni6   S    
C60   N16   A    
C14   C77   A    
C41   C49   D    
N35   C83   S    
C80   N28   A    
C81   H64   S    
C79   H47   S    
C8    N32   A    
N22   N25   A    
C13   C78   A    
N16   Ni7   S    
N22   Ni6   S    
C20   C24   D    
N19   N31   A    
C33   C62   S    
C82   H67   S    
C57   N13   A    
C8    H52   S    
C83   H72   S    
C27   H11   S    
C35   C64   S    
C5    N29   A    
C36   C63   S    
C53   C65   A    
C16   C44   S    
C44   H28   S    
C7    H51   S    
N8    N12   A    
C48   H36   S    
C44   C52   D    
C58   C61   A    
C5    H49   S    
C12   C72   A    
C83   H70   S    
N4    Ni4   S    
C23   H7    S    
C25   C29   D    
N24   Ni8   S    
C31   C68   S    
C77   H45   S    
C47   C67   A    
C29   H13   S    
C70   N34   S    
C71   N35   S    
C84   H75   S    
N2    N13   A    
C77   N25   A    
C11   C24   S    
C21   H5    S    
C50   H18   S    
C46   H34   S    
C27   C31   D    
N34   H65   S    
C17   C27   S    
N24   N27   A    
C36   C40   D    
C18   C28   S    
C46   N6    A    
C79   N27   A    
C33   H29   S    
C74   N22   A    
C34   C38   D    
C73   H41   S    
C80   H48   S    
N29   Ni6   S    
C84   H74   S    
C52   H20   S    
C34   C61   S    
C33   C37   D    
O2    H58   S    
C1    C61   A    
C2    N2    A    
C45   N5    A    
C56   N12   A    
C19   C23   D    
O4    H60   S    
N34   C82   S    
C36   H32   S    
N19   Ni3   S    
C40   H24   S    
C51   H19   S    
C24   H8    S    
C55   N11   A    
C15   C80   A    
C4    H4    S    
C28   C32   D    
C8    C12   A    
C82   H68   S    
C71   N19   A    
N8    Ni8   S    
C53   N9    A    
C55   O3    S    
C28   H12   S    
C43   H27   S    
C48   C68   A    
N3    Ni3   S    
N27   Ni4   S    
C42   H26   S    
N4    N15   A    
C47   H35   S    
C42   C50   D    
C32   C67   S    
N25   Ni2   S    
C10   C70   A    
C39   C49   S    
C13   C73   A    
N7    N11   A    
C59   N15   A    
C72   N36   S    
C45   C65   A    
C34   H30   S    
N1    N14   A    
C2    H2    S    
C3    N3    A    
C78   H46   S    
C69   N33   S    
C70   N18   A    
C1    N1    A    
N11   Ni4   S    
C78   N26   A    
C57   H37   S    
C84   H76   S    
N5    Ni5   S    
C7    N31   A    
N9    Ni2   S    
C76   N24   A    
N30   Ni5   S    
C59   H39   S    
N15   Ni8   S    
N17   N29   A    
C16   C76   A    
N1    Ni1   S    
C5    C9    A    
C53   O1    S    
C10   C21   S    
C6    C10   A    
C55   C67   A    
C39   H23   S    
C54   C66   A    
C56   O4    S    
C3    C63   A    
C26   H10   S    
C4    C64   A    
C25   H9    S    
C14   C42   S    
C54   N10   A    
C16   C79   A    
C18   C22   D    
C15   C43   S    
C81   H62   S    
C30   H14   S    
C56   C68   A    
C74   H42   S    
C37   H21   S    
C32   H16   S    
C43   C51   D    
N33   H61   S    
N26   Ni1   S    
C20   C26   S    
C31   H15   S    
C38   C52   S    
N5    N9    A    
N20   Ni4   S    
C60   H40   S    
C18   H54   S    
C58   N14   A    
C22   H6    S    
N35   H69   S    
C19   C25   S    
C17   C21   D    
C81   H63   S    
C30   C65   S    
C69   N17   A    
O1    H57   S    
C76   H44   S    
C49   H17   S    
C29   C66   S    
C45   H33   S    
C40   C50   S    
N14   Ni5   S    
C3    H3    S    
C38   H22   S    
C82   H66   S    
N10   Ni1   S    
N17   Ni1   S    
C83   H71   S    
N23   N28   A    
N18   N30   A    
N28   Ni3   S    
N23   Ni7   S    
C1    H1    S    
N21   N26   A    
C2    C62   A    
N21   Ni5   S    
N31   Ni8   S    
C26   C30   D    
