data_mof_unit_pretest_1729.cif
_audit_creation_date              2013-03-05T16:18:44-0500
_audit_creation_method            fapswitch 2.2
_symmetry_space_group_name_H-M    P1
_symmetry_Int_Tables_number       1
_space_group_crystal_system       triclinic
_cell_length_a                    44.355455
_cell_length_b                    38.914304
_cell_length_c                    21.326969
_cell_angle_alpha                 90.045987
_cell_angle_beta                  61.184363
_cell_angle_gamma                 90.06097
_cell_volume                      32253.4454598

loop_
_atom_site_label
_atom_site_type_symbol
_atom_site_description
_atom_site_fract_x
_atom_site_fract_y
_atom_site_fract_z
_atom_type_partial_charge
O1    O     O_R   0.050910 0.528730 0.449120 -0.594479
O2    O     O_R   0.949090 0.528730 0.550880 -0.584725
O3    O     O_R   0.550910 0.028730 0.449120 -0.590459
O4    O     O_R   0.449090 0.028730 0.550880 -0.590329
O5    O     O_R   0.050890 0.471240 0.449130 -0.606208
O6    O     O_R   0.949110 0.471240 0.550870 -0.598540
O7    O     O_R   0.550890 0.971240 0.449130 -0.608072
O8    O     O_R   0.449110 0.971240 0.550870 -0.608196
C1    C     C_R   0.067165 0.500005 0.434431 0.952660
C2    C     C_R   0.932957 0.499985 0.565459 0.950766
C3    C     C_R   0.567166 0.000005 0.434437 0.954965
C4    C     C_R   0.432834 0.999979 0.565555 0.954882
O9    O     O_R   0.999990 0.528730 0.593030 -0.560983
O10   O     O_R   0.000010 0.528730 0.406970 -0.563201
O11   O     O_R   0.499990 0.028730 0.593030 -0.559673
O12   O     O_R   0.500010 0.028730 0.406970 -0.559454
O13   O     O_R   0.999970 0.471240 0.593040 -0.606055
O14   O     O_R   0.000030 0.471240 0.406960 -0.600947
O15   O     O_R   0.499970 0.971240 0.593040 -0.608305
O16   O     O_R   0.500030 0.971240 0.406960 -0.608361
C5    C     C_R   0.000183 0.500011 0.621376 0.977026
C6    C     C_R   0.999494 0.499954 0.378950 0.980437
C7    C     C_R   0.500191 0.000011 0.621368 0.979017
C8    C     C_R   0.499810 0.999988 0.378630 0.979000
Zn1   Zn    Zn3+2 0.000000 0.538370 0.500000 1.175028
Zn2   Zn    Zn3+2 0.500000 0.038370 0.500000 1.188869
Zn3   Zn    Zn3+2 0.000000 0.461600 0.500000 1.120797
Zn4   Zn    Zn3+2 0.500000 0.961600 0.500000 1.104606
C9    C     C_3   0.029848 0.487616 0.700694 0.200573
C10   C     C_3   0.974175 0.480043 0.294805 0.199438
C11   C     C_3   0.529911 0.987733 0.700637 0.200760
C12   C     C_3   0.470103 0.987602 0.299310 0.200730
C13   C     C_3   0.003919 0.468342 0.767216 0.688867
C14   C     C_3   0.004484 0.468482 0.224142 0.684038
C15   C     C_3   0.504060 0.968356 0.767083 0.687499
C16   C     C_3   0.495972 0.968295 0.232775 0.687449
C17   C     C_3   0.000123 0.500641 0.811082 -0.258980
C18   C     C_3   0.999671 0.500659 0.189100 -0.266535
C19   C     C_3   0.500129 0.000641 0.811078 -0.258524
C20   C     C_3   0.499870 0.000597 0.188924 -0.258589
C21   C     C_3   0.026800 0.520105 0.744484 -0.345665
C22   C     C_3   0.968622 0.512195 0.259860 -0.326289
C23   C     C_3   0.526731 0.020211 0.744558 -0.346164
C24   C     C_3   0.473250 0.020092 0.255530 -0.345912
C25   C     C_3   0.996756 0.532263 0.732853 0.727885
C26   C     C_3   0.994192 0.531925 0.276368 0.740942
C27   C     C_3   0.496639 0.032246 0.732971 0.728848
C28   C     C_3   0.503332 0.032197 0.267159 0.728969
C29   C     C_3   0.970058 0.513415 0.800477 -0.284247
C30   C     C_3   0.025059 0.520986 0.204759 -0.291828
C31   C     C_3   0.470016 0.013291 0.800518 -0.284229
C32   C     C_3   0.529972 0.013315 0.199534 -0.284231
C33   C     C_3   0.973960 0.480690 0.755386 -0.348999
C34   C     C_3   0.029888 0.488333 0.240969 -0.349950
C35   C     C_3   0.474052 0.980581 0.755299 -0.350219
C36   C     C_3   0.525970 0.980590 0.244612 -0.350162
C37   C     C_3   0.000524 0.500050 0.688362 -0.284297
C38   C     C_3   0.998989 0.499824 0.312123 -0.282540
C39   C     C_3   0.500537 0.000048 0.688352 -0.283598
C40   C     C_3   0.499466 0.999984 0.311644 -0.283761
H1    H     H_    0.048267 0.536145 0.741010 0.218142
H2    H     H_    0.943683 0.521983 0.266855 0.228917
H3    H     H_    0.548131 0.036338 0.741154 0.218109
H4    H     H_    0.451833 0.036169 0.259010 0.218270
H5    H     H_    0.945623 0.524488 0.842799 0.208795
H6    H     H_    0.045700 0.538181 0.166426 0.203643
H7    H     H_    0.445536 0.024267 0.842883 0.207884
H8    H     H_    0.554440 0.024357 0.157216 0.207918
H9    H     H_    0.952699 0.464468 0.758385 0.211908
H10   H     H_    0.054635 0.478344 0.234665 0.205869
H11   H     H_    0.452863 0.964262 0.758241 0.209733
H12   H     H_    0.547175 0.964321 0.241601 0.209722
C41   C     C_R   0.376906 0.500161 0.066486 -0.163920
C42   C     C_R   0.622793 0.490277 0.932009 -0.193545
C43   C     C_R   0.876906 0.000117 0.066488 -0.163907
C44   C     C_R   0.123090 0.000113 0.933531 -0.163885
H13   H     H_    0.390232 0.501268 0.008579 0.177733
H14   H     H_    0.609163 0.483950 0.988432 0.176925
H15   H     H_    0.890231 0.001193 0.008577 0.177751
H16   H     H_    0.109763 0.001241 0.991438 0.177747
C45   C     C_R   0.341151 0.499312 0.102519 -0.136058
C46   C     C_R   0.658560 0.489008 0.895981 -0.039226
C47   C     C_R   0.841151 0.999265 0.102523 -0.136179
C48   C     C_R   0.158842 0.999220 0.897511 -0.136248
H17   H     H_    0.327401 0.499674 0.072117 0.164849
H18   H     H_    0.672072 0.482103 0.925030 0.176425
H19   H     H_    0.827400 0.999594 0.072121 0.164802
H20   H     H_    0.172589 0.999571 0.927922 0.164774
C49   C     C_R   0.323290 0.497597 0.177351 0.207282
C50   C     C_R   0.676761 0.496992 0.823005 0.205803
C51   C     C_R   0.823291 0.997590 0.177360 0.207392
C52   C     C_R   0.176704 0.997477 0.822680 0.207450
C53   C     C_R   0.341364 0.497195 0.216019 -0.045754
C54   C     C_R   0.659016 0.506281 0.786221 -0.143757
C55   C     C_R   0.841366 0.997230 0.216027 -0.045814
C56   C     C_R   0.158634 0.997090 0.784000 -0.045763
H21   H     H_    0.327792 0.496469 0.273975 0.177530
H22   H     H_    0.672886 0.512500 0.729740 0.165845
H23   H     H_    0.827795 0.996537 0.273985 0.177482
H24   H     H_    0.172209 0.996345 0.726044 0.177507
C57   C     C_R   0.377094 0.498123 0.180097 -0.149159
C58   C     C_R   0.623239 0.507160 0.821986 -0.113794
C59   C     C_R   0.877095 0.998161 0.180101 -0.149329
C60   C     C_R   0.122907 0.998065 0.819910 -0.149681
H25   H     H_    0.390546 0.497732 0.211076 0.182052
H26   H     H_    0.609965 0.514259 0.792573 0.190564
H27   H     H_    0.890548 0.997803 0.211081 0.181988
H28   H     H_    0.109458 0.997684 0.788923 0.181980
C61   C     C_R   0.395117 0.499479 0.105059 -0.035293
C62   C     C_R   0.604903 0.499198 0.895141 -0.043487
C63   C     C_R   0.895117 0.999477 0.105061 -0.035314
C64   C     C_R   0.104882 0.999449 0.894947 -0.035499
C65   C     C_R   0.267641 0.522587 0.201461 -0.320451
C66   C     C_R   0.732641 0.525439 0.749310 -0.317265
C67   C     C_R   0.767642 0.022551 0.201403 -0.320487
C68   C     C_R   0.232404 0.022430 0.798602 -0.320489
H29   H     H_    0.281252 0.542532 0.162483 0.217109
H30   H     H_    0.719175 0.548840 0.750401 0.222292
H31   H     H_    0.781252 0.042473 0.162365 0.217362
H32   H     H_    0.218834 0.042382 0.837598 0.217318
C69   C     C_R   0.231982 0.523035 0.238564 0.663851
C70   C     C_R   0.768317 0.525067 0.712851 0.654442
C71   C     C_R   0.731983 0.023000 0.238509 0.664277
C72   C     C_R   0.268063 0.022867 0.761485 0.664259
C73   C     C_R   0.213976 0.497691 0.289835 -0.201969
C74   C     C_R   0.786243 0.495032 0.711008 -0.203075
C75   C     C_R   0.713978 0.997686 0.289856 -0.202464
C76   C     C_R   0.286019 0.997520 0.710177 -0.202418
C77   C     C_R   0.231878 0.471513 0.304233 0.183403
C78   C     C_R   0.768009 0.464929 0.746220 0.192062
C79   C     C_R   0.731881 0.971538 0.304329 0.183585
C80   C     C_R   0.268064 0.971344 0.695773 0.183551
C81   C     C_R   0.267905 0.471270 0.266056 0.582829
C82   C     C_R   0.731935 0.465914 0.784063 0.581469
C83   C     C_R   0.767908 0.971291 0.266145 0.582514
C84   C     C_R   0.232036 0.971112 0.733965 0.582538
C85   C     C_R   0.285701 0.496938 0.215263 -0.201516
C86   C     C_R   0.714367 0.496068 0.785212 -0.206555
C87   C     C_R   0.785703 0.996930 0.215276 -0.201654
C88   C     C_R   0.214292 0.996790 0.784780 -0.201643
C89   C     C_R   0.157971 0.472638 0.314506 0.732121
C90   C     C_R   0.842350 0.490396 0.710413 0.741181
C91   C     C_R   0.657973 0.972600 0.314624 0.731423
C92   C     C_R   0.342012 0.972494 0.685369 0.731499
C93   C     C_R   0.122276 0.473337 0.350868 -0.290370
C94   C     C_R   0.878070 0.491964 0.674049 -0.307831
C95   C     C_R   0.622278 0.973302 0.350980 -0.289730
C96   C     C_R   0.377709 0.973231 0.649007 -0.289793
H33   H     H_    0.108308 0.453334 0.340285 0.206513
H34   H     H_    0.892141 0.487141 0.702934 0.180970
H35   H     H_    0.608310 0.953272 0.340469 0.204811
H36   H     H_    0.391667 0.953242 0.659541 0.204766
C97   C     C_R   0.104699 0.499867 0.399469 -0.223800
C98   C     C_R   0.895636 0.499948 0.601036 -0.216561
C99   C     C_R   0.604701 0.999868 0.399481 -0.222473
C100  C     C_R   0.395299 0.999785 0.600484 -0.222466
C101  C     C_R   0.123357 0.525904 0.412428 0.308129
C102  C     C_R   0.877311 0.506219 0.563216 0.307259
C103  C     C_R   0.623361 0.025939 0.412344 0.308569
C104  C     C_R   0.376652 0.025799 0.587581 0.308474
C105  C     C_R   0.159268 0.525203 0.374490 -0.178331
C106  C     C_R   0.841409 0.503768 0.600220 -0.169329
C107  C     C_R   0.659271 0.025232 0.374412 -0.177564
C108  C     C_R   0.340742 0.025059 0.625518 -0.177545
H37   H     H_    0.173949 0.544744 0.384248 0.212308
H38   H     H_    0.826849 0.508265 0.572269 0.218814
H39   H     H_    0.673954 0.044800 0.384098 0.212175
H40   H     H_    0.326070 0.044588 0.615816 0.212229
C109  C     C_R   0.176458 0.498564 0.326439 0.028828
C110  C     C_R   0.823943 0.496076 0.673376 0.024037
C111  C     C_R   0.676460 0.998559 0.326461 0.029467
C112  C     C_R   0.323539 0.998406 0.673514 0.029476
O17   O     O_R   0.971250 0.449110 0.028730 -0.617553
O18   O     O_R   0.028750 0.449110 0.971270 -0.611437
O19   O     O_R   0.471250 0.949110 0.028730 -0.615173
O20   O     O_R   0.528750 0.949110 0.971270 -0.615052
C113  C     C_R   0.999988 0.432753 0.000022 0.916534
C114  C     C_R   0.499987 0.932753 0.000016 0.914803
O21   O     O_R   0.971250 0.500020 0.935710 -0.618683
O22   O     O_R   0.028750 0.500020 0.064290 -0.610377
O23   O     O_R   0.471250 0.000020 0.935710 -0.619960
O24   O     O_R   0.528750 0.000020 0.064290 -0.619902
O25   O     O_R   0.028730 0.500040 0.878250 -0.603166
O26   O     O_R   0.971270 0.500040 0.121750 -0.611905
O27   O     O_R   0.528730 0.000040 0.878250 -0.602418
O28   O     O_R   0.471270 0.000040 0.121750 -0.602526
C115  C     C_R   0.000012 0.500286 0.878417 0.986461
C116  C     C_R   0.999960 0.500379 0.121601 0.988567
C117  C     C_R   0.500013 0.000286 0.878417 0.986502
C118  C     C_R   0.499987 0.000272 0.121583 0.986520
Zn5   Zn    Zn3+2 0.961610 0.500020 0.038370 1.042715
Zn6   Zn    Zn3+2 0.038390 0.500020 0.961630 1.052576
Zn7   Zn    Zn3+2 0.461610 0.000020 0.038370 1.046769
Zn8   Zn    Zn3+2 0.538390 0.000020 0.961630 1.046875
O29   O     O_R   0.971250 0.550940 0.028740 -0.626986
O30   O     O_R   0.028750 0.550940 0.971260 -0.629750
O31   O     O_R   0.471250 0.050940 0.028740 -0.627931
O32   O     O_R   0.528750 0.050940 0.971260 -0.628034
C119  C     C_R   0.000013 0.567268 0.999983 0.853005
C120  C     C_R   0.500012 0.067268 0.999984 0.854304
O33   O     O_R   0.499970 0.449000 0.052430 -0.627555
O34   O     O_R   0.500030 0.449000 0.947570 -0.626354
O35   O     O_R   0.999970 0.949000 0.052430 -0.626842
O36   O     O_R   0.000030 0.949000 0.947570 -0.626918
C121  C     C_R   0.500004 0.432674 0.999973 0.864719
C122  C     C_R   0.000002 0.932674 0.999974 0.864897
O37   O     O_R   0.449080 0.499920 0.103410 -0.605862
O38   O     O_R   0.550920 0.499920 0.896590 -0.608237
O39   O     O_R   0.949080 0.999920 0.103410 -0.605871
O40   O     O_R   0.050920 0.999920 0.896590 -0.605842
O41   O     O_R   0.449080 0.499990 0.998370 -0.628319
O42   O     O_R   0.550920 0.499990 0.001630 -0.623454
O43   O     O_R   0.949080 0.999990 0.998370 -0.628275
O44   O     O_R   0.050920 0.999990 0.001630 -0.628248
C123  C     C_R   0.432739 0.499898 0.067271 0.912990
C124  C     C_R   0.567268 0.499843 0.932747 0.912524
C125  C     C_R   0.932739 0.999897 0.067271 0.913120
C126  C     C_R   0.067261 0.999898 0.932729 0.913040
Zn9   Zn    Zn3+2 0.499980 0.499910 0.070140 1.062767
Zn10  Zn    Zn3+2 0.500020 0.499910 0.929860 1.058061
Zn11  Zn    Zn3+2 0.999980 0.999910 0.070140 1.059926
Zn12  Zn    Zn3+2 0.000020 0.999910 0.929860 1.060010
O45   O     O_R   0.500000 0.550840 0.052620 -0.583742
O46   O     O_R   0.500000 0.550840 0.947380 -0.586047
O47   O     O_R   1.000000 0.050840 0.052620 -0.584989
O48   O     O_R   0.000000 0.050840 0.947380 -0.584856
C127  C     C_R   0.499993 0.567008 0.000030 1.046111
C128  C     C_R   0.999997 0.067008 0.000026 1.045512
C129  C     C_R   0.524969 0.622458 0.940048 0.178552
C130  C     C_R   0.474917 0.622379 0.060262 0.175094
C131  C     C_R   0.025026 0.122446 0.940063 0.175401
C132  C     C_R   0.974926 0.122383 0.060215 0.175499
C133  C     C_R   0.524946 0.658513 0.940125 0.261423
C134  C     C_R   0.474876 0.658435 0.060342 0.261804
C135  C     C_R   0.025018 0.158503 0.940139 0.261577
C136  C     C_R   0.974899 0.158439 0.060290 0.261833
C137  C     C_R   0.499896 0.676311 0.000275 -0.116025
C138  C     C_R   0.999949 0.176308 0.000251 -0.115539
C139  C     C_R   0.499961 0.604511 0.000116 -0.361569
C140  C     C_R   0.999983 0.104508 0.000101 -0.361621
C141  C     C_R   0.474789 0.731737 0.991455 0.682107
C142  C     C_R   0.524948 0.731804 0.009290 0.682358
C143  C     C_R   0.974864 0.231731 0.991335 0.682535
C144  C     C_R   0.024971 0.231806 0.009350 0.682382
C145  C     C_R   0.974911 0.267453 0.991250 -0.234444
C146  C     C_R   0.024909 0.267528 0.009466 -0.233389
C147  C     C_R   0.474845 0.767460 0.991351 -0.234968
C148  C     C_R   0.524896 0.767526 0.009387 -0.235028
H41   H     H_    0.955718 0.280961 0.983175 0.194409
H42   H     H_    0.044101 0.281094 0.017534 0.195014
H43   H     H_    0.455635 0.780971 0.983338 0.193727
H44   H     H_    0.544113 0.781089 0.017378 0.193805
C149  C     C_R   0.999910 0.285563 0.000351 -0.093021
C150  C     C_R   0.499877 0.785565 0.000349 -0.092204
C151  C     C_R   0.499872 0.713884 0.000359 -0.097537
C152  C     C_R   0.999926 0.213882 0.000322 -0.098371
C153  C     C_R   0.030954 0.341335 0.962829 -0.121065
C154  C     C_R   0.968917 0.341332 0.037647 -0.120901
C155  C     C_R   0.530930 0.841330 0.962735 -0.122549
C156  C     C_R   0.468903 0.841340 0.037704 -0.122534
H45   H     H_    0.055116 0.327839 0.932875 0.164223
H46   H     H_    0.944742 0.327833 0.067662 0.163905
H47   H     H_    0.555083 0.827828 0.932723 0.164015
H48   H     H_    0.444729 0.827847 0.067778 0.163979
C157  C     C_R   0.030987 0.377054 0.962827 -0.127471
C158  C     C_R   0.968921 0.377052 0.037466 -0.138391
C159  C     C_R   0.530972 0.877049 0.962735 -0.134925
C160  C     C_R   0.468915 0.877059 0.037524 -0.134842
H49   H     H_    0.055257 0.390448 0.933305 0.181561
H50   H     H_    0.944665 0.390446 0.066924 0.180529
H51   H     H_    0.555240 0.890439 0.933153 0.181144
H52   H     H_    0.444667 0.890458 0.067043 0.181129
C161  C     C_R   0.999963 0.395156 0.000100 -0.036788
C162  C     C_R   0.499957 0.895156 0.000086 -0.037377
C163  C     C_R   0.999927 0.323254 0.000284 0.175612
C164  C     C_R   0.499903 0.823256 0.000267 0.175784
C165  C     C_R   0.502450 0.377060 0.940662 -0.184165
C166  C     C_R   0.497649 0.377051 0.059025 -0.183260
C167  C     C_R   0.002483 0.877061 0.940630 -0.183986
C168  C     C_R   0.997604 0.877050 0.059060 -0.183966
H53   H     H_    0.504427 0.390445 0.894324 0.175591
H54   H     H_    0.495647 0.390430 0.105428 0.175991
H55   H     H_    0.004492 0.890448 0.894265 0.175744
H56   H     H_    0.995571 0.890428 0.105490 0.175713
C169  C     C_R   0.502530 0.341366 0.940577 -0.057370
C170  C     C_R   0.497644 0.341358 0.058929 -0.055827
C171  C     C_R   0.002562 0.841368 0.940543 -0.056938
C172  C     C_R   0.997598 0.841357 0.058962 -0.057224
H57   H     H_    0.504740 0.327714 0.894254 0.172726
H58   H     H_    0.495459 0.327698 0.105187 0.173234
H59   H     H_    0.004802 0.827717 0.894194 0.172859
H60   H     H_    0.995382 0.827695 0.105245 0.172675
C173  C     C_R   0.500106 0.323433 0.999708 0.193850
C174  C     C_R   0.000099 0.823433 0.999706 0.193973
C175  C     C_R   0.500031 0.395132 0.999889 -0.049016
C176  C     C_R   0.000026 0.895132 0.999891 -0.049035
C177  C     C_R   0.476041 0.267883 0.987378 0.604963
C178  C     C_R   0.524225 0.267950 0.011857 0.605232
C179  C     C_R   0.976061 0.767882 0.987292 0.604333
C180  C     C_R   0.024198 0.767951 0.011924 0.604484
C181  C     C_R   0.976122 0.732186 0.987269 -0.237666
C182  C     C_R   0.024136 0.732255 0.011950 -0.238522
C183  C     C_R   0.476100 0.232186 0.987357 -0.237311
C184  C     C_R   0.524162 0.232254 0.011886 -0.237074
H61   H     H_    0.957607 0.718583 0.977058 0.191996
H62   H     H_    0.042646 0.718706 0.022180 0.191446
H63   H     H_    0.457565 0.218584 0.977207 0.192397
H64   H     H_    0.542690 0.218705 0.022058 0.192675
C185  C     C_R   0.000124 0.714205 0.999626 -0.093883
C186  C     C_R   0.500125 0.214205 0.999640 -0.094721
C187  C     C_R   0.500130 0.285917 0.999630 -0.222826
C188  C     C_R   0.000125 0.785917 0.999624 -0.221784
C189  C     C_R   0.031205 0.658566 0.963987 -0.138278
C190  C     C_R   0.968963 0.658573 0.035536 -0.138016
C191  C     C_R   0.531202 0.158565 0.963936 -0.137118
C192  C     C_R   0.468966 0.158573 0.035608 -0.136949
H65   H     H_    0.055458 0.672087 0.935299 0.156534
H66   H     H_    0.944730 0.672102 0.064156 0.156545
H67   H     H_    0.555453 0.172086 0.935200 0.156677
H68   H     H_    0.444736 0.172101 0.064278 0.156752
C193  C     C_R   0.031191 0.622875 0.964140 -0.167432
C194  C     C_R   0.968922 0.622883 0.035579 -0.162918
C195  C     C_R   0.531188 0.122874 0.964086 -0.164323
C196  C     C_R   0.468925 0.122883 0.035647 -0.164327
H69   H     H_    0.055523 0.609483 0.935980 0.175492
H70   H     H_    0.944569 0.609498 0.063807 0.175973
H71   H     H_    0.555518 0.109482 0.935875 0.175696
H72   H     H_    0.444575 0.109498 0.063923 0.175729
C197  C     C_R   0.000043 0.604807 0.999908 -0.039504
C198  C     C_R   0.500043 0.104807 0.999912 -0.039608
C199  C     C_R   0.000097 0.676596 0.999710 0.177082
C200  C     C_R   0.500098 0.176596 0.999722 0.177078
F1    F     F_    0.008083 0.435451 0.786328 -0.612122
F2    F     F_    0.009354 0.435708 0.195792 -0.613275
F3    F     F_    0.508356 0.935484 0.786067 -0.613271
F4    F     F_    0.491708 0.935416 0.213646 -0.613367
F5    F     F_    0.214905 0.548041 0.224047 -0.614369
F6    F     F_    0.785470 0.554296 0.680296 -0.613387
F7    F     F_    0.714904 0.047978 0.223920 -0.613053
F8    F     F_    0.285191 0.047871 0.776012 -0.613126
N1    N     N_R   0.213911 0.445723 0.357927 0.267485
O49   O     O_R   0.187354 0.453908 0.418582 -0.328236
O50   O     O_R   0.225469 0.414374 0.348556 -0.221609
N2    N     N_R   0.785648 0.433275 0.742104 0.272247
O51   O     O_R   0.812036 0.423812 0.682293 -0.337698
O52   O     O_R   0.773861 0.412485 0.796594 -0.228964
N3    N     N_R   0.713915 0.945781 0.358105 0.267358
O53   O     O_R   0.687362 0.953998 0.418738 -0.328727
O54   O     O_R   0.725472 0.914433 0.348827 -0.222608
N4    N     N_R   0.285978 0.945548 0.642049 0.267397
O55   O     O_R   0.312544 0.953723 0.581393 -0.328710
O56   O     O_R   0.274362 0.914202 0.651397 -0.222616
F9    F     F_    0.285689 0.446344 0.278846 -0.598178
F10   F     F_    0.713843 0.437071 0.816520 -0.595235
F11   F     F_    0.785692 0.946391 0.279005 -0.598524
F12   F     F_    0.214201 0.946193 0.721158 -0.598462
F13   F     F_    0.174526 0.446894 0.267308 -0.613410
F14   F     F_    0.825727 0.483644 0.781689 -0.619376
F15   F     F_    0.674526 0.946822 0.267521 -0.614859
F16   F     F_    0.325445 0.946734 0.732509 -0.614858
N5    N     N_R   0.106579 0.552044 0.465793 0.234063
O57   O     O_R   0.082094 0.543824 0.529166 -0.326243
O58   O     O_R   0.119519 0.582866 0.455373 -0.324125
N6    N     N_R   0.894329 0.514398 0.487989 0.227996
O59   O     O_R   0.922142 0.532983 0.459438 -0.348424
O60   O     O_R   0.879787 0.506763 0.449367 -0.322140
N7    N     N_R   0.606586 0.052123 0.465604 0.234395
O61   O     O_R   0.582118 0.043948 0.529026 -0.326713
O62   O     O_R   0.619519 0.082951 0.455040 -0.321929
N8    N     N_R   0.393442 0.051958 0.534283 0.234453
O63   O     O_R   0.417913 0.043764 0.470881 -0.326724
O64   O     O_R   0.380520 0.082768 0.544793 -0.321535
N9    N     N_R   0.550478 0.604124 0.878975 0.249815
O65   O     O_R   0.554918 0.610759 0.815287 -0.287383
O66   O     O_R   0.570180 0.581643 0.886537 -0.387041
N10   N     N_R   0.449446 0.603964 0.121266 0.250792
O67   O     O_R   0.445004 0.610599 0.184974 -0.283348
O68   O     O_R   0.429783 0.581406 0.113632 -0.380140
N11   N     N_R   0.050542 0.104104 0.879008 0.250760
O69   O     O_R   0.055031 0.110772 0.815295 -0.283346
O70   O     O_R   0.070183 0.081562 0.886613 -0.379614
N12   N     N_R   0.949426 0.103975 0.121193 0.250726
O71   O     O_R   0.944948 0.110611 0.184928 -0.283700
O72   O     O_R   0.929775 0.081422 0.113505 -0.379880
N13   N     N_R   0.062508 0.473007 0.647525 0.262994
O73   O     O_R   0.085127 0.463649 0.666371 -0.284728
O74   O     O_R   0.069289 0.469140 0.581454 -0.334573
N14   N     N_R   0.946393 0.457120 0.341739 0.270644
O75   O     O_R   0.927625 0.442178 0.318045 -0.288598
O76   O     O_R   0.939905 0.451628 0.407175 -0.323272
N15   N     N_R   0.562625 0.973249 0.647409 0.262862
O77   O     O_R   0.585295 0.964008 0.666198 -0.285037
O78   O     O_R   0.569387 0.969341 0.581359 -0.335540
N16   N     N_R   0.437404 0.973033 0.352483 0.262873
O79   O     O_R   0.414743 0.963734 0.333660 -0.285075
O80   O     O_R   0.430645 0.969115 0.418520 -0.335483
N17   N     N_R   0.550857 0.677023 0.879815 0.254080
O81   O     O_R   0.542198 0.701165 0.849390 -0.330668
O82   O     O_R   0.583250 0.669690 0.854935 -0.255321
N18   N     N_R   0.448932 0.676863 0.120731 0.254101
O83   O     O_R   0.457548 0.701041 0.151255 -0.330180
O84   O     O_R   0.416552 0.669420 0.145584 -0.255377
N19   N     N_R   0.050962 0.177006 0.879867 0.254069
O85   O     O_R   0.042342 0.201154 0.849386 -0.329703
O86   O     O_R   0.083347 0.169661 0.855077 -0.254737
N20   N     N_R   0.948938 0.176874 0.120641 0.253987
O87   O     O_R   0.957536 0.201047 0.151206 -0.329992
O88   O     O_R   0.916561 0.169443 0.145416 -0.255263
F17   F     F_    0.450602 0.714526 0.982121 -0.596997
F18   F     F_    0.549140 0.714658 0.018603 -0.596478
F19   F     F_    0.950707 0.214516 0.981909 -0.596171
F20   F     F_    0.049141 0.214664 0.018745 -0.596060
F21   F     F_    0.452142 0.284808 0.976698 -0.630146
F22   F     F_    0.548119 0.284942 0.022556 -0.628781
F23   F     F_    0.952185 0.784807 0.976538 -0.630837
F24   F     F_    0.048067 0.784944 0.022701 -0.630958
F25   F     F_    0.992878 0.565345 0.714214 -0.597310
F26   F     F_    0.988914 0.564799 0.304343 -0.588671
F27   F     F_    0.492627 0.065312 0.714462 -0.596017
F28   F     F_    0.507312 0.065274 0.285794 -0.595723

loop_
_geom_bond_atom_site_label_1
_geom_bond_atom_site_label_2
_geom_bond_distance
_ccdc_geom_bond_type
C190  H66   1.083195 S    
C12   N16   1.457630 S    
C35   C39   1.541250 S    
C90   C94   1.389524 A    
O28   Zn7   2.019956 S    
C21   H1    1.110201 S    
C156  H48   1.083116 S    
C33   H9    1.110209 S    
C2    C98   1.450920 S    
C23   H3    1.110199 S    
C24   H4    1.110204 S    
C81   C85   1.403579 A    
O41   Zn10  2.014353 S    
C25   C37   1.531433 S    
C153  H45   1.083121 S    
N19   O86   1.301195 A    
C98   C102  1.415473 A    
C155  H47   1.083115 S    
N17   O82   1.301194 A    
C55   H23   1.083373 S    
Zn11  O47   2.017034 S    
O47   C128  1.286549 A    
C193  C197  1.402814 A    
C11   C39   1.525259 S    
C133  C137  1.409271 A    
C72   F8    1.358200 S    
C104  N8    1.437754 S    
C94   H34   1.084105 S    
C55   C59   1.388984 A    
C36   H12   1.110181 S    
O24   Zn8   2.018409 S    
C172  C174  1.399828 A    
C121  C175  1.460922 S    
C95   C99   1.403219 A    
C122  C176  1.460921 S    
C84   C88   1.403586 A    
C90   C110  1.400635 A    
C57   H25   1.082975 S    
C44   C64   1.403760 A    
C78   C82   1.402953 A    
C83   F11   1.359014 S    
C10   N14   1.458154 S    
C41   C45   1.389944 A    
C153  C163  1.402247 A    
C67   C71   1.386236 A    
C108  H40   1.083965 S    
C153  C157  1.389979 A    
O33   Zn9   2.016551 S    
C53   C57   1.388997 A    
O15   C7    1.274048 A    
O16   Zn4   2.019078 S    
C194  C197  1.402793 A    
C145  C149  1.403399 A    
O17   Zn5   2.016524 S    
O13   C5    1.274055 A    
O7    Zn4   2.012725 S    
C141  F17   1.357664 S    
C134  C137  1.409251 A    
O28   C118  1.272050 A    
C83   C87   1.403580 A    
C70   F6    1.358262 S    
C134  N18   1.438330 S    
O43   Zn12  2.014353 S    
C180  C188  1.403439 A    
N8    O64   1.301317 A    
C34   H10   1.110213 S    
C181  H61   1.083228 S    
C89   C109  1.397856 A    
O26   Zn5   2.019956 S    
O9    C5    1.273014 A    
C155  C164  1.402258 A    
O18   C113  1.285890 A    
C101  N5    1.437756 S    
C186  C200  1.463510 S    
C67   C87   1.397858 A    
C14   C34   1.543594 S    
C165  C175  1.403461 A    
C56   C60   1.389020 A    
O22   Zn6   2.018409 S    
C180  F24   1.357894 S    
N20   O88   1.301196 A    
C172  H60   1.083414 S    
O43   C125  1.287609 A    
C141  C147  1.390117 A    
C191  H67   1.083194 S    
O3    Zn2   2.014056 S    
C48   H20   1.083416 S    
O9    Zn1   2.019284 S    
C6    C38   1.436151 S    
C183  H63   1.083227 S    
C146  C149  1.403410 A    
C47   C51   1.400130 A    
C182  H62   1.083225 S    
C27   F27   1.382806 S    
O39   C125  1.287587 A    
C129  C133  1.403064 A    
C17   C115  1.433790 S    
C29   C33   1.553861 S    
C81   F9    1.359013 S    
C130  C134  1.403104 A    
C31   C35   1.553841 S    
N4    O55   1.301365 A    
C75   C79   1.414142 A    
O3    C3    1.284886 A    
N16   O79   1.300165 A    
C27   C39   1.531443 S    
C73   C77   1.414147 A    
C28   C32   1.540639 S    
O21   Zn5   2.018405 S    
C192  C196  1.388874 A    
C41   H13   1.082949 S    
C11   N15   1.457632 S    
C144  C152  1.400729 A    
C160  C162  1.402979 A    
C74   C78   1.415735 A    
C59   H27   1.082976 S    
O24   C118  1.272029 A    
C23   C27   1.543185 S    
O19   Zn7   2.016524 S    
C105  H37   1.083964 S    
C24   C28   1.543102 S    
N13   O74   1.299944 A    
C71   F7    1.358197 S    
C19   C31   1.539040 S    
O40   Zn12  2.014051 S    
C9    C13   1.524806 S    
C107  H39   1.083964 S    
N8    O63   1.301326 A    
C7    C39   1.436021 S    
C11   C23   1.538097 S    
C12   C16   1.524846 S    
C128  C140  1.459298 S    
C19   C117  1.433750 S    
O45   C127  1.286584 A    
C158  C161  1.402981 A    
C75   C111  1.458651 S    
C169  H57   1.083414 S    
C132  C136  1.403079 A    
N6    O59   1.300141 A    
O34   Zn10  2.017149 S    
C103  N7    1.437748 S    
C91   F15   1.357745 S    
O5    Zn3   2.012725 S    
C190  C194  1.388871 A    
C160  H52   1.083015 S    
C136  C138  1.409249 A    
N14   O75   1.300202 A    
O17   C113  1.285947 A    
C129  C139  1.410430 A    
C135  N19   1.438330 S    
C22   H2    1.110259 S    
C195  H71   1.083022 S    
O8    C4    1.285779 A    
C105  C109  1.397459 A    
O20   C114  1.285910 A    
C1    C97   1.459805 S    
C14   F2    1.382858 S    
C142  C151  1.400727 A    
Zn9   O45   2.017034 S    
C130  C139  1.410471 A    
C154  H46   1.083121 S    
O23   C117  1.272026 A    
C4    C100  1.459868 S    
O30   C119  1.285358 A    
C166  C170  1.388976 A    
C50   C86   1.461951 S    
N10   O68   1.301071 A    
C190  C199  1.401578 A    
O29   C119  1.285347 A    
N1    O50   1.301244 A    
C10   C14   1.525787 S    
C99   C103  1.416420 A    
O13   Zn3   2.018481 S    
C100  C104  1.416408 A    
C79   N3    1.440172 S    
O44   C126  1.287600 A    
C60   C64   1.403450 A    
C165  C169  1.388982 A    
C142  C148  1.390095 A    
C68   H32   1.083587 S    
C131  C140  1.410446 A    
C167  C171  1.388982 A    
C95   H35   1.083621 S    
O5    C1    1.285723 A    
C74   C110  1.465683 S    
C179  C181  1.389105 A    
C71   C75   1.401560 A    
C80   C84   1.400888 A    
C31   H7    1.110145 S    
O15   Zn4   2.018481 S    
C54   C58   1.390864 A    
C65   H29   1.083586 S    
C157  C161  1.402973 A    
C167  H55   1.082991 S    
C135  C138  1.409290 A    
C108  C112  1.397455 A    
O4    C4    1.284868 A    
C154  C158  1.390035 A    
C53   H21   1.083374 S    
C73   C109  1.458660 S    
C120  C198  1.460809 S    
N15   O78   1.299943 A    
C25   F25   1.382806 S    
C64   C126  1.462197 S    
C9    C21   1.538057 S    
O14   C6    1.273092 A    
C142  F18   1.357669 S    
C44   H16   1.082951 S    
O36   C122  1.285487 A    
N18   O83   1.301191 A    
O32   C120  1.285354 A    
O27   C117  1.272060 A    
C89   C93   1.387575 A    
C67   H31   1.083584 S    
O10   C6    1.274226 A    
N17   O81   1.301193 A    
Zn8   O32   2.016907 S    
C43   H15   1.082951 S    
C56   H24   1.083373 S    
C182  C185  1.401710 A    
C168  C176  1.403437 A    
C144  C146  1.390112 A    
C103  C107  1.396480 A    
C66   C86   1.396692 A    
C17   C21   1.539754 S    
Zn5   O29   2.016333 S    
C51   C55   1.400162 A    
C156  C164  1.402239 A    
C147  C150  1.403404 A    
C148  H44   1.083085 S    
C179  C188  1.403435 A    
C20   C24   1.539747 S    
C65   C69   1.386242 A    
N2    O51   1.301367 A    
O8    Zn4   2.013296 S    
C16   F4    1.382840 S    
O33   C121  1.285482 A    
C131  C135  1.403110 A    
C48   C52   1.400123 A    
C102  N6    1.441501 S    
C45   H17   1.083415 S    
O18   Zn6   2.015954 S    
C47   H19   1.083411 S    
N12   O71   1.301149 A    
O39   Zn11  2.014043 S    
O27   Zn8   2.019959 S    
O25   Zn6   2.019959 S    
C44   C48   1.389933 A    
C84   F12   1.359013 S    
C113  C161  1.463054 S    
N11   O69   1.301149 A    
C178  F22   1.357890 S    
N5    O58   1.301320 A    
C30   C34   1.555169 S    
C104  C108  1.396463 A    
N9    O66   1.301033 A    
C34   C38   1.541589 S    
C136  N20   1.438336 S    
O21   C115  1.271996 A    
C54   H22   1.083425 S    
C179  F23   1.357889 S    
C57   C61   1.403453 A    
C59   C63   1.403451 A    
C22   C26   1.543496 S    
C157  H49   1.083015 S    
C145  H41   1.083085 S    
O22   C116  1.272878 A    
C106  H38   1.083751 S    
C159  H51   1.083015 S    
N7    O61   1.301326 A    
O34   C121  1.285499 A    
C141  C151  1.400733 A    
C107  C111  1.397452 A    
C72   C76   1.401570 A    
C45   C49   1.400126 A    
C185  C199  1.463510 S    
C42   C46   1.390961 A    
C82   F10   1.358957 S    
C180  C182  1.389112 A    
C50   C54   1.400680 A    
O19   C114  1.285919 A    
O12   Zn2   2.018699 S    
O35   C122  1.285490 A    
C90   F14   1.357625 S    
C170  H58   1.083416 S    
C96   H36   1.083619 S    
O1    C1    1.284885 A    
C26   F26   1.382800 S    
N3    O53   1.301365 A    
C33   C37   1.541238 S    
C27   C31   1.540711 S    
C147  H43   1.083084 S    
C143  F19   1.357670 S    
C46   H18   1.083394 S    
C192  C200  1.401586 A    
C49   C53   1.400160 A    
C13   C17   1.526469 S    
C143  C152  1.400743 A    
C36   C40   1.541228 S    
O31   C120  1.285345 A    
C15   C19   1.526455 S    
C168  C172  1.388980 A    
C78   N2    1.439712 S    
C16   C36   1.544456 S    
O44   Zn11  2.014349 S    
O25   C115  1.272113 A    
C178  C187  1.403444 A    
C17   C29   1.539087 S    
Zn6   O30   2.016903 S    
C25   C29   1.540701 S    
C196  H72   1.083021 S    
C127  C139  1.459369 S    
O37   C123  1.287594 A    
C177  C183  1.389101 A    
N7    O62   1.301314 A    
C195  C198  1.402810 A    
C189  H65   1.083190 S    
N16   O80   1.299948 A    
C51   C87   1.461022 S    
C9    C37   1.525258 S    
C49   C85   1.461033 S    
C11   C15   1.524791 S    
C58   C62   1.403095 A    
C12   C40   1.525237 S    
C52   C88   1.461049 S    
O46   C127  1.286556 A    
C101  C105  1.396491 A    
C91   C95   1.387564 A    
C60   H28   1.082976 S    
N13   O73   1.300171 A    
C165  H53   1.082991 S    
C77   C81   1.400856 A    
C68   C72   1.386217 A    
O36   Zn12  2.017149 S    
C154  C163  1.402259 A    
C137  C151  1.462124 S    
O6    C2    1.283605 A    
O4    Zn2   2.013489 S    
C41   C61   1.403752 A    
O42   Zn9   2.014349 S    
C92   C112  1.397856 A    
C43   C63   1.403747 A    
C46   C50   1.399841 A    
C192  H68   1.083194 S    
C189  C199  1.401568 A    
C91   C111  1.397845 A    
C21   C25   1.543182 S    
C43   C47   1.389943 A    
C80   N4    1.440165 S    
C166  C175  1.403442 A    
N6    O60   1.301629 A    
O2    Zn1   2.013489 S    
C148  C150  1.403396 A    
O10   Zn1   2.018699 S    
C97   C101  1.416396 A    
C155  C159  1.389995 A    
C89   F13   1.357745 S    
C173  C187  1.459882 S    
C174  C188  1.459882 S    
N14   O76   1.299725 A    
C42   H14   1.083054 S    
N20   O87   1.301194 A    
C10   C22   1.536443 S    
C96   C100  1.403229 A    
O20   Zn8   2.015954 S    
C93   H33   1.083624 S    
O38   Zn10  2.014051 S    
O41   C123  1.287609 A    
C159  C162  1.402953 A    
C62   C124  1.462829 S    
N19   O85   1.301190 A    
C52   C56   1.400171 A    
C92   C96   1.387608 A    
C129  N9    1.437125 S    
N15   O77   1.300173 A    
C194  H70   1.083022 S    
N1    O49   1.301367 A    
O7    C3    1.285752 A    
C29   H5    1.110146 S    
N4    O56   1.301243 A    
C18   C22   1.540240 S    
C69   F5    1.358199 S    
C193  H69   1.083024 S    
N11   O70   1.301089 A    
Zn12  O48   2.016447 S    
C196  C198  1.402790 A    
C167  C176  1.403463 A    
C132  N12   1.437170 S    
O35   Zn11  2.016551 S    
C177  C187  1.403437 A    
C191  C195  1.388892 A    
C69   C73   1.401560 A    
O16   C8    1.274128 A    
C143  C145  1.390121 A    
C106  C110  1.399673 A    
C35   H11   1.110183 S    
C28   F28   1.382813 S    
C184  C186  1.401713 A    
C32   H8    1.110147 S    
C131  N11   1.437201 S    
C114  C162  1.463034 S    
O11   C7    1.273042 A    
C181  C185  1.401713 A    
O38   C124  1.288206 A    
O1    Zn1   2.014056 S    
C13   F1    1.382841 S    
C76   C80   1.414149 A    
C15   F3    1.382841 S    
C28   C40   1.531514 S    
C13   C33   1.544434 S    
C15   C35   1.544399 S    
O42   C124  1.287286 A    
C16   C20   1.526496 S    
N18   O84   1.301196 A    
C149  C163  1.466704 S    
C150  C164  1.466689 S    
O11   Zn2   2.019284 S    
C19   C23   1.539777 S    
C20   C32   1.539003 S    
O26   C116  1.271088 A    
C170  C173  1.399824 A    
C138  C152  1.462143 S    
C70   C74   1.404121 A    
C92   F16   1.357742 S    
C94   C98   1.399663 A    
C5    C37   1.435968 S    
C158  H50   1.083017 S    
N3    O54   1.301244 A    
C79   C83   1.400850 A    
O6    Zn3   2.013296 S    
C184  H64   1.083224 S    
C8    C40   1.436038 S    
C12   C24   1.538085 S    
C130  N10   1.437159 S    
C178  C184  1.389112 A    
C30   H6    1.110114 S    
C66   H30   1.083658 S    
C183  C186  1.401712 A    
C177  F21   1.357891 S    
N2    O52   1.301256 A    
C76   C112  1.458670 S    
O48   C128  1.286556 A    
C77   N1    1.440169 S    
C171  H59   1.083412 S    
C144  F20   1.357669 S    
C156  C160  1.390011 A    
O2    C2    1.282330 A    
Zn10  O46   2.016447 S    
N10   O67   1.301144 A    
C146  H42   1.083088 S    
C119  C197  1.460816 S    
N12   O72   1.301073 A    
C14   C18   1.525749 S    
C9    N13   1.457647 S    
O14   Zn3   2.019078 S    
C168  H56   1.082989 S    
C189  C193  1.388892 A    
C61   C123  1.462193 S    
C82   C86   1.402947 A    
C18   C116  1.433445 S    
C18   C30   1.538028 S    
C3    C99   1.459854 S    
C63   C125  1.462178 S    
N5    O57   1.301325 A    
C26   C30   1.540315 S    
O37   Zn9   2.014043 S    
O40   C126  1.287604 A    
C171  C174  1.399806 A    
C93   C97   1.403204 A    
N9    O65   1.301141 A    
Zn7   O31   2.016333 S    
C10   C38   1.526414 S    
C58   H26   1.083107 S    
C65   C85   1.397856 A    
C133  N17   1.438333 S    
C102  C106  1.398611 A    
C66   C70   1.386648 A    
C20   C118  1.433727 S    
O12   C8    1.272969 A    
C166  H54   1.082990 S    
C169  C173  1.399806 A    
C132  C140  1.410464 A    
O23   Zn7   2.018405 S    
C42   C62   1.403889 A    
C191  C200  1.401568 A    
C26   C38   1.531557 S    
C32   C36   1.553873 S    
C68   C88   1.397849 A    
