data_mof_unit_pretest_1008.cif
_audit_creation_date              2012-12-10T19:05:21-0500
_audit_creation_method            fapswitch 2.2
_symmetry_space_group_name_H-M    P1
_symmetry_Int_Tables_number       1
_space_group_crystal_system       triclinic
_cell_length_a                    9.541098
_cell_length_b                    10.826707
_cell_length_c                    17.308806
_cell_angle_alpha                 90.3486
_cell_angle_beta                  86.080664
_cell_angle_gamma                 90.204677
_cell_volume                      1783.7531412

loop_
_atom_site_label
_atom_site_type_symbol
_atom_type_description
_atom_site_fract_x
_atom_site_fract_y
_atom_site_fract_z
_atom_type_partial_charge
C1    C     C_R   0.500041 0.737660 0.501759 0.802017
C2    C     C_R   0.347184 0.502213 0.778310 -0.182620
C3    C     C_R   0.410691 0.502670 0.145188 -0.156690
C4    C     C_R   0.404046 0.504212 0.225385 -0.192280
C5    C     C_R   0.657998 0.495711 0.222611 -0.232395
C6    C     C_R   0.665711 0.494396 0.141762 0.014243
C7    C     C_R   0.541081 0.499306 0.102553 0.122149
C8    C     C_2   0.455181 0.564093 0.978476 -0.174793
C9    C     C_2   0.546388 0.499446 0.017501 -0.164516
C10   C     C_R   0.527276 0.500247 0.264898 -0.048083
C11   C     C_R   0.373470 0.935760 0.511396 0.125059
C12   C     C_R   0.481934 0.504055 0.649898 0.810920
C13   C     C_R   0.499592 0.870715 0.509899 -0.096712
C14   C     C_R   0.624968 0.936134 0.519137 -0.208827
C15   C     C_R   0.624796 0.064949 0.518716 -0.210061
C16   C     C_R   0.499260 0.129116 0.509028 -0.100435
C17   C     C_R   0.373343 0.062927 0.510722 0.138549
C18   C     C_3   0.257522 0.067147 0.456988 -0.481305
C19   C     C_3   0.256801 0.927070 0.458358 -0.455972
C20   C     C_R   0.929760 0.403361 0.468237 0.256949
C21   C     C_R   0.921153 0.588602 0.538408 -0.073539
C22   C     C_R   0.070057 0.588575 0.538450 -0.074856
C23   C     C_R   0.499784 0.262246 0.501298 0.804727
C24   C     C_R   0.077277 0.403695 0.467846 0.259475
C25   C     C_3   0.091570 0.362717 0.385306 -0.505734
C26   C     C_3   0.932749 0.360554 0.386303 -0.499687
C27   C     C_R   0.518186 0.500234 0.349850 0.801203
C28   C     C_R   0.473731 0.521152 0.733896 -0.085861
C29   C     C_R   0.592651 0.563428 0.769650 -0.217524
C30   C     C_R   0.587161 0.583551 0.849113 0.290921
C31   C     C_R   0.461718 0.558451 0.893996 0.102950
C32   C     C_R   0.341392 0.520844 0.858112 -0.180596
Cu1   Cu    Cu3+1 0.359330 0.500020 0.500000 0.947113
Cu2   Cu    Cu3+1 0.640670 0.499980 0.500000 0.946894
H1    H     H_    0.689724 0.583138 0.735728 0.179705
H2    H     H_    0.723896 0.888466 0.522771 0.160364
H3    H     H_    0.723663 0.113487 0.522166 0.164254
H4    H     H_    0.160098 0.108535 0.484812 0.198290
H5    H     H_    0.292907 0.105222 0.399384 0.194732
H6    H     H_    0.159521 0.887604 0.487616 0.194234
H7    H     H_    0.290108 0.884291 0.401488 0.203467
H8    H     H_    0.861968 0.661579 0.568333 0.137764
H9    H     H_    0.122359 0.661505 0.568440 0.143353
H10   H     H_    0.139110 0.434724 0.346495 0.212125
H11   H     H_    0.301885 0.508796 0.256181 0.148590
H12   H     H_    0.139012 0.269841 0.377734 0.193276
H13   H     H_    0.891266 0.430399 0.347400 0.214565
H14   H     H_    0.888285 0.266071 0.381024 0.196225
H15   H     H_    0.754117 0.493910 0.252217 0.144460
H16   H     H_    0.629203 0.447343 0.985914 0.183741
H17   H     H_    0.244118 0.502529 0.892224 0.168117
H18   H     H_    0.313128 0.502696 0.116702 0.145923
H19   H     H_    0.253644 0.471482 0.751605 0.168778
H20   H     H_    0.369871 0.615294 0.008314 0.159238
N1    N     N_R   0.852130 0.499070 0.499500 -0.186293
N2    N     N_R   0.148040 0.499110 0.499500 -0.187222
O1    O     O_R   0.381190 0.680360 0.500000 -0.584787
O2    O     O_R   0.618770 0.680320 0.499990 -0.590261
O3    O     O_R   0.367430 0.500040 0.613600 -0.583475
O4    O     O_R   0.605020 0.500000 0.613590 -0.584723
O5    O     O_R   0.381230 0.319680 0.500010 -0.577323
O6    O     O_R   0.618810 0.319640 0.500000 -0.585011
O7    O     O_R   0.394980 0.500000 0.386410 -0.587473
O8    O     O_R   0.632570 0.499960 0.386400 -0.584035
C33   C     C_1   0.802555 0.491270 0.100486 0.246762
N3    N     N_1   0.912195 0.488786 0.067469 -0.260305
Br1   Br    Br    0.751272 0.651568 0.892251 -0.527735

loop_
_geom_bond_atom_site_label_1
_geom_bond_atom_site_label_2
_ccdc_geom_bond_type
C10   C27   S    
C22   N2    A    
C18   H5    S    
C32   H17   S    
C6    C7    A    
C6    C33   S    
Cu1   O1    S    
C24   N2    A    
C29   H1    S    
C31   C32   A    
C26   H14   S    
C30   C31   A    
C3    H18   S    
C11   C19   S    
Cu1   N2    S    
Cu2   O8    S    
Cu1   Cu2   S    
C18   H4    S    
C21   N1    A    
Cu2   N1    S    
Cu1   O3    S    
C15   H3    S    
C13   C14   A    
Cu2   O4    S    
C11   C13   A    
C5    H15   S    
C29   C30   A    
C27   O7    A    
C26   H13   S    
C12   C28   S    
C20   N1    A    
C19   H6    S    
C25   H10   S    
Cu1   O5    S    
C28   C29   A    
C12   O3    A    
C17   C18   S    
C16   C23   S    
C3    C7    A    
C4    H11   S    
C23   O6    A    
C14   H2    S    
C5    C6    A    
Cu1   O7    S    
C1    C13   S    
C15   C16   A    
C19   H7    S    
C4    C10   A    
C3    C4    A    
C12   O4    A    
Cu2   O6    S    
C7    C9    S    
C5    C10   A    
C1    O2    A    
C24   C25   S    
C2    C32   A    
C33   N3    T    
C27   O8    A    
C23   O5    A    
C8    H20   S    
Cu2   O2    S    
C20   C24   A    
C14   C15   A    
C18   C19   S    
C2    C28   A    
C21   H8    S    
C25   C26   S    
C21   C22   A    
C8    C31   S    
C25   H12   S    
C22   H9    S    
C11   C17   A    
C9    H16   S    
C30   Br1   S    
C16   C17   A    
C8    C9    D    
C20   C26   S    
C2    H19   S    
C1    O1    A    
