data_mof_unit_pretest_1452.cif
_audit_creation_date              2012-10-26T19:32:16-0400
_audit_creation_method            fapswitch 2.2
_symmetry_space_group_name_H-M    P1
_symmetry_Int_Tables_number       1
_space_group_crystal_system       triclinic
_cell_length_a                    15.07556
_cell_length_b                    14.065915
_cell_length_c                    15.912861
_cell_angle_alpha                 90.915407
_cell_angle_beta                  93.159247
_cell_angle_gamma                 89.929048
_cell_volume                      3368.78826968

loop_
_atom_site_label
_atom_site_type_symbol
_atom_type_description
_atom_site_fract_x
_atom_site_fract_y
_atom_site_fract_z
_atom_type_partial_charge
C1    C     C_R   0.330284 0.500037 0.499416 0.531794
C2    C     C_R   0.190538 0.434876 0.548123 -0.140229
C3    C     C_R   0.233885 0.500031 0.498964 0.012096
C4    C     C_R   0.049198 0.499855 0.498876 0.137042
C5    C     C_R   0.903202 0.424489 0.458891 0.234667
C6    C     C_R   0.907639 0.575141 0.538989 0.232351
C7    C     C_R   0.499184 0.499195 0.340608 0.540647
C8    C     C_R   0.810685 0.425594 0.459357 -0.143811
C9    C     C_R   0.815109 0.574828 0.537402 -0.114664
C10   C     C_R   0.766653 0.500050 0.498732 -0.085653
C11   C     C_R   0.952207 0.499780 0.499029 -0.014193
C12   C     C_3   0.532559 0.596880 0.957345 0.470030
C13   C     C_R   0.551636 0.107882 0.558148 -0.118891
C14   C     C_R   0.564239 0.893830 0.545445 -0.114047
C15   C     C_R   0.557273 0.207881 0.554217 0.158173
C16   C     C_R   0.558900 0.794050 0.552331 0.151836
C17   C     C_R   0.442484 0.206736 0.445548 0.157371
C18   C     C_R   0.442255 0.791634 0.445876 0.164963
C19   C     C_R   0.447853 0.106565 0.440624 -0.121022
C20   C     C_R   0.437221 0.891837 0.450930 -0.117731
C21   C     C_R   0.500049 0.054309 0.498900 -0.005712
C22   C     C_R   0.500302 0.945798 0.498525 -0.006034
C23   C     C_3   0.532189 0.589624 0.055231 -0.156934
C24   C     C_R   0.669862 0.499958 0.499565 0.550509
C25   C     C_R   0.498932 0.500615 0.659474 0.542371
C26   C     C_3   0.394166 0.484271 0.046524 -0.101932
C27   C     C_3   0.549469 0.408428 0.049309 -0.091638
C28   C     C_3   0.545425 0.409495 0.949551 -0.118522
C29   C     C_3   0.392378 0.481602 0.946836 -0.102773
C30   C     C_1   0.494327 0.501712 0.748710 0.011970
C31   C     C_3   0.492935 0.493946 0.083385 -0.015774
C32   C     C_3   0.490548 0.500329 0.916460 0.050939
C33   C     C_3   0.630056 0.252713 0.611662 -0.222821
C34   C     C_1   0.490450 0.501724 0.824022 0.041746
C35   C     C_3   0.723157 0.238343 0.577896 -0.290342
C36   C     C_3   0.765918 0.143195 0.601655 -0.421937
C37   C     C_3   0.619850 0.751653 0.620834 -0.237232
C38   C     C_3   0.587349 0.772969 0.709238 -0.261508
C39   C     C_3   0.613642 0.871467 0.744345 -0.422951
C40   C     C_3   0.369017 0.250585 0.389580 -0.218591
C41   C     C_3   0.277202 0.242346 0.427041 -0.289253
C42   C     C_3   0.232647 0.145879 0.410133 -0.434696
C43   C     C_3   0.384813 0.746304 0.374971 -0.214706
C44   C     C_3   0.427858 0.753262 0.289609 -0.291519
C45   C     C_1   0.495020 0.494124 0.175871 -0.083858
C46   C     C_3   0.412010 0.848671 0.246682 -0.438443
C47   C     C_3   0.643605 0.399620 0.096343 -0.229427
C48   C     C_3   0.645569 0.321711 0.163370 -0.347320
C49   C     C_3   0.732943 0.322226 0.216390 -0.392856
C50   C     C_3   0.328667 0.555736 0.088779 -0.231104
C51   C     C_3   0.265174 0.504771 0.145708 -0.329063
C52   C     C_3   0.206946 0.575125 0.191729 -0.440431
C53   C     C_3   0.630467 0.379048 0.903037 -0.232459
C54   C     C_3   0.649793 0.271586 0.908986 -0.342626
C55   C     C_3   0.737133 0.245953 0.869959 -0.444386
C56   C     C_1   0.497012 0.496704 0.251258 -0.052952
C57   C     C_3   0.308266 0.526426 0.900559 -0.237603
C58   C     C_3   0.287508 0.492256 0.809046 -0.323377
C59   C     C_3   0.188895 0.503885 0.783812 -0.424717
C60   C     C_R   0.092365 0.564045 0.448607 -0.020268
C61   C     C_R   0.098428 0.435716 0.549036 -0.031396
C62   C     C_R   0.184654 0.565007 0.449502 -0.116559
Cu1   Cu    Cu3+1 0.499990 0.596430 0.500000 0.927903
Cu2   Cu    Cu3+1 0.499990 0.403570 0.500000 0.898406
H1    H     H_    0.377221 0.405803 0.931029 0.099657
H2    H     H_    0.512842 0.342778 0.065128 0.117625
H3    H     H_    0.495918 0.649745 0.083216 0.147486
H4    H     H_    0.599286 0.600183 0.085667 0.154151
H5    H     H_    0.054528 0.613208 0.409053 0.142299
H6    H     H_    0.065449 0.386810 0.588927 0.141149
H7    H     H_    0.217424 0.615101 0.410606 0.094997
H8    H     H_    0.228048 0.385172 0.587403 0.108635
H9    H     H_    0.761608 0.130008 0.669945 0.142610
H10   H     H_    0.733959 0.084051 0.564403 0.159573
H11   H     H_    0.837140 0.144536 0.587216 0.190766
H12   H     H_    0.502358 0.347822 0.930405 0.101989
H13   H     H_    0.719972 0.244738 0.508337 0.192404
H14   H     H_    0.767479 0.295749 0.604550 0.159816
H15   H     H_    0.621561 0.328860 0.621192 0.197723
H16   H     H_    0.627608 0.223335 0.675978 0.099765
H17   H     H_    0.684351 0.887073 0.733905 0.155738
H18   H     H_    0.570371 0.927177 0.715357 0.138634
H19   H     H_    0.604885 0.874173 0.813075 0.222401
H20   H     H_    0.514091 0.765002 0.708493 0.218371
H21   H     H_    0.616886 0.719665 0.752971 0.245433
H22   H     H_    0.625752 0.674739 0.615189 0.198290
H23   H     H_    0.772564 0.369160 0.427707 0.159945
H24   H     H_    0.688657 0.778564 0.615734 0.138472
H25   H     H_    0.232673 0.126209 0.342265 0.148272
H26   H     H_    0.266628 0.089903 0.448235 0.155443
H27   H     H_    0.162668 0.149763 0.428379 0.196107
H28   H     H_    0.282863 0.256238 0.496034 0.188150
H29   H     H_    0.232854 0.297752 0.398523 0.165987
H30   H     H_    0.380112 0.325465 0.377451 0.191444
H31   H     H_    0.367527 0.216712 0.325864 0.097583
H32   H     H_    0.340271 0.867143 0.243693 0.153172
H33   H     H_    0.450726 0.905897 0.280443 0.154281
H34   H     H_    0.780601 0.632284 0.567731 0.162472
H35   H     H_    0.434385 0.843880 0.181405 0.180454
H36   H     H_    0.500520 0.739760 0.297007 0.196107
H37   H     H_    0.398919 0.696930 0.247117 0.140347
H38   H     H_    0.370554 0.671646 0.385317 0.184318
H39   H     H_    0.317944 0.780022 0.371323 0.103888
H40   H     H_    0.789709 0.310232 0.175858 0.184399
H41   H     H_    0.741896 0.391173 0.250848 0.173255
H42   H     H_    0.731915 0.264434 0.263029 0.186821
H43   H     H_    0.590441 0.331703 0.206069 0.179057
H44   H     H_    0.636929 0.250952 0.131909 0.155789
H45   H     H_    0.589643 0.073035 0.608099 0.091711
H46   H     H_    0.697141 0.382425 0.054328 0.174975
H47   H     H_    0.663736 0.467709 0.127707 0.185147
H48   H     H_    0.248636 0.623199 0.233407 0.140887
H49   H     H_    0.166594 0.618135 0.145837 0.170575
H50   H     H_    0.161391 0.535645 0.231172 0.170932
H51   H     H_    0.221724 0.455506 0.106771 0.163974
H52   H     H_    0.303945 0.462426 0.193348 0.162050
H53   H     H_    0.365714 0.609588 0.127809 0.166988
H54   H     H_    0.288068 0.598198 0.043501 0.184226
H55   H     H_    0.735376 0.267363 0.802993 0.155493
H56   H     H_    0.618723 0.929859 0.579067 0.099431
H57   H     H_    0.793531 0.282185 0.905036 0.169533
H58   H     H_    0.747837 0.167933 0.872907 0.155450
H59   H     H_    0.653104 0.248645 0.975427 0.171462
H60   H     H_    0.595318 0.231104 0.874800 0.158394
H61   H     H_    0.621636 0.393433 0.834883 0.167427
H62   H     H_    0.690206 0.418723 0.924814 0.239209
H63   H     H_    0.148140 0.457161 0.822009 0.159188
H64   H     H_    0.168186 0.579005 0.792881 0.188299
H65   H     H_    0.176550 0.483806 0.716655 0.174551
H66   H     H_    0.324619 0.536045 0.765616 0.198899
H67   H     H_    0.408548 0.070653 0.391178 0.092169
H68   H     H_    0.305936 0.416345 0.800436 0.152688
H69   H     H_    0.250474 0.504312 0.936186 0.136742
H70   H     H_    0.308454 0.604395 0.901249 0.236633
H71   H     H_    0.387555 0.747296 0.816548 0.360496
H72   H     H_    0.735854 0.734066 0.907765 0.368109
H73   H     H_    0.068475 0.311612 0.330746 0.360411
H74   H     H_    0.089556 0.686478 0.665401 0.368541
H75   H     H_    0.384671 0.926360 0.414182 0.093366
H76   H     H_    0.372692 0.411861 0.064650 0.115732
N1    N     N_R   0.500020 0.258690 0.500000 -0.216591
N2    N     N_R   0.500020 0.741310 0.500000 -0.214897
O1    O     O_R   0.371450 0.581430 0.500010 -0.510840
O2    O     O_2   0.522117 0.791934 0.935345 -0.223687
O3    O     O_3   0.429176 0.693310 0.824841 -0.577376
O4    O     O_2   0.712280 0.565979 0.989557 -0.349255
O5    O     O_2   0.662745 0.579941 0.841694 -0.349736
O6    O     O_3   0.678052 0.731245 0.934364 -0.461697
O7    O     O_2   0.995105 0.262333 0.472997 -0.315342
O8    O     O_2   0.889215 0.273962 0.351620 -0.304298
O9    O     O_3   0.036432 0.369117 0.349214 -0.543255
O10   O     O_2   0.993906 0.739853 0.528639 -0.291703
O11   O     O_2   0.905476 0.720085 0.651706 -0.276397
O12   O     O_R   0.371450 0.418570 0.500010 -0.519191
O13   O     O_3   0.055061 0.629053 0.647514 -0.547371
O14   O     O_R   0.500000 0.581470 0.379440 -0.509488
O15   O     O_R   0.500000 0.418530 0.379440 -0.515881
O16   O     O_R   0.628540 0.581440 0.499990 -0.510229
O17   O     O_R   0.628540 0.418560 0.499990 -0.514026
O18   O     O_R   0.499990 0.581400 0.620560 -0.491717
O19   O     O_R   0.499990 0.418600 0.620560 -0.526255
O20   O     O_2   0.390516 0.716602 0.980338 -0.377147
S1    S     S_3+6 0.467765 0.702785 0.925703 -0.003424
S2    S     S_3+6 0.648512 0.616007 0.929284 0.004055
S3    S     S_3+6 0.955456 0.328213 0.407640 -0.029124
S4    S     S_3+6 0.965094 0.670237 0.592407 -0.004945

loop_
_geom_bond_atom_site_label_1
_geom_bond_atom_site_label_2
_ccdc_geom_bond_type
H74   O13   S    
C61   H6    S    
C46   H35   S    
C6    S4    S    
C9    H34   S    
O11   S4    D    
C50   H53   S    
C41   C42   S    
C37   H24   S    
C35   C36   S    
C54   H59   S    
C6    C9    A    
C55   H57   S    
C24   O17   A    
C55   H55   S    
C53   C54   S    
C36   H10   S    
C12   C23   S    
C7    C56   S    
C20   H75   S    
C60   C62   A    
C19   C21   A    
Cu1   O14   S    
C5    C11   A    
C29   C32   S    
C26   H76   S    
O5    S2    D    
C26   C50   S    
C38   C39   S    
C24   O16   A    
C48   H43   S    
Cu2   N1    S    
C52   H48   S    
O13   S4    S    
C59   H63   S    
Cu2   O12   S    
C17   N1    A    
C42   H27   S    
C23   H3    S    
C13   H45   S    
C17   C19   A    
C15   N1    A    
C41   H29   S    
C7    O14   A    
C45   C56   T    
C25   O19   A    
H71   O3    S    
Cu2   O15   S    
C5    S3    S    
C9    C10   A    
C2    C61   A    
C16   C37   S    
C55   H58   S    
C26   C31   S    
C21   C22   S    
C12   C32   S    
C57   H69   S    
Cu1   O18   S    
C49   H40   S    
C2    H8    S    
C44   C46   S    
C19   H67   S    
C30   C34   T    
C38   H21   S    
C27   C31   S    
C51   C52   S    
O6    S2    S    
C37   H22   S    
C28   C32   S    
O7    S3    D    
C39   H17   S    
C36   H9    S    
C58   H68   S    
C6    C11   A    
C33   H15   S    
C49   H41   S    
O3    S1    S    
C10   C24   S    
C58   C59   S    
C52   H49   S    
O8    S3    D    
O4    S2    D    
C4    C61   A    
C35   H13   S    
C51   H51   S    
C1    C3    S    
C17   C40   S    
C32   C34   S    
C23   H4    S    
C16   N2    A    
C43   C44   S    
C47   H47   S    
C37   C38   S    
C1    O1    A    
C36   H11   S    
C12   S2    S    
C47   C48   S    
C18   N2    A    
C28   C53   S    
C4    C60   A    
C25   O18   A    
C50   C51   S    
C13   C21   A    
C4    C11   S    
H72   O6    S    
C53   H61   S    
C29   H1    S    
C40   C41   S    
C46   H33   S    
C20   C22   A    
C14   H56   S    
C13   C15   A    
O2    S1    D    
C14   C16   A    
C57   H70   S    
C40   H31   S    
C28   H12   S    
C40   H30   S    
O20   S1    D    
C3    C62   A    
C27   C47   S    
C25   C30   S    
C54   H60   S    
C54   C55   S    
C59   H65   S    
C38   H20   S    
C50   H54   S    
C39   H18   S    
C29   C57   S    
Cu2   O19   S    
C5    C8    A    
O10   S4    D    
C44   H37   S    
C33   H16   S    
C49   H42   S    
C7    O15   A    
C52   H50   S    
C47   H46   S    
C35   H14   S    
C51   H52   S    
C42   H25   S    
C8    H23   S    
C2    C3    A    
C59   H64   S    
C43   H38   S    
C39   H19   S    
C27   H2    S    
O9    S3    S    
C18   C43   S    
C12   S1    S    
C44   H36   S    
C14   C22   A    
C57   C58   S    
C48   H44   S    
C60   H5    S    
C58   H66   S    
C48   C49   S    
Cu2   O17   S    
C33   C35   S    
Cu1   N2    S    
C62   H7    S    
C18   C20   A    
C1    O12   A    
C43   H39   S    
C53   H62   S    
Cu1   Cu2   S    
C41   H28   S    
C46   H32   S    
C26   C29   S    
C8    C10   A    
C31   C45   S    
C27   C28   S    
Cu1   O1    S    
H73   O9    S    
Cu1   O16   S    
C42   H26   S    
C15   C33   S    
C23   C31   S    
