data_mof_unit_pretest_1431.cif
_audit_creation_date              2012-12-10T18:37:05-0500
_audit_creation_method            fapswitch 2.2
_symmetry_space_group_name_H-M    P1
_symmetry_Int_Tables_number       1
_space_group_crystal_system       triclinic
_cell_length_a                    14.961603
_cell_length_b                    15.424355
_cell_length_c                    23.412431
_cell_angle_alpha                 89.90395
_cell_angle_beta                  105.072114
_cell_angle_gamma                 81.946663
_cell_volume                      5161.53808617

loop_
_atom_site_label
_atom_site_type_symbol
_atom_type_description
_atom_site_fract_x
_atom_site_fract_y
_atom_site_fract_z
_atom_type_partial_charge
C1    C     C_R   0.441159 0.662916 0.490359 0.920464
C2    C     C_R   0.558886 0.337390 0.509400 0.954713
C3    C     C_R   0.588573 0.506497 0.775921 -0.176439
C4    C     C_R   0.567770 0.523206 0.247800 -0.193524
C5    C     C_R   0.587448 0.504901 0.716426 -0.198050
C6    C     C_R   0.570757 0.523000 0.307472 -0.223440
C7    C     C_R   0.502968 0.502560 0.673274 -0.092687
C8    C     C_R   0.495360 0.499859 0.326402 -0.090233
C9    C     C_R   0.419640 0.502310 0.690211 -0.319952
C10   C     C_R   0.416803 0.477154 0.284851 -0.344464
C11   C     C_R   0.420851 0.502433 0.749964 0.525750
C12   C     C_R   0.412888 0.479057 0.224603 0.532171
C13   C     C_R   0.505502 0.505761 0.792516 0.233433
C14   C     C_R   0.489494 0.500793 0.206605 0.238047
C15   C     C_R   0.403885 0.757276 0.486771 -0.319499
C16   C     C_R   0.594973 0.244416 0.524915 -0.320356
C17   C     C_R   0.273265 0.877201 0.474246 -0.133197
C18   C     C_R   0.700518 0.132308 0.593460 -0.126945
C19   C     C_R   0.306561 0.788040 0.468676 0.337042
C20   C     C_R   0.682057 0.216934 0.566190 0.331582
C21   C     C_R   0.467243 0.817186 0.504419 0.341739
C22   C     C_R   0.532531 0.184599 0.505708 0.350647
C23   C     C_R   0.501079 0.500649 0.610692 0.901138
C24   C     C_R   0.498694 0.499735 0.389252 0.865574
C25   C     C_R   0.434955 0.903695 0.515110 -0.041814
C26   C     C_R   0.544808 0.104543 0.537104 -0.036923
C27   C     C_R   0.338386 0.936135 0.494404 -0.031912
C28   C     C_R   0.632620 0.075029 0.577650 -0.040751
C29   C     C_R   0.498763 0.960925 0.540678 0.092546
C30   C     C_R   0.473443 0.050810 0.526680 0.090298
C31   C     C_R   0.377640 0.083888 0.504709 -0.153998
C32   C     C_R   0.586333 0.931027 0.580199 -0.143649
C33   C     C_R   0.310808 0.027419 0.491003 -0.161436
C34   C     C_R   0.651151 0.987809 0.599745 -0.159214
C35   C     C_R   0.843599 0.636156 0.588985 -0.318760
C36   C     C_R   0.155452 0.365960 0.409714 -0.321013
C37   C     C_R   0.754816 0.612251 0.575228 0.052532
C38   C     C_R   0.245798 0.386069 0.425933 0.017752
C39   C     C_R   0.791758 0.514976 0.503529 -0.088942
C40   C     C_R   0.206000 0.490642 0.492845 -0.050927
C41   C     C_R   0.883777 0.534905 0.516196 -0.007184
C42   C     C_R   0.112890 0.473401 0.478421 -0.006325
C43   C     C_R   0.908667 0.597256 0.559849 0.165600
C44   C     C_R   0.088531 0.409603 0.435726 0.178585
C45   C     C_R   0.512985 0.423752 0.121471 0.560913
C46   C     C_R   0.481318 0.582889 0.877506 0.566887
C47   C     C_R   0.951601 0.494262 0.488153 0.085673
C48   C     C_R   0.044113 0.516480 0.504838 0.078360
C49   C     C_R   0.064964 0.580370 0.547674 -0.210401
C50   C     C_R   0.930351 0.431358 0.444654 -0.251593
C51   C     C_R   0.998314 0.619824 0.574493 -0.188758
C52   C     C_R   0.997766 0.389867 0.419201 -0.202305
C53   C     C_R   0.465004 0.578907 0.113767 0.502340
C54   C     C_R   0.530036 0.427841 0.885372 0.504034
C55   C     C_R   0.467669 0.581474 0.054604 -0.014901
C56   C     C_R   0.526300 0.425136 0.944323 -0.016733
C57   C     C_R   0.494414 0.502729 0.029000 -0.021405
C58   C     C_R   0.499126 0.503821 0.969838 -0.020612
C59   C     C_R   0.516858 0.422951 0.062500 -0.033559
C60   C     C_R   0.476708 0.583600 0.936338 -0.032887
C61   C     C_R   0.445261 0.660567 0.020828 -0.158175
C62   C     C_R   0.548228 0.345974 0.978001 -0.156115
C63   C     C_R   0.449727 0.661619 0.962170 -0.156087
C64   C     C_R   0.543487 0.344882 0.036601 -0.159230
H1    H     H_    0.424473 0.721827 0.039614 0.192222
H2    H     H_    0.569064 0.284720 0.959226 0.194283
H3    H     H_    0.352885 0.153502 0.500461 0.200226
H4    H     H_    0.604178 0.864153 0.597914 0.189525
H5    H     H_    0.017520 0.667887 0.607517 0.159044
H6    H     H_    0.978639 0.341546 0.386355 0.148486
H7    H     H_    0.231597 0.538241 0.524057 0.147768
H8    H     H_    0.765488 0.469282 0.471045 0.129808
H9    H     H_    0.298202 0.353610 0.405874 0.165012
H10   H     H_    0.703679 0.641468 0.597449 0.152870
H11   H     H_    0.861454 0.684016 0.622335 0.153547
H12   H     H_    0.137969 0.317086 0.377047 0.150828
H13   H     H_    0.132545 0.601463 0.562051 0.153845
H14   H     H_    0.862175 0.411790 0.429247 0.137017
H15   H     H_    0.432052 0.723629 0.937207 0.194036
H16   H     H_    0.561014 0.282848 0.061532 0.192176
H17   H     H_    0.653824 0.508143 0.809217 0.161350
H18   H     H_    0.626339 0.540574 0.233381 0.157597
H19   H     H_    0.652506 0.505078 0.704276 0.178241
H20   H     H_    0.632097 0.540786 0.338657 0.172485
H21   H     H_    0.353532 0.502719 0.657312 0.169841
H22   H     H_    0.358721 0.457745 0.298870 0.169554
H23   H     H_    0.238496 0.056335 0.473891 0.175177
H24   H     H_    0.717507 0.961131 0.629694 0.172720
N1    N     N_R   0.487985 0.500987 0.145630 -0.338723
N2    N     N_R   0.507195 0.505769 0.853521 -0.341409
N3    N     N_R   0.731690 0.552740 0.533440 -0.102861
N4    N     N_R   0.268310 0.447260 0.466560 -0.110539
O1    O     O_R   0.383120 0.605620 0.483150 -0.580402
O2    O     O_R   0.616880 0.394380 0.516850 -0.594795
O3    O     O_R   0.531890 0.639510 0.504600 -0.561759
O4    O     O_R   0.468110 0.360490 0.495400 -0.566233
O5    O     O_R   0.425590 0.483070 0.573110 -0.627890
O6    O     O_R   0.574410 0.516930 0.426890 -0.636805
O7    O     O_R   0.574360 0.516970 0.594570 -0.619533
O8    O     O_R   0.425640 0.483030 0.405430 -0.633119
O9    O     O_2   0.534821 0.348388 0.154712 -0.549971
O10   O     O_2   0.459712 0.658263 0.844289 -0.540645
O11   O     O_2   0.440212 0.653445 0.139516 -0.581392
O12   O     O_2   0.555321 0.353354 0.859733 -0.565626
Zn1   Zn    Zn3+2 0.400660 0.477370 0.485670 0.963321
Zn2   Zn    Zn3+2 0.599340 0.522630 0.514330 0.964218
C65   C     C_2   0.170743 0.906610 0.461925 0.957465
O13   O     O_2   0.116842 0.882694 0.418082 -0.622358
O14   O     O_R   0.135680 0.960254 0.501580 -0.802489
H25   H     H_    0.065030 0.975542 0.488736 0.343746
C66   C     C_2   0.787048 0.107832 0.642067 0.972277
O15   O     O_2   0.863492 0.115047 0.634486 -0.630745
O16   O     O_R   0.780609 0.077396 0.696941 -0.794536
H26   H     H_    0.844002 0.062976 0.726543 0.348142
O17   O     O_3   0.338959 0.505264 0.767318 -0.603142
C67   C     C_3   0.308496 0.422447 0.759702 0.073707
H27   H     H_    0.365453 0.368965 0.781631 0.173296
H28   H     H_    0.283365 0.409642 0.711831 0.145326
C68   C     C_3   0.227710 0.421054 0.787731 -0.765360
H29   H     H_    0.168919 0.472753 0.766309 0.259555
H30   H     H_    0.202932 0.356244 0.781995 0.211745
H31   H     H_    0.251003 0.432789 0.835781 0.258049
O18   O     O_3   0.337364 0.454480 0.183244 -0.598737
C69   C     C_3   0.260817 0.522324 0.175091 0.068560
H32   H     H_    0.280423 0.586568 0.164732 0.169717
H33   H     H_    0.233959 0.527641 0.215245 0.136107
C70   C     C_3   0.182458 0.501783 0.123289 -0.768734
H34   H     H_    0.160100 0.438645 0.132412 0.259726
H35   H     H_    0.121665 0.554616 0.116450 0.205399
H36   H     H_    0.206945 0.497078 0.082340 0.259810
O19   O     O_3   0.459389 0.205245 0.455327 -0.611479
C71   C     C_3   0.490433 0.176146 0.405692 0.088532
H37   H     H_    0.505496 0.103241 0.407149 0.142065
H38   H     H_    0.554330 0.204090 0.403447 0.128448
C72   C     C_3   0.414023 0.206068 0.349640 -0.796391
H39   H     H_    0.400598 0.278787 0.345747 0.248875
H40   H     H_    0.436308 0.180907 0.310339 0.223812
H41   H     H_    0.348511 0.180813 0.350798 0.249377
O20   O     O_3   0.561119 0.792640 0.507228 -0.601305
C73   C     C_3   0.576021 0.813332 0.451918 0.120636
H42   H     H_    0.562066 0.885497 0.442552 0.130637
H43   H     H_    0.530587 0.780584 0.415410 0.127243
C74   C     C_3   0.677464 0.781548 0.453228 -0.780521
H44   H     H_    0.692013 0.709052 0.458893 0.262616
H45   H     H_    0.691095 0.801072 0.410960 0.203109
H46   H     H_    0.724892 0.810784 0.490399 0.254436
O21   O     O_3   0.745367 0.275025 0.584916 -0.566827
C75   C     C_3   0.804924 0.272139 0.546641 0.155321
H47   H     H_    0.768845 0.310629 0.504862 0.125938
H48   H     H_    0.828116 0.204025 0.535085 0.146136
C76   C     C_3   0.891913 0.311702 0.577048 -0.750792
H49   H     H_    0.932069 0.271174 0.617146 0.279645
H50   H     H_    0.937183 0.314073 0.546459 0.201585
H51   H     H_    0.871903 0.379070 0.590493 0.253641
O22   O     O_3   0.243155 0.730894 0.447086 -0.565638
C77   C     C_3   0.237998 0.719268 0.386402 0.170825
H52   H     H_    0.306955 0.690564 0.379760 0.106205
H53   H     H_    0.214177 0.782677 0.360463 0.154012
C78   C     C_3   0.168247 0.656989 0.361876 -0.760658
H54   H     H_    0.161698 0.649471 0.313857 0.184649
H55   H     H_    0.192600 0.591711 0.384891 0.252516
H56   H     H_    0.098610 0.683121 0.368243 0.269905

loop_
_geom_bond_atom_site_label_1
_geom_bond_atom_site_label_2
_ccdc_geom_bond_type
C74   H46   S    
C23   O7    A    
O4    Zn1   S    
C52   H6    S    
C40   H7    S    
C13   N2    S    
C72   H41   S    
C19   O22   S    
O21   C75   S    
C73   C74   S    
C37   H10   S    
O18   C69   S    
C39   C41   A    
C63   H15   S    
C27   C33   A    
C15   C19   A    
C46   O10   S    
C35   H11   S    
O8    Zn1   S    
C73   H42   S    
C60   C63   A    
C24   O6    A    
C54   O12   S    
C77   H52   S    
C35   C37   A    
C73   H43   S    
C54   N2    A    
C29   C32   A    
C17   C65   S    
C30   C31   A    
C5    H19   S    
C57   C59   A    
C58   C60   A    
O17   C67   S    
C38   N4    A    
C67   H27   S    
C74   H45   S    
C76   H51   S    
C61   C63   A    
C62   C64   A    
C36   H12   S    
O1    Zn1   S    
C64   H16   S    
C10   H22   S    
C78   H54   S    
C49   H13   S    
C71   H37   S    
C49   C51   A    
C3    H17   S    
C50   C52   A    
C76   H49   S    
C78   H55   S    
C1    C15   S    
C35   C43   A    
C3    C13   A    
C16   C20   A    
C32   H4    S    
C9    H21   S    
C44   C52   A    
C68   H30   S    
C28   C34   A    
C72   H40   S    
C41   C43   A    
N3    Zn2   S    
C42   C44   A    
C50   H14   S    
C39   N3    A    
C41   C47   A    
C47   C50   A    
C10   C12   A    
C53   C55   A    
C25   C29   A    
C54   C56   A    
C78   H56   S    
C22   O19   S    
C6    H20   S    
C62   H2    S    
C17   C27   A    
C72   H39   S    
C75   C76   S    
C18   C28   A    
C75   H47   S    
C4    C6    A    
C5    C7    A    
C37   N3    A    
C17   C19   A    
C6    C8    A    
C1    O1    A    
C32   C34   A    
C31   H3    S    
C70   H35   S    
C14   N1    S    
C29   C30   A    
O3    Zn2   S    
C11   O17   S    
C47   C48   A    
C2    O2    A    
C1    O3    A    
C31   C33   A    
C59   C64   A    
C20   O21   S    
C66   O16   S    
C42   C48   A    
C40   N4    A    
C68   H29   S    
C9    C11   A    
C39   H8    S    
C45   O9    S    
C67   H28   S    
C69   C70   S    
C8    C10   A    
C48   C49   A    
C23   O5    A    
C12   C14   A    
C26   C30   A    
C55   C57   A    
C53   N1    A    
C56   C62   A    
C36   C44   A    
C21   O20   S    
C65   O13   D    
C70   H34   S    
C45   N1    A    
C69   H33   S    
O16   H26   S    
C68   H31   S    
C7    C9    A    
O7    Zn2   S    
C21   C25   A    
C45   C59   A    
C16   C22   A    
C66   O15   D    
C46   C60   A    
C24   O8    A    
C77   C78   S    
C75   H48   S    
C40   C42   A    
C3    C5    A    
O20   C73   S    
C46   N2    A    
C2    C16   S    
C25   C27   A    
C18   C66   S    
C26   C28   A    
O6    Zn2   S    
C67   C68   S    
C2    O4    A    
C33   H23   S    
C70   H36   S    
O5    Zn1   S    
O14   H25   S    
C36   C38   A    
C11   C13   A    
C43   C51   A    
C57   C58   A    
C65   O14   S    
C12   O18   S    
C53   O11   S    
C71   C72   S    
C7    C23   S    
C55   C61   A    
C77   H53   S    
C8    C24   S    
C56   C58   A    
C18   C20   A    
C76   H50   S    
C4    C14   A    
O19   C71   S    
O2    Zn2   S    
C34   H24   S    
C61   H1    S    
N4    Zn1   S    
C15   C21   A    
C4    H18   S    
C71   H38   S    
C22   C26   A    
O22   C77   S    
C51   H5    S    
C74   H44   S    
C69   H32   S    
C38   H9    S    
