data_mof_unit_pretest_1706.cif
_audit_creation_date              2012-12-10T20:47:36-0500
_audit_creation_method            fapswitch 2.2
_symmetry_space_group_name_H-M    P1
_symmetry_Int_Tables_number       1
_space_group_crystal_system       triclinic
_cell_length_a                    17.874418
_cell_length_b                    19.150326
_cell_length_c                    19.243219
_cell_angle_alpha                 94.316183
_cell_angle_beta                  99.06668
_cell_angle_gamma                 103.737455
_cell_volume                      6274.85358217

loop_
_atom_site_label
_atom_site_type_symbol
_atom_type_description
_atom_site_fract_x
_atom_site_fract_y
_atom_site_fract_z
_atom_type_partial_charge
C1    C     C_R   0.492765 0.505357 0.688250 0.590201
C2    C     C_R   0.923049 0.456906 0.418041 0.232126
C3    C     C_R   0.960603 0.406959 0.391628 0.294901
C4    C     C_R   0.508343 0.495022 0.312277 0.583692
C5    C     C_R   0.040089 0.414130 0.418166 -0.034300
C6    C     C_R   0.083847 0.477817 0.462222 0.017234
C7    C     C_R   0.078024 0.361575 0.397851 -0.124801
C8    C     C_R   0.159088 0.375287 0.415556 -0.167245
C9    C     C_R   0.165605 0.497664 0.464430 0.285188
C10   C     C_R   0.515750 0.500759 0.237706 -0.031015
C11   C     C_R   0.447715 0.493341 0.186272 0.207799
C12   C     C_R   0.840669 0.622427 0.599897 -0.110344
C13   C     C_R   0.454390 0.501198 0.115372 0.237442
C14   C     C_R   0.529106 0.521394 0.096743 0.158494
C15   C     C_R   0.596636 0.532277 0.148471 0.225836
C16   C     C_R   0.490874 0.308676 0.490704 0.524753
C17   C     C_R   0.590394 0.520979 0.218699 0.196330
C18   C     C_R   0.504128 0.430349 0.864475 0.256606
C19   C     C_R   0.498366 0.434694 0.791707 0.179213
C20   C     C_R   0.508901 0.491708 0.911199 0.165154
C21   C     C_R   0.497830 0.501164 0.764757 -0.039720
C22   C     C_R   0.504207 0.563336 0.811503 0.167344
C23   C     C_R   0.838500 0.520662 0.516715 -0.055001
C24   C     C_R   0.512182 0.559557 0.884938 0.267085
C25   C     C_R   0.514213 0.769110 0.511088 -0.037599
C26   C     C_R   0.523207 0.804181 0.449943 0.165203
C27   C     C_R   0.524282 0.877921 0.451391 0.261831
C28   C     C_R   0.508760 0.691270 0.508894 0.588374
C29   C     C_R   0.523965 0.917887 0.515865 0.167749
C30   C     C_R   0.519480 0.883876 0.577645 0.237279
C31   C     C_R   0.509937 0.808712 0.574408 0.196519
C32   C     C_R   0.547018 0.131130 0.474156 0.242073
C33   C     C_R   0.550252 0.204973 0.476742 -0.183945
C34   C     C_R   0.920054 0.543234 0.521298 0.036859
C35   C     C_R   0.478024 0.081886 0.484019 0.193963
C36   C     C_R   0.484727 0.230322 0.486127 -0.043690
C37   C     C_R   0.413937 0.180390 0.490942 0.267056
C38   C     C_R   0.411409 0.106579 0.490824 0.225057
C39   C     C_R   0.288074 0.459684 0.459862 0.535110
C40   C     C_R   0.712325 0.540314 0.539822 0.517103
C41   C     C_R   0.798355 0.561235 0.553135 0.024279
C42   C     C_R   0.203103 0.444387 0.445690 0.055968
C43   C     C_R   0.922170 0.640563 0.611944 -0.114804
C44   C     C_3   0.577584 0.359379 0.914513 -0.049367
C45   C     C_R   0.962102 0.600026 0.574506 0.010471
C46   C     C_3   0.592851 0.663031 0.946470 -0.036844
C47   C     C_3   0.344930 0.535330 0.213025 -0.028923
C48   C     C_3   0.615714 0.101385 0.392170 -0.057157
C49   C     C_3   0.593432 0.945465 0.680113 -0.048384
C50   C     C_3   0.417647 0.753000 0.634044 -0.048444
C51   C     C_3   0.305640 0.206111 0.431426 -0.057294
C52   C     C_3   0.461188 0.898900 0.345736 -0.059880
C53   C     C_3   0.935203 0.371587 0.272704 -0.059663
C54   C     C_3   0.201942 0.619936 0.641719 -0.063859
C55   C     C_R   0.961171 0.506602 0.479517 -0.052252
C56   C     C_R   0.043880 0.518941 0.500731 0.030637
C57   C     C_R   0.083083 0.566358 0.563391 0.330139
C58   C     C_R   0.042563 0.611122 0.595064 -0.103712
Cl1   Cl    Cl    0.494411 0.355558 0.735982 -0.487648
Cl2   Cl    Cl    0.689538 0.559434 0.124098 -0.476634
Cl3   Cl    Cl    0.676804 0.537794 0.283195 -0.384162
Cl4   Cl    Cl    0.495567 0.645298 0.778478 -0.546891
Cl5   Cl    Cl    0.368709 0.486951 0.050518 -0.470528
Cl6   Cl    Cl    0.217998 0.590108 0.474743 -0.583411
Cl7   Cl    Cl    0.324445 0.044954 0.501184 -0.487119
Cl8   Cl    Cl    0.539580 0.758011 0.372863 -0.530753
Cl9   Cl    Cl    0.834474 0.462157 0.364891 -0.486647
H1    H     H_    0.071383 0.650043 0.640753 0.098495
H2    H     H_    0.574844 0.305453 0.932888 0.168480
H3    H     H_    0.612131 0.687168 0.899521 0.161914
H4    H     H_    0.634185 0.631649 0.968734 0.141679
H5    H     H_    0.596137 0.708203 0.987381 0.170878
H6    H     H_    0.390450 0.584685 0.239240 0.144911
H7    H     H_    0.299617 0.524205 0.246875 0.154911
H8    H     H_    0.316232 0.546537 0.161135 0.178943
H9    H     H_    0.561423 0.064227 0.360460 0.137971
H10   H     H_    0.665399 0.078144 0.384234 0.181483
H11   H     H_    0.626366 0.155359 0.372386 0.116466
H12   H     H_    0.045272 0.310130 0.368330 0.171998
H13   H     H_    0.634088 0.980654 0.651305 0.131524
H14   H     H_    0.616074 0.898214 0.694844 0.157910
H15   H     H_    0.591883 0.977761 0.729954 0.162437
H16   H     H_    0.386617 0.712756 0.587528 0.121542
H17   H     H_    0.391555 0.800301 0.635341 0.156919
H18   H     H_    0.408227 0.726672 0.682409 0.189790
H19   H     H_    0.286292 0.151672 0.400055 0.146786
H20   H     H_    0.340376 0.245700 0.401792 0.082190
H21   H     H_    0.252361 0.224177 0.437991 0.154529
H22   H     H_    0.467150 0.934809 0.303243 0.136710
H23   H     H_    0.604603 0.242547 0.472132 0.175054
H24   H     H_    0.414006 0.910103 0.372915 0.137263
H25   H     H_    0.443322 0.842198 0.319916 0.178476
H26   H     H_    0.897729 0.329403 0.230638 0.163961
H27   H     H_    0.997150 0.374640 0.268434 0.104364
H28   H     H_    0.921408 0.423880 0.262026 0.184343
H29   H     H_    0.182779 0.623919 0.693730 0.126163
H30   H     H_    0.202999 0.670191 0.615883 0.138742
H31   H     H_    0.263009 0.614479 0.652178 0.169073
H32   H     H_    0.187791 0.333864 0.401177 0.115068
H33   H     H_    0.953994 0.685290 0.651677 0.127511
H34   H     H_    0.810991 0.654829 0.628782 0.151044
H35   H     H_    0.805560 0.469307 0.487993 0.189933
H36   H     H_    0.607263 0.400896 0.960350 0.137731
H37   H     H_    0.612905 0.364241 0.871528 0.142542
N1    N     N_2   0.537574 0.534545 0.026753 -0.140481
N2    N     N_2   0.504350 0.480808 0.982809 -0.118228
N3    N     N_2   0.530304 0.993110 0.519667 -0.106958
N4    N     N_2   0.472693 0.006815 0.483125 -0.167878
O1    O     O_3   0.500000 0.500000 0.500000 -0.487985
O2    O     O_R   0.321500 0.427480 0.506110 -0.532906
O3    O     O_R   0.674970 0.575130 0.575140 -0.550143
O4    O     O_R   0.328550 0.507430 0.428780 -0.507901
O5    O     O_R   0.674980 0.489960 0.489960 -0.507422
O6    O     O_3   0.500535 0.364128 0.889818 -0.477294
O7    O     O_3   0.514770 0.620353 0.929842 -0.475311
O8    O     O_3   0.374494 0.473483 0.205022 -0.525991
O9    O     O_3   0.612470 0.107449 0.465030 -0.515766
O10   O     O_3   0.516954 0.923207 0.640058 -0.511416
O11   O     O_3   0.498833 0.774538 0.634144 -0.505682
O12   O     O_R   0.540930 0.349770 0.460420 -0.557213
O13   O     O_3   0.347937 0.203657 0.499197 -0.471901
O14   O     O_3   0.534083 0.913334 0.392099 -0.507224
O15   O     O_3   0.919000 0.351786 0.339077 -0.530766
O16   O     O_3   0.154786 0.557628 0.597718 -0.529291
O17   O     O_R   0.550820 0.667300 0.556650 -0.493505
O18   O     O_R   0.445640 0.455160 0.644460 -0.479239
O19   O     O_R   0.462610 0.527770 0.338470 -0.525937
O20   O     O_R   0.540910 0.554790 0.665460 -0.503572
O21   O     O_R   0.550840 0.462270 0.351610 -0.487315
O22   O     O_R   0.445650 0.335310 0.524600 -0.468456
O23   O     O_R   0.462600 0.647620 0.458330 -0.494457
Zn1   Zn    Zn3+2 0.565550 0.451340 0.451340 1.006099
Zn2   Zn    Zn3+2 0.429430 0.430690 0.543050 1.029311
Zn3   Zn    Zn3+2 0.439490 0.544930 0.432570 1.008685
Zn4   Zn    Zn3+2 0.565540 0.573040 0.573050 1.013374

loop_
_geom_bond_atom_site_label_1
_geom_bond_atom_site_label_2
_ccdc_geom_bond_type
C25   C31   A    
C55   C56   A    
C1    C21   S    
O5    Zn1   S    
C27   C29   A    
C9    Cl6   S    
C15   Cl2   S    
C48   H9    S    
C1    O20   A    
C32   O9    S    
O23   Zn3   S    
C18   O6    S    
C6    C9    A    
C44   H37   S    
C50   H17   S    
C7    C8    A    
C25   C28   S    
C9    C42   A    
C29   C30   A    
C46   O7    S    
C36   C37   A    
C19   C21   A    
C8    H32   S    
C8    C42   A    
C12   C43   A    
C2    C55   A    
C16   O12   A    
C30   C31   A    
C23   H35   S    
C53   H28   S    
C10   C17   A    
C48   H11   S    
C33   C36   A    
C56   C57   A    
C18   C19   A    
C49   H14   S    
C35   N4    S    
C50   H18   S    
C17   Cl3   S    
C52   O14   S    
C44   H36   S    
C14   N1    S    
C20   C24   A    
O18   Zn2   S    
C52   H24   S    
N3    N4    D    
O19   Zn3   S    
C54   H30   S    
C39   C42   S    
C16   O22   A    
C54   H29   S    
O21   Zn1   S    
O17   Zn4   S    
C53   H27   S    
C44   O6    S    
C34   C55   A    
C13   C14   A    
C52   H22   S    
O1    Zn1   S    
C51   H19   S    
C27   O14   S    
C3    O15   S    
C50   H16   S    
C40   O3    A    
C20   N2    S    
C39   O2    A    
C47   O8    S    
C45   C58   A    
O1    Zn2   S    
C50   O11   S    
C26   Cl8   S    
C32   C35   A    
C35   C38   A    
C1    O18   A    
C47   H6    S    
C2    Cl9   S    
C53   O15   S    
O20   Zn4   S    
C51   H20   S    
C5    C7    A    
C30   O10   S    
C19   Cl1   S    
C25   C26   A    
C53   H26   S    
C49   H15   S    
C37   C38   A    
C22   Cl4   S    
C40   O5    A    
C13   Cl5   S    
C38   Cl7   S    
C23   C34   A    
C48   H10   S    
C26   C27   A    
C44   H2    S    
C34   C45   A    
C43   H33   S    
C11   O8    S    
C43   C45   A    
C31   O11   S    
C46   H4    S    
C48   O9    S    
C37   O13   S    
C58   H1    S    
C39   O4    A    
C51   O13   S    
C22   C24   A    
C52   H25   S    
O22   Zn2   S    
C4    C10   S    
O1    Zn4   S    
C28   O17   A    
C12   C41   A    
C7    H12   S    
C15   C17   A    
C54   O16   S    
C40   C41   S    
C4    O19   A    
O1    Zn3   S    
O12   Zn1   S    
C46   H5    S    
C29   N3    S    
C47   H7    S    
C6    C56   A    
C3    C5    A    
C51   H21   S    
C4    O21   A    
N1    N2    D    
C23   C41   A    
C49   H13   S    
C28   O23   A    
C32   C33   A    
C2    C3    A    
C47   H8    S    
C12   H34   S    
C33   H23   S    
C16   C36   S    
C57   O16   S    
C11   C13   A    
O3    Zn4   S    
C57   C58   A    
C5    C6    A    
O4    Zn3   S    
C18   C20   A    
C46   H3    S    
C10   C11   A    
C49   O10   S    
C24   O7    S    
C14   C15   A    
C54   H31   S    
O2    Zn2   S    
C21   C22   A    
