data_mof_unit_pretest_182.cif
_audit_creation_date              2012-12-10T18:35:22-0500
_audit_creation_method            fapswitch 2.2
_symmetry_space_group_name_H-M    P1
_symmetry_Int_Tables_number       1
_space_group_crystal_system       triclinic
_cell_length_a                    14.91601
_cell_length_b                    15.26261
_cell_length_c                    16.882788
_cell_angle_alpha                 91.885508
_cell_angle_beta                  99.794076
_cell_angle_gamma                 97.471227
_cell_volume                      3749.3583748

loop_
_atom_site_label
_atom_site_type_symbol
_atom_type_description
_atom_site_fract_x
_atom_site_fract_y
_atom_site_fract_z
_atom_type_partial_charge
C1    C     C_R   0.557322 0.663073 0.509271 0.870970
C2    C     C_R   0.443018 0.336815 0.486546 0.864819
C3    C     C_R   0.592302 0.755519 0.499122 -0.080237
C4    C     C_R   0.410812 0.243506 0.462249 -0.063122
C5    C     C_R   0.716386 0.871641 0.489204 -0.193524
C6    C     C_R   0.293754 0.126395 0.396933 -0.192885
C7    C     C_R   0.686571 0.785028 0.506536 -0.194804
C8    C     C_R   0.319064 0.213696 0.427929 -0.194896
C9    C     C_R   0.528920 0.812495 0.472615 -0.214853
C10   C     C_R   0.476371 0.185857 0.464116 -0.265463
C11   C     C_R   0.557050 0.896563 0.448065 0.099601
C12   C     C_R   0.454277 0.101436 0.426207 0.084910
C13   C     C_R   0.652114 0.928249 0.461728 0.117630
C14   C     C_R   0.360611 0.069527 0.397392 0.160489
C15   C     C_R   0.492463 0.952836 0.417884 0.037788
C16   C     C_R   0.522087 0.044937 0.424313 -0.021539
C17   C     C_R   0.618010 0.075435 0.430708 0.086187
C18   C     C_R   0.399618 0.921654 0.382530 0.086626
C19   C     C_R   0.681430 0.016107 0.448358 -0.227267
C20   C     C_R   0.335126 0.980930 0.371127 -0.290528
C21   C     C_R   0.167851 0.637473 0.378858 0.120747
C22   C     C_R   0.830566 0.358373 0.617344 0.119899
C23   C     C_R   0.509805 0.494143 0.349495 0.862439
C24   C     C_R   0.489919 0.505219 0.650500 0.860528
C25   C     C_R   0.253855 0.608843 0.396292 -0.024461
C26   C     C_R   0.742443 0.380324 0.593286 -0.023139
C27   C     C_R   0.207769 0.517151 0.496074 -0.069036
C28   C     C_R   0.796500 0.495633 0.516433 -0.071382
C29   C     C_R   0.120037 0.544802 0.484971 -0.073664
C30   C     C_R   0.888442 0.480977 0.540336 -0.072505
C31   C     C_R   0.100797 0.610111 0.427717 0.120938
C32   C     C_R   0.906810 0.413249 0.595281 0.118357
C33   C     C_R   0.050945 0.507326 0.527621 0.046028
C34   C     C_R   0.961371 0.530087 0.509061 0.046098
C35   C     C_R   0.947921 0.603076 0.461695 -0.239413
C36   C     C_R   0.069416 0.449666 0.589947 -0.237123
C37   C     C_R   0.016258 0.645007 0.423294 0.213000
C38   C     C_R   0.000162 0.405013 0.625681 0.211457
C39   C     C_R   0.508832 0.476800 0.264422 -0.027947
C40   C     C_R   0.489354 0.519107 0.735733 -0.029342
C41   C     C_R   0.424254 0.455589 0.212283 -0.203749
C42   C     C_R   0.573132 0.537571 0.789348 -0.204758
C43   C     C_R   0.422153 0.439576 0.130834 -0.181253
C44   C     C_R   0.573555 0.549738 0.870957 -0.181484
C45   C     C_R   0.504448 0.445930 0.101295 0.205749
C46   C     C_R   0.490375 0.542332 0.899118 0.206476
C47   C     C_R   0.589089 0.462183 0.153259 -0.178572
C48   C     C_R   0.406559 0.528232 0.845931 -0.179582
C49   C     C_R   0.591361 0.477186 0.235141 -0.205222
C50   C     C_R   0.405967 0.517041 0.763937 -0.206876
C51   C     C_2   0.501624 0.453996 0.015678 0.119011
C52   C     C_2   0.491469 0.533591 0.984425 0.118310
H1    H     H_    0.359811 0.452667 0.234189 0.158923
H2    H     H_    0.638194 0.541440 0.768405 0.160193
H3    H     H_    0.775922 0.543642 0.474312 0.135590
H4    H     H_    0.228076 0.467780 0.536790 0.135684
H5    H     H_    0.683666 0.342502 0.611729 0.142877
H6    H     H_    0.307522 0.631177 0.362816 0.150853
H7    H     H_    0.885110 0.631777 0.456319 0.139143
H8    H     H_    0.138807 0.440902 0.614854 0.138354
H9    H     H_    0.340747 0.503826 0.723107 0.149827
H10   H     H_    0.657153 0.492183 0.274913 0.155429
H11   H     H_    0.652747 0.468177 0.129832 0.137366
H12   H     H_    0.342216 0.521548 0.868270 0.136605
H13   H     H_    0.638343 0.559984 0.912573 0.135742
H14   H     H_    0.356711 0.427815 0.090185 0.135681
H15   H     H_    0.754127 0.039642 0.453731 0.154694
H16   H     H_    0.264306 0.956551 0.345146 0.144508
H17   H     H_    0.544914 0.206922 0.496686 0.159891
H18   H     H_    0.457306 0.791504 0.473850 0.179820
H19   H     H_    0.267222 0.257577 0.424984 0.157989
H20   H     H_    0.736985 0.741537 0.525861 0.153779
H21   H     H_    0.789443 0.894465 0.497605 0.135058
H22   H     H_    0.222156 0.103276 0.372973 0.135357
N1    N     N_R   0.271750 0.551950 0.454510 -0.117781
N2    N     N_R   0.728250 0.448050 0.545490 -0.117594
O1    O     O_R   0.615140 0.606020 0.522930 -0.615379
O2    O     O_R   0.384860 0.393980 0.477070 -0.614627
O3    O     O_R   0.468580 0.639400 0.493740 -0.611212
O4    O     O_R   0.531420 0.360600 0.506260 -0.622246
O5    O     O_R   0.581950 0.481350 0.400520 -0.615404
O6    O     O_R   0.418050 0.518650 0.599480 -0.616382
O7    O     O_R   0.435380 0.514730 0.371330 -0.623484
O8    O     O_R   0.564620 0.485270 0.628670 -0.617153
Zn1   Zn    Zn3+2 0.597860 0.477710 0.519490 0.933644
Zn2   Zn    Zn3+2 0.402140 0.522290 0.480510 0.937447
N3    N     N_3   0.652806 0.161707 0.408437 -0.457605
H23   H     H_    0.601615 0.190937 0.372968 0.204278
H24   H     H_    0.680728 0.201549 0.460589 0.185920
N4    N     N_3   0.371916 0.831826 0.351740 -0.475441
H25   H     H_    0.347202 0.832078 0.289968 0.193456
H26   H     H_    0.317518 0.805273 0.379198 0.186674
C53   C     C_3   0.998100 0.731120 0.385841 -0.919167
H27   H     H_    0.937600 0.756206 0.404229 0.229608
H28   H     H_    0.057099 0.783402 0.407031 0.243746
H29   H     H_    0.982720 0.722503 0.319338 0.248828
C54   C     C_3   0.031043 0.357184 0.700469 -0.918359
H30   H     H_    0.105771 0.374701 0.723691 0.228056
H31   H     H_    0.996216 0.377327 0.749815 0.245161
H32   H     H_    0.019314 0.284589 0.687824 0.248712
C55   C     C_3   0.149592 0.687868 0.303559 -0.961662
H33   H     H_    0.204694 0.686011 0.266987 0.231497
H34   H     H_    0.085229 0.656635 0.264396 0.257165
H35   H     H_    0.147611 0.758698 0.318369 0.247945
C56   C     C_3   0.836625 0.272046 0.657906 -0.940469
H36   H     H_    0.767797 0.232605 0.654235 0.229408
H37   H     H_    0.876918 0.230291 0.626688 0.251450
H38   H     H_    0.865493 0.283609 0.722833 0.254451
C57   C     C_3   0.482655 0.614873 0.034648 -0.930236
H39   H     H_    0.477912 0.673156 0.997185 0.244791
H40   H     H_    0.419589 0.603634 0.061659 0.247366
H41   H     H_    0.543672 0.630629 0.083124 0.251782
C58   C     C_3   0.510156 0.372694 0.965415 -0.933696
H42   H     H_    0.515089 0.314464 0.002923 0.245534
H43   H     H_    0.448900 0.356985 0.917168 0.250172
H44   H     H_    0.572991 0.383891 0.938074 0.248013

loop_
_geom_bond_atom_site_label_1
_geom_bond_atom_site_label_2
_ccdc_geom_bond_type
C15   C18   A    
N3    H23   S    
C53   H27   S    
C46   C52   S    
C27   C29   A    
C1    O1    A    
C4    C8    A    
C54   H30   S    
C47   C49   A    
C56   H37   S    
C51   C58   S    
C22   C32   A    
C2    O2    A    
C35   C37   A    
C3    C7    A    
C57   H40   S    
C47   H11   S    
C23   C39   S    
C48   H12   S    
C45   C51   S    
C15   C16   A    
C29   C33   A    
C33   C36   A    
C35   H7    S    
C34   C35   A    
C23   O7    A    
C24   O6    A    
C24   C40   S    
C11   C15   A    
C12   C16   A    
C16   C17   A    
C26   N2    A    
C19   H15   S    
C32   C38   A    
C5    C13   A    
C58   H44   S    
C21   C55   S    
O2    Zn2   S    
C40   C42   A    
O1    Zn1   S    
C53   H28   S    
C41   C43   A    
C44   H13   S    
C42   C44   A    
C38   C54   S    
C27   N1    A    
C54   H31   S    
C28   H3    S    
C44   C46   A    
C6    H22   S    
C45   C47   A    
C56   H38   S    
C46   C48   A    
C30   C34   A    
C51   C52   D    
C18   N4    S    
C55   H33   S    
C14   C20   A    
O8    Zn1   S    
C39   C41   A    
C57   H41   S    
C7    H20   S    
C5    C7    A    
C13   C19   A    
C27   H4    S    
C6    C8    A    
O6    Zn2   S    
C31   C37   A    
C1    C3    S    
C2    C4    S    
O4    Zn1   S    
C3    C9    A    
C6    C14   A    
C43   C45   A    
N1    Zn2   S    
N4    H26   S    
C21   C31   A    
C33   C34   A    
C37   C53   S    
C9    H18   S    
C9    C11   A    
C41   H1    S    
C10   C12   A    
C39   C49   A    
C12   C14   A    
C53   H29   S    
N3    H24   S    
C1    O3    A    
C25   H6    S    
C4    C10   A    
C36   C38   A    
C28   N2    A    
C54   H32   S    
C58   H42   S    
C21   C25   A    
C8    H19   S    
C49   H10   S    
C23   O5    A    
C17   N3    S    
C20   H16   S    
C36   H8    S    
C55   H35   S    
C22   C56   S    
C56   H36   S    
C28   C30   A    
C24   O8    A    
C29   C31   A    
C57   H39   S    
C42   H2    S    
C30   C32   A    
C11   C13   A    
N4    H25   S    
C52   C57   S    
C43   H14   S    
C40   C50   A    
C48   C50   A    
C17   C19   A    
C18   C20   A    
C5    H21   S    
C26   H5    S    
C2    O4    A    
C10   H17   S    
O7    Zn2   S    
C55   H34   S    
C22   C26   A    
C50   H9    S    
C25   N1    A    
N2    Zn1   S    
O3    Zn2   S    
O5    Zn1   S    
C58   H43   S    
