data_mof_unit_pretest_206.cif
_audit_creation_date              2012-12-10T18:44:21-0500
_audit_creation_method            fapswitch 2.2
_symmetry_space_group_name_H-M    P1
_symmetry_Int_Tables_number       1
_space_group_crystal_system       triclinic
_cell_length_a                    12.8928
_cell_length_b                    10.639958
_cell_length_c                    9.914724
_cell_angle_alpha                 88.844534
_cell_angle_beta                  96.31376
_cell_angle_gamma                 91.504793
_cell_volume                      1351.1703822

loop_
_atom_site_label
_atom_site_type_symbol
_atom_type_description
_atom_site_fract_x
_atom_site_fract_y
_atom_site_fract_z
_atom_type_partial_charge
C1    C     C_R   0.499601 0.260244 0.500800 0.862507
C2    C     C_R   0.500399 0.739756 0.499200 0.862517
C3    C     C_R   0.500872 0.872255 0.498542 -0.006651
C4    C     C_R   0.499129 0.127745 0.501458 -0.006648
C5    C     C_R   0.560429 0.585998 0.075890 0.167012
C6    C     C_R   0.439572 0.414001 0.924110 0.167016
C7    C     C_R   0.560121 0.584110 0.932807 -0.128929
C8    C     C_R   0.439879 0.415890 0.067193 -0.128926
C9    C     C_R   0.298435 0.499518 0.474078 0.876996
C10   C     C_R   0.701565 0.500473 0.525923 0.876994
C11   C     C_R   0.813454 0.499850 0.541063 -0.048596
C12   C     C_R   0.186546 0.500108 0.458942 -0.048595
C13   C     C_R   0.023120 0.520624 0.318760 -0.228211
C14   C     C_R   0.976877 0.479301 0.681246 -0.228211
C15   C     C_R   0.130805 0.516313 0.330493 -0.207759
C16   C     C_R   0.869192 0.483634 0.669513 -0.207754
C17   C     C_R   0.135240 0.486606 0.575291 -0.286953
C18   C     C_R   0.864761 0.513328 0.424714 -0.286955
C19   C     C_R   0.028210 0.491289 0.564606 0.191748
C20   C     C_R   0.971789 0.508632 0.435400 0.191750
C21   C     C_R   0.441888 0.064757 0.394427 -0.202992
C22   C     C_R   0.558112 0.935243 0.605573 -0.202995
C23   C     C_R   0.442423 0.935882 0.393306 -0.187607
C24   C     C_R   0.557577 0.064118 0.606695 -0.187605
H1    H     H_    0.821705 0.526887 0.325366 0.155003
H2    H     H_    0.178298 0.473049 0.674638 0.154997
H3    H     H_    0.829767 0.473113 0.760236 0.161494
H4    H     H_    0.170230 0.526848 0.239770 0.161495
H5    H     H_    0.980241 0.533730 0.219340 0.135205
H6    H     H_    0.019756 0.466192 0.780666 0.135205
H7    H     H_    0.396284 0.115119 0.313266 0.140364
H8    H     H_    0.603716 0.884881 0.686735 0.140365
H9    H     H_    0.396386 0.886026 0.312354 0.141574
H10   H     H_    0.603613 0.113974 0.687647 0.141577
H11   H     H_    0.608367 0.650390 0.881732 0.137585
H12   H     H_    0.391632 0.349609 0.118268 0.137584
N1    N     N_R   0.499970 0.499970 0.857200 -0.106224
N2    N     N_R   0.500030 0.500030 0.142800 -0.106224
O1    O     O_R   0.499990 0.316750 0.614620 -0.633074
O2    O     O_R   0.500010 0.683250 0.385380 -0.633071
O3    O     O_R   0.499990 0.316780 0.385290 -0.619268
O4    O     O_R   0.500010 0.683220 0.614710 -0.619266
O5    O     O_R   0.346360 0.499970 0.595710 -0.641929
O6    O     O_R   0.653640 0.500030 0.404290 -0.641930
O7    O     O_R   0.346360 0.499990 0.366380 -0.625193
O8    O     O_R   0.653640 0.500010 0.633620 -0.625193
Zn1   Zn    Zn3+2 0.500000 0.499980 0.653120 0.927614
Zn2   Zn    Zn3+2 0.500000 0.500020 0.346880 0.927613
C25   C     C_3   0.629803 0.685706 0.148235 -0.406573
C26   C     C_3   0.586557 0.817521 0.116914 -0.362061
C27   C     C_3   0.654154 0.918176 0.194118 -0.853750
H13   H     H_    0.659121 0.899191 0.305145 0.269210
H14   H     H_    0.734055 0.920210 0.162020 0.253809
H15   H     H_    0.619291 0.011742 0.172227 0.252949
H16   H     H_    0.583751 0.839445 0.006510 0.208571
H17   H     H_    0.505795 0.820952 0.145316 0.236909
H18   H     H_    0.640430 0.670077 0.258013 0.263485
H19   H     H_    0.709132 0.681233 0.114617 0.163728
C28   C     C_3   0.370194 0.314295 0.851764 -0.406581
C29   C     C_3   0.413434 0.182477 0.883088 -0.362059
C30   C     C_3   0.345841 0.081825 0.805872 -0.853730
H20   H     H_    0.265937 0.079786 0.837967 0.253805
H21   H     H_    0.340877 0.100817 0.694846 0.269205
H22   H     H_    0.380705 0.988258 0.827757 0.252948
H23   H     H_    0.494201 0.179043 0.854697 0.236902
H24   H     H_    0.416232 0.160551 0.993491 0.208568
H25   H     H_    0.290865 0.318773 0.885378 0.163727
H26   H     H_    0.359572 0.329922 0.741985 0.263485

loop_
_geom_bond_atom_site_label_1
_geom_bond_atom_site_label_2
_ccdc_geom_bond_type
C12   C17   A    
C10   O8    A    
C30   H22   S    
C27   H14   S    
C11   C18   A    
C9    O7    A    
C14   C16   A    
C28   H26   S    
N1    Zn1   S    
C11   C16   A    
C3    C23   A    
C19   C20   A    
C12   C15   A    
C1    C4    S    
C27   H15   S    
C16   H3    S    
C13   C15   A    
C26   C27   S    
C7    N1    A    
C6    N1    A    
C29   H24   S    
C28   C29   S    
C5    N2    A    
C4    C21   A    
C21   H7    S    
C5    C25   S    
C15   H4    S    
C26   H16   S    
C18   H1    S    
C22   H8    S    
C8    N2    A    
C2    O4    A    
C17   H2    S    
C14   C19   A    
C1    O3    A    
C17   C19   A    
O3    Zn2   S    
C14   H6    S    
C29   H23   S    
C2    C3    S    
C18   C20   A    
O4    Zn1   S    
C21   C23   A    
C30   H20   S    
C4    C24   A    
C9    C12   S    
C22   C24   A    
C9    O5    A    
C10   C11   S    
C1    O1    A    
C10   O6    A    
C27   H13   S    
C2    O2    A    
C7    H11   S    
N2    Zn2   S    
C25   H18   S    
O1    Zn1   S    
C25   C26   S    
C8    H12   S    
O7    Zn2   S    
C13   H5    S    
C5    C7    A    
O2    Zn2   S    
O8    Zn1   S    
C3    C22   A    
C6    C8    A    
C13   C20   A    
C28   H25   S    
O5    Zn1   S    
C6    C28   S    
C30   H21   S    
C26   H17   S    
C25   H19   S    
O6    Zn2   S    
C29   C30   S    
C23   H9    S    
C24   H10   S    
