data_mof_unit_pretest_681.cif
_audit_creation_date              2012-12-10T18:47:08-0500
_audit_creation_method            fapswitch 2.2
_symmetry_space_group_name_H-M    P1
_symmetry_Int_Tables_number       1
_space_group_crystal_system       triclinic
_cell_length_a                    10.714166
_cell_length_b                    9.836942
_cell_length_c                    14.97265
_cell_angle_alpha                 89.549036
_cell_angle_beta                  90.046037
_cell_angle_gamma                 90.032882
_cell_volume                      1577.987257

loop_
_atom_site_label
_atom_site_type_symbol
_atom_type_description
_atom_site_fract_x
_atom_site_fract_y
_atom_site_fract_z
_atom_type_partial_charge
C1    C     C_R   0.259868 0.499986 0.499886 0.860059
C2    C     C_R   0.127434 0.500006 0.499835 -0.012764
C3    C     C_R   0.586747 0.071434 0.548070 -0.079085
C4    C     C_R   0.413245 0.928566 0.451938 -0.077863
C5    C     C_R   0.413281 0.072481 0.451901 -0.062761
C6    C     C_R   0.586714 0.927519 0.548104 -0.065632
C7    C     C_R   0.497061 0.500657 0.326970 0.887817
C8    C     C_R   0.502907 0.499365 0.673030 0.889726
C9    C     C_R   0.592170 0.417326 0.815353 0.041680
C10   C     C_R   0.408906 0.583748 0.184605 0.042707
C11   C     C_R   0.505789 0.498184 0.768481 -0.114893
C12   C     C_R   0.740132 0.500014 0.500100 0.858989
C13   C     C_R   0.494689 0.502181 0.231514 -0.114517
C14   C     C_R   0.420939 0.580979 0.812266 -0.268007
C15   C     C_R   0.580175 0.420139 0.187748 -0.267846
C16   C     C_R   0.417796 0.583776 0.904786 0.112119
C17   C     C_R   0.584933 0.419314 0.095220 0.111952
C18   C     C_R   0.502761 0.501412 0.953348 -0.015738
C19   C     C_R   0.499887 0.501568 0.046645 -0.015815
C20   C     C_R   0.590503 0.418652 0.908555 0.108718
C21   C     C_R   0.411574 0.583629 0.091420 0.108915
C22   C     C_R   0.330629 0.666114 0.949360 0.088605
C23   C     C_R   0.328029 0.664706 0.042401 -0.233893
C24   C     C_R   0.672940 0.338028 0.050644 0.089449
C25   C     C_R   0.674597 0.338265 0.957578 -0.234341
C26   C     C_R   0.063826 0.378934 0.482820 -0.194193
C27   C     C_R   0.936173 0.621075 0.517121 -0.192354
C28   C     C_R   0.935982 0.378920 0.482999 -0.198975
C29   C     C_R   0.064016 0.621090 0.516941 -0.195847
C30   C     C_R   0.872565 0.500000 0.500119 -0.013472
H1    H     H_    0.355920 0.641409 0.773129 0.177429
H2    H     H_    0.343800 0.874466 0.413613 0.119452
H3    H     H_    0.343985 0.127439 0.413420 0.123805
H4    H     H_    0.656005 0.872561 0.586589 0.124144
H5    H     H_    0.638383 0.259438 0.734918 0.206410
H6    H     H_    0.731606 0.399149 0.723801 0.182421
H7    H     H_    0.268599 0.600613 0.275602 0.180899
H8    H     H_    0.361538 0.740731 0.265479 0.207553
H9    H     H_    0.296124 0.831392 0.872836 0.184631
H10   H     H_    0.178621 0.793489 0.942580 0.183798
H11   H     H_    0.825972 0.320852 0.128314 0.181452
H12   H     H_    0.644177 0.358478 0.226914 0.177234
H13   H     H_    0.809456 0.191277 0.057249 0.184057
H14   H     H_    0.260776 0.728351 0.076167 0.170754
H15   H     H_    0.742275 0.275162 0.923806 0.171191
H16   H     H_    0.112443 0.284876 0.468913 0.152023
H17   H     H_    0.887558 0.715134 0.531029 0.152223
H18   H     H_    0.887214 0.284838 0.469215 0.157119
H19   H     H_    0.112783 0.715173 0.530724 0.156659
H20   H     H_    0.656179 0.125536 0.586407 0.119862
N1    N     N_R   0.500000 0.857200 0.500000 -0.080304
N2    N     N_R   0.500000 0.142800 0.500000 -0.080275
N3    N     N_3   0.683691 0.337144 0.769321 -0.477745
N4    N     N_3   0.316764 0.663199 0.230562 -0.478419
N5    N     N_3   0.244872 0.750609 0.900003 -0.464774
N6    N     N_3   0.760228 0.255427 0.100005 -0.462596
O1    O     O_R   0.316770 0.614620 0.499990 -0.634252
O2    O     O_R   0.683230 0.385380 0.500010 -0.633898
O3    O     O_R   0.683230 0.614620 0.500010 -0.626741
O4    O     O_R   0.316770 0.385380 0.499990 -0.627114
O5    O     O_R   0.499980 0.614680 0.367850 -0.621919
O6    O     O_R   0.500020 0.385320 0.632150 -0.622192
O7    O     O_R   0.500020 0.614680 0.632150 -0.618712
O8    O     O_R   0.499980 0.385320 0.367850 -0.616414
Zn1   Zn    Zn3+2 0.500000 0.653120 0.500000 0.944312
Zn2   Zn    Zn3+2 0.500000 0.346880 0.500000 0.945185

loop_
_geom_bond_atom_site_label_1
_geom_bond_atom_site_label_2
_ccdc_geom_bond_type
O5    Zn1   S    
C3    N2    A    
O7    Zn1   S    
C5    N2    A    
C22   N5    S    
C1    O1    A    
C6    N1    A    
C24   N6    S    
C9    C20   A    
C26   C28   A    
H8    N4    S    
C13   C15   A    
C14   H1    S    
H10   N5    S    
C12   O2    A    
C3    C6    A    
C28   C30   A    
C24   C25   A    
O4    Zn2   S    
C2    C26   A    
C29   H19   S    
O3    Zn1   S    
C27   C30   A    
C9    C11   A    
C28   H18   S    
C4    H2    S    
C8    C11   S    
H7    N4    S    
C17   C19   A    
C3    H20   S    
C1    C2    S    
H11   N6    S    
C18   C20   A    
C5    H3    S    
C21   C23   A    
C10   C21   A    
N1    Zn1   S    
C10   N4    S    
C11   C14   A    
C14   C16   A    
C7    O8    A    
C17   C24   A    
C9    N3    S    
C20   C25   A    
C26   H16   S    
C4    N1    A    
C25   H15   S    
H13   N6    S    
C7    C13   S    
N2    Zn2   S    
C2    C29   A    
C27   C29   A    
C16   C18   A    
C18   C19   A    
H5    N3    S    
C1    O4    A    
C27   H17   S    
C15   C17   A    
O6    Zn2   S    
C22   C23   A    
C7    O5    A    
C16   C22   A    
H6    N3    S    
C8    O7    A    
C12   C30   S    
C19   C21   A    
C12   O3    A    
O2    Zn2   S    
H9    N5    S    
C23   H14   S    
C6    H4    S    
C15   H12   S    
C8    O6    A    
C4    C5    A    
O1    Zn1   S    
C10   C13   A    
O8    Zn2   S    
