data_mof_unit_pretest_1211.cif
_audit_creation_date              2012-12-10T20:52:46-0500
_audit_creation_method            fapswitch 2.2
_symmetry_space_group_name_H-M    P1
_symmetry_Int_Tables_number       1
_space_group_crystal_system       triclinic
_cell_length_a                    8.621331
_cell_length_b                    15.819632
_cell_length_c                    15.076865
_cell_angle_alpha                 88.664816
_cell_angle_beta                  98.32045
_cell_angle_gamma                 90.288259
_cell_volume                      2034.07834029

loop_
_atom_site_label
_atom_site_type_symbol
_atom_type_description
_atom_site_fract_x
_atom_site_fract_y
_atom_site_fract_z
_atom_type_partial_charge
C1    C     C_R   0.500433 0.338876 0.500966 0.898637
C2    C     C_R   0.799432 0.499951 0.523163 0.973167
C3    C     C_2   0.036148 0.499790 0.464034 -0.379518
C4    C     C_2   0.963844 0.499882 0.535968 -0.381463
C5    C     C_R   0.599640 0.951851 0.571945 0.434010
C6    C     C_R   0.481016 0.049408 0.418856 0.444384
C7    C     C_R   0.534814 0.913275 0.492105 -0.244948
C8    C     C_R   0.540176 0.087663 0.499780 -0.241934
C9    C     C_R   0.476041 0.961481 0.414599 0.302297
C10   C     C_R   0.605947 0.039627 0.575898 0.305906
C11   C     C_1   0.521757 0.824197 0.493492 0.051283
C12   C     C_R   0.500225 0.661178 0.498933 0.904001
C13   C     C_1   0.525903 0.176262 0.503601 0.054155
C14   C     C_1   0.512708 0.250756 0.503741 -0.191027
C15   C     C_1   0.510508 0.749494 0.496441 -0.178695
C16   C     C_R   0.358291 0.492077 0.941234 -0.321729
C17   C     C_R   0.639576 0.490505 0.059191 -0.324846
C18   C     C_3   0.548275 0.886431 0.700815 0.121544
C19   C     C_3   0.606774 0.816166 0.768549 -0.322754
C20   C     C_3   0.484767 0.793219 0.829065 -0.926439
C21   C     C_3   0.512579 0.106086 0.280319 0.154359
C22   C     C_3   0.576011 0.196648 0.277556 -0.374044
C23   C     C_R   0.499990 0.492501 0.905209 -0.133816
C24   C     C_3   0.657859 0.213077 0.195477 -0.973843
C25   C     C_3   0.200368 0.394998 0.105589 0.108269
C26   C     C_3   0.214482 0.321858 0.041498 -0.418782
C27   C     C_3   0.182364 0.236659 0.085009 -0.922514
C28   C     C_3   0.791063 0.388905 0.903074 0.103823
C29   C     C_3   0.776575 0.319116 0.974538 -0.425279
C30   C     C_3   0.805671 0.231726 0.939523 -0.905286
C31   C     C_R   0.498054 0.492248 0.095165 -0.128950
C32   C     C_R   0.641430 0.485153 0.965783 0.541485
C33   C     C_R   0.356072 0.486491 0.034938 0.542066
C34   C     C_1   0.499163 0.497273 0.807109 0.111371
C35   C     C_1   0.500011 0.497213 0.193000 0.113709
C36   C     C_R   0.200564 0.499918 0.476839 0.974066
H1    H     H_    0.974949 0.499670 0.395642 0.184173
H2    H     H_    0.716231 0.837106 0.810610 0.238990
H3    H     H_    0.457430 0.849119 0.867240 0.267532
H4    H     H_    0.531257 0.742221 0.877376 0.276274
H5    H     H_    0.375545 0.770199 0.788461 0.268747
H6    H     H_    0.441698 0.092593 0.214573 0.181541
H7    H     H_    0.612734 0.060595 0.289120 0.129306
H8    H     H_    0.478094 0.242360 0.275999 0.241957
H9    H     H_    0.660904 0.207487 0.339036 0.226843
H10   H     H_    0.758007 0.169031 0.196163 0.274800
H11   H     H_    0.702957 0.278998 0.196072 0.267264
H12   H     H_    0.025042 0.499970 0.604359 0.183894
H13   H     H_    0.574316 0.204795 0.132884 0.268797
H14   H     H_    0.083386 0.391292 0.128037 0.166183
H15   H     H_    0.286410 0.386240 0.167234 0.133784
H16   H     H_    0.130726 0.331676 0.979113 0.236515
H17   H     H_    0.334791 0.320025 0.023302 0.209961
H18   H     H_    0.269404 0.224761 0.145673 0.271086
H19   H     H_    0.191559 0.185427 0.036973 0.269830
H20   H     H_    0.063054 0.235140 0.104451 0.271063
H21   H     H_    0.906408 0.382505 0.879389 0.166215
H22   H     H_    0.701964 0.378788 0.843380 0.133283
H23   H     H_    0.248066 0.492505 0.896385 0.187997
H24   H     H_    0.861467 0.331202 0.035425 0.236970
H25   H     H_    0.656854 0.319274 0.993684 0.212046
H26   H     H_    0.716818 0.217606 0.880708 0.271409
H27   H     H_    0.796667 0.183174 0.992939 0.270808
H28   H     H_    0.924413 0.228294 0.919557 0.268960
H29   H     H_    0.749836 0.489442 0.104020 0.186123
H30   H     H_    0.681376 0.137041 0.648015 0.340326
H31   H     H_    0.419951 0.864060 0.338212 0.348254
H32   H     H_    0.435829 0.865118 0.661373 0.124505
H33   H     H_    0.526125 0.944369 0.737562 0.177049
H34   H     H_    0.633622 0.758994 0.732038 0.239983
N1    N     N_1   0.499960 0.500020 0.270540 -0.097533
N2    N     N_1   0.500040 0.499980 0.729460 -0.097838
O1    O     O_R   0.500000 0.378020 0.573650 -0.616758
O2    O     O_3   0.409017 0.926268 0.334861 -0.733216
O3    O     O_3   0.664327 0.903092 0.645401 -0.589853
O4    O     O_3   0.411826 0.098448 0.346523 -0.601259
O5    O     O_3   0.212261 0.476330 0.064827 -0.623669
O6    O     O_3   0.784119 0.471982 0.936323 -0.624867
O7    O     O_R   0.500000 0.621980 0.426350 -0.606270
O8    O     O_R   0.500070 0.378020 0.426320 -0.620205
O9    O     O_R   0.499930 0.621980 0.573680 -0.610346
O10   O     O_R   0.271720 0.500000 0.556430 -0.613057
O11   O     O_R   0.728280 0.500000 0.443570 -0.612511
O12   O     O_R   0.271790 0.500000 0.409110 -0.619525
O13   O     O_R   0.728210 0.500000 0.590890 -0.620572
O14   O     O_3   0.673357 0.074981 0.655461 -0.735055
Zn1   Zn    Zn3+2 0.499950 0.500000 0.598370 0.972262
Zn2   Zn    Zn3+2 0.500050 0.500000 0.401630 0.975144

loop_
_geom_bond_atom_site_label_1
_geom_bond_atom_site_label_2
_ccdc_geom_bond_type
C18   O3    S    
C30   H28   S    
C19   C20   S    
C6    C9    A    
C20   H5    S    
C27   H18   S    
C28   H21   S    
C7    C11   S    
C21   O4    S    
C26   C27   S    
C8    C13   S    
C25   O5    S    
C21   C22   S    
C28   C29   S    
C20   H4    S    
C27   H19   S    
C18   H32   S    
O10   Zn1   S    
C12   O7    A    
C2    O13   A    
C18   C19   S    
C25   H14   S    
O1    Zn1   S    
C21   H7    S    
C11   C15   T    
C22   H8    S    
C36   O10   A    
C31   C33   A    
C28   O6    S    
C18   H33   S    
O11   Zn2   S    
C35   N1    T    
C30   H27   S    
C2    O11   A    
O7    Zn2   S    
O13   Zn1   S    
C29   H25   S    
C5    C7    A    
C20   H3    S    
C27   H20   S    
C6    C8    A    
C25   C26   S    
N1    Zn2   S    
C16   H23   S    
C5    O3    S    
C2    C4    S    
C25   H15   S    
C29   C30   S    
C19   H2    S    
C26   H16   S    
C16   C33   A    
C29   H24   S    
C23   C34   S    
H31   O2    S    
O9    Zn1   S    
C16   C23   A    
C30   H26   S    
C17   C31   A    
C22   C24   S    
C9    O2    S    
C3    C4    D    
C26   H17   S    
C34   N2    T    
N2    Zn1   S    
C4    H12   S    
C24   H13   S    
C7    C9    A    
C10   O14   S    
C24   H11   S    
O12   Zn2   S    
H30   O14   S    
C6    O4    S    
C28   H22   S    
C17   H29   S    
C1    O1    A    
C23   C32   A    
C12   C15   S    
C24   H10   S    
C5    C10   A    
O8    Zn2   S    
C33   O5    S    
C3    C36   S    
C36   O12   A    
C12   O9    A    
C31   C35   S    
C32   O6    S    
C21   H6    S    
C22   H9    S    
C3    H1    S    
C8    C10   A    
C17   C32   A    
C1    O8    A    
C19   H34   S    
C1    C14   S    
C13   C14   T    
