data_mof_unit_pretest_1647.cif
_audit_creation_date              2013-03-05T15:42:07-0500
_audit_creation_method            fapswitch 2.2
_symmetry_space_group_name_H-M    P1
_symmetry_Int_Tables_number       1
_space_group_crystal_system       triclinic
_cell_length_a                    21.718218
_cell_length_b                    21.720689
_cell_length_c                    47.155045
_cell_angle_alpha                 90.189379
_cell_angle_beta                  90.140933
_cell_angle_gamma                 89.993595
_cell_volume                      22244.4801407

loop_
_atom_site_label
_atom_site_type_symbol
_atom_site_description
_atom_site_fract_x
_atom_site_fract_y
_atom_site_fract_z
_atom_type_partial_charge
O1    O     O_R   0.999970 0.909590 0.023670 -0.629810
O2    O     O_R   0.090410 0.999970 0.023670 -0.600254
O3    O     O_R   0.000030 0.090410 0.023670 -0.594556
O4    O     O_R   0.909590 0.000030 0.023670 -0.628843
O5    O     O_R   0.499970 0.409590 0.523670 -0.596775
O6    O     O_R   0.590410 0.499970 0.523670 -0.600773
O7    O     O_R   0.500030 0.590410 0.523670 -0.596596
O8    O     O_R   0.409590 0.500030 0.523670 -0.600282
O9    O     O_R   0.000000 0.909590 0.976330 -0.565527
O10   O     O_R   0.090410 1.000000 0.976330 -0.596764
O11   O     O_R   0.000000 0.090410 0.976330 -0.600009
O12   O     O_R   0.909590 1.000000 0.976330 -0.566097
O13   O     O_R   0.500000 0.409590 0.476330 -0.598225
O14   O     O_R   0.590410 0.500000 0.476330 -0.595045
O15   O     O_R   0.500000 0.590410 0.476330 -0.598307
O16   O     O_R   0.409590 0.500000 0.476330 -0.595005
C1    C     C_R   0.995877 0.881041 0.999929 0.970058
C2    C     C_R   0.118944 0.996051 0.000025 0.979380
C3    C     C_R   0.003913 0.118950 0.000040 0.976663
C4    C     C_R   0.881039 0.004030 0.999959 0.967148
C5    C     C_R   0.496132 0.381067 0.499946 0.979225
C6    C     C_R   0.618945 0.496030 0.500022 0.978731
C7    C     C_R   0.503911 0.618950 0.500040 0.977635
C8    C     C_R   0.381042 0.503979 0.499969 0.979015
Zn1   Zn    Zn3+2 0.000000 0.000000 0.031610 1.019447
Zn2   Zn    Zn3+2 0.500000 0.500000 0.531610 1.042914
Zn3   Zn    Zn3+2 0.000000 0.000000 0.968400 1.083964
Zn4   Zn    Zn3+2 0.500000 0.500000 0.468400 1.052965
C9    C     C_2   0.717079 0.049914 0.983109 0.127283
C10   C     C_2   0.949917 0.716990 0.982996 0.137473
C11   C     C_2   0.282600 0.949094 0.983742 0.131792
C12   C     C_2   0.050607 0.282816 0.016451 0.132251
C13   C     C_2   0.217127 0.550198 0.483336 0.130551
C14   C     C_2   0.448944 0.217523 0.515779 0.132658
C15   C     C_2   0.782631 0.449270 0.483656 0.130934
C16   C     C_2   0.550602 0.782815 0.516454 0.132259
C17   C     C_2   0.684892 0.000273 0.992200 -0.398977
C18   C     C_2   0.999619 0.684891 0.992213 -0.396955
C19   C     C_2   0.315005 0.999359 0.992183 -0.401506
C20   C     C_2   0.000505 0.315141 0.007860 -0.404842
C21   C     C_2   0.184892 0.500364 0.492184 -0.400813
C22   C     C_2   0.499362 0.184990 0.507764 -0.404426
C23   C     C_2   0.815012 0.499426 0.492228 -0.400965
C24   C     C_2   0.500502 0.815141 0.507861 -0.404588
H1    H     H_    0.707829 0.955851 0.993803 0.162586
H2    H     H_    0.044019 0.707878 0.993910 0.163068
H3    H     H_    0.292160 0.043915 0.993243 0.162971
H4    H     H_    0.955927 0.292343 0.006733 0.162166
H5    H     H_    0.207791 0.455889 0.493576 0.163073
H6    H     H_    0.544001 0.207719 0.507086 0.162099
H7    H     H_    0.792158 0.543965 0.493406 0.162934
H8    H     H_    0.455924 0.792344 0.506732 0.162220
C25   C     C_2   0.783229 0.040074 0.978467 -0.003524
C26   C     C_2   0.959636 0.783092 0.978311 -0.001997
C27   C     C_2   0.216434 0.958685 0.978974 -0.009900
C28   C     C_2   0.040846 0.216748 0.021255 -0.008132
C29   C     C_2   0.283260 0.540417 0.478635 -0.009064
C30   C     C_2   0.458626 0.283575 0.520723 -0.009350
C31   C     C_2   0.716488 0.458940 0.478891 -0.009246
C32   C     C_2   0.540839 0.716748 0.521257 -0.008726
C33   C     C_2   0.815759 0.017431 0.000487 -0.464657
C34   C     C_2   0.982248 0.815790 0.000391 -0.471505
C35   C     C_2   0.184223 0.982930 0.000710 -0.465132
C36   C     C_2   0.016974 0.184235 0.999458 -0.462267
C37   C     C_2   0.315757 0.517237 0.500538 -0.463759
C38   C     C_2   0.483148 0.315810 0.499157 -0.461266
C39   C     C_2   0.684215 0.482814 0.500697 -0.463771
C40   C     C_2   0.516972 0.684235 0.499459 -0.461727
H9    H     H_    0.793006 0.010863 0.020799 0.172180
H10   H     H_    0.988598 0.793136 0.020750 0.172179
H11   H     H_    0.207200 0.990985 0.020930 0.176692
H12   H     H_    0.009271 0.206964 0.979213 0.180079
H13   H     H_    0.292992 0.510157 0.520811 0.177397
H14   H     H_    0.491447 0.292879 0.478958 0.180183
H15   H     H_    0.707144 0.490501 0.520958 0.177310
H16   H     H_    0.509274 0.706964 0.479213 0.180213
O17   O     O_R   0.500030 0.051130 0.958080 -0.621309
O18   O     O_R   0.948870 0.500030 0.958080 -0.621468
O19   O     O_R   0.499970 0.948870 0.958080 -0.620666
O20   O     O_R   0.051130 0.499970 0.958080 -0.613648
O21   O     O_R   0.000030 0.551130 0.458080 -0.621009
O22   O     O_R   0.448870 0.000030 0.458080 -0.614338
O23   O     O_R   0.999970 0.448870 0.458080 -0.620894
O24   O     O_R   0.551130 0.999970 0.458080 -0.613992
C41   C     C_R   0.500032 0.999907 0.944534 0.894130
C42   C     C_R   0.999921 0.500171 0.944528 0.900818
C43   C     C_R   0.000019 0.499904 0.444537 0.893650
C44   C     C_R   0.499928 0.000009 0.444522 0.906424
O25   O     O_R   0.590470 0.051110 0.000000 -0.636714
O26   O     O_R   0.948890 0.590470 0.000000 -0.637050
O27   O     O_R   0.409530 0.948890 0.000000 -0.637202
O28   O     O_R   0.051110 0.409530 0.000000 -0.637052
O29   O     O_R   0.090470 0.551110 0.500000 -0.637067
O30   O     O_R   0.448890 0.090470 0.500000 -0.637416
O31   O     O_R   0.909530 0.448890 0.500000 -0.637178
O32   O     O_R   0.551110 0.909530 0.500000 -0.637121
O33   O     O_R   0.590450 0.948970 0.000000 -0.607302
O34   O     O_R   0.051030 0.590450 0.000000 -0.606794
O35   O     O_R   0.409550 0.051030 0.000000 -0.606931
O36   O     O_R   0.948970 0.409550 0.000000 -0.606861
O37   O     O_R   0.090450 0.448970 0.500000 -0.606848
O38   O     O_R   0.551030 0.090450 0.500000 -0.606962
O39   O     O_R   0.909550 0.551030 0.500000 -0.606939
O40   O     O_R   0.448970 0.909550 0.500000 -0.606976
C45   C     C_R   0.619308 0.000279 0.998288 0.944032
C46   C     C_R   0.999696 0.619311 0.998293 0.942607
C47   C     C_R   0.380659 0.999657 0.998305 0.944814
C48   C     C_R   0.000327 0.380684 0.001693 0.947670
C49   C     C_R   0.119313 0.500294 0.498295 0.944930
C50   C     C_R   0.499660 0.119350 0.501642 0.947656
C51   C     C_R   0.880663 0.499668 0.498317 0.945005
C52   C     C_R   0.500327 0.880684 0.501695 0.947511
Zn5   Zn    Zn3+2 0.500010 0.068250 0.000000 0.980206
Zn6   Zn    Zn3+2 0.931750 0.500010 0.000000 0.979359
Zn7   Zn    Zn3+2 0.499990 0.931750 0.000000 0.979541
Zn8   Zn    Zn3+2 0.068250 0.499990 0.000000 0.980520
Zn9   Zn    Zn3+2 0.000010 0.568250 0.500000 0.980356
Zn10  Zn    Zn3+2 0.431750 0.000010 0.500000 0.980471
Zn11  Zn    Zn3+2 0.999990 0.431750 0.500000 0.980485
Zn12  Zn    Zn3+2 0.568250 0.999990 0.500000 0.980402
O41   O     O_R   0.499980 0.051120 0.041920 -0.619309
O42   O     O_R   0.948880 0.499980 0.041920 -0.620789
O43   O     O_R   0.500020 0.948880 0.041920 -0.619817
O44   O     O_R   0.051120 0.500020 0.041920 -0.626748
O45   O     O_R   0.999980 0.551120 0.541920 -0.619572
O46   O     O_R   0.448880 0.999980 0.541920 -0.626942
O47   O     O_R   0.000020 0.448880 0.541920 -0.619421
O48   O     O_R   0.551120 0.000020 0.541920 -0.627609
C53   C     C_R   0.499994 0.000096 0.055477 0.886248
C54   C     C_R   0.000072 0.499906 0.055488 0.880968
C55   C     C_R   0.999975 0.500103 0.555481 0.886810
C56   C     C_R   0.500070 0.999986 0.555485 0.876332
C57   C     C_R   0.038089 0.458922 0.190413 0.523936
C58   C     C_R   0.537269 0.040540 0.190500 0.521383
C59   C     C_R   0.962830 0.538950 0.190427 0.520649
C60   C     C_R   0.461229 0.961266 0.190268 0.521276
C61   C     C_R   0.538662 0.960115 0.690380 0.523733
C62   C     C_R   0.037713 0.540589 0.690470 0.521800
C63   C     C_R   0.462427 0.039214 0.690445 0.523590
C64   C     C_R   0.960266 0.462692 0.690341 0.521885
N1    N     N_R   0.000461 0.498916 0.176225 -0.358049
N2    N     N_R   0.499317 0.000859 0.176187 -0.357594
N3    N     N_R   0.500538 0.999685 0.676216 -0.358404
N4    N     N_R   0.999115 0.501447 0.676208 -0.357753
C65   C     C_R   0.961703 0.539388 0.220144 -0.031759
C66   C     C_R   0.460839 0.960133 0.219983 -0.032354
C67   C     C_R   0.039172 0.458538 0.220137 -0.034009
C68   C     C_R   0.537491 0.041743 0.220219 -0.032520
C69   C     C_R   0.461289 0.039531 0.720164 -0.033326
C70   C     C_R   0.959699 0.461911 0.720060 -0.032704
C71   C     C_R   0.539764 0.959658 0.720102 -0.033284
C72   C     C_R   0.037843 0.542092 0.720188 -0.032446
C73   C     C_R   0.000425 0.498978 0.235148 -0.009371
C74   C     C_R   0.499149 0.000932 0.235106 -0.009715
C75   C     C_R   0.500509 0.999552 0.735140 -0.009124
C76   C     C_R   0.998691 0.502154 0.735131 -0.009566
C77   C     C_R   0.923769 0.580342 0.234942 -0.178066
C78   C     C_R   0.421966 0.920081 0.234658 -0.178402
C79   C     C_R   0.077083 0.417619 0.234930 -0.176377
C80   C     C_R   0.576287 0.081823 0.235132 -0.177804
C81   C     C_R   0.422830 0.079938 0.734990 -0.175674
C82   C     C_R   0.919990 0.422783 0.734788 -0.177335
C83   C     C_R   0.578193 0.919174 0.734866 -0.175624
C84   C     C_R   0.077303 0.581610 0.735049 -0.176985
C85   C     C_R   0.422711 0.081619 0.764598 -0.052775
C86   C     C_R   0.918123 0.422915 0.764389 -0.052303
C87   C     C_R   0.578238 0.917329 0.764469 -0.052925
C88   C     C_R   0.078924 0.582016 0.764658 -0.052701
C89   C     C_R   0.923696 0.582149 0.264548 -0.052205
C90   C     C_R   0.420245 0.919851 0.264261 -0.051904
C91   C     C_R   0.077112 0.415883 0.264535 -0.052629
C92   C     C_R   0.577988 0.081986 0.264739 -0.052126
C93   C     C_R   0.460105 0.039437 0.780011 -0.080453
C94   C     C_R   0.959438 0.461300 0.779904 -0.079677
C95   C     C_R   0.540800 0.959418 0.779957 -0.080586
C96   C     C_R   0.037636 0.543745 0.780041 -0.080837
C97   C     C_R   0.960555 0.539552 0.279990 -0.080494
C98   C     C_R   0.460858 0.958890 0.279822 -0.080029
C99   C     C_R   0.040229 0.458516 0.279992 -0.080559
C100  C     C_R   0.537436 0.042837 0.280067 -0.080070
C101  C     C_R   0.500472 0.999469 0.765075 -0.005876
C102  C     C_R   0.998572 0.502418 0.765064 -0.006626
C103  C     C_R   0.000403 0.499014 0.265082 -0.006368
C104  C     C_R   0.499140 0.000895 0.265037 -0.007170
C105  C     C_R   0.457761 0.034054 0.809740 0.627100
C106  C     C_R   0.964877 0.459160 0.809646 0.626647
C107  C     C_R   0.543084 0.964659 0.809717 0.628125
C108  C     C_R   0.032323 0.546014 0.809784 0.628208
C109  C     C_R   0.958151 0.534307 0.309724 0.627221
C110  C     C_R   0.466374 0.956651 0.309559 0.627335
C111  C     C_R   0.042604 0.463858 0.309747 0.627857
C112  C     C_R   0.532047 0.044852 0.309807 0.627119
N5    N     N_R   0.500421 0.999343 0.823724 -0.324942
N6    N     N_R   0.998713 0.502556 0.823710 -0.324232
N7    N     N_R   0.000381 0.499121 0.323733 -0.324828
N8    N     N_R   0.499267 0.000680 0.323678 -0.323968
O49   O     O_2   0.073840 0.419201 0.175772 -0.539209
O50   O     O_2   0.575181 0.078215 0.175988 -0.545395
O51   O     O_2   0.927115 0.578668 0.175804 -0.546712
O52   O     O_2   0.423386 0.923569 0.175529 -0.546333
O53   O     O_2   0.574881 0.920863 0.675715 -0.539492
O54   O     O_2   0.076335 0.577444 0.675908 -0.544682
O55   O     O_2   0.426232 0.078545 0.675850 -0.539384
O56   O     O_2   0.921839 0.425507 0.675648 -0.544768
H17   H     H_    0.895358 0.612833 0.223393 0.215527
H18   H     H_    0.391014 0.890001 0.223015 0.215693
H19   H     H_    0.105512 0.385104 0.223370 0.216277
H20   H     H_    0.607231 0.111949 0.223671 0.215917
H21   H     H_    0.394008 0.112107 0.723464 0.216389
H22   H     H_    0.888516 0.393181 0.723182 0.216226
H23   H     H_    0.607043 0.887071 0.723285 0.216328
H24   H     H_    0.108823 0.611062 0.723549 0.215824
O57   O     O_2   0.412917 0.061953 0.824763 -0.511294
O58   O     O_2   0.937984 0.413749 0.824601 -0.517114
O59   O     O_2   0.587886 0.936677 0.824750 -0.510440
O60   O     O_2   0.059247 0.591490 0.824883 -0.512015
O61   O     O_2   0.913655 0.562811 0.324727 -0.511422
O62   O     O_2   0.440442 0.910595 0.324456 -0.516657
O63   O     O_2   0.087071 0.435389 0.324796 -0.511370
O64   O     O_2   0.558029 0.090799 0.324954 -0.516612
C113  C     C_R   0.477403 0.947700 0.868981 -0.008075
C114  C     C_R   0.051623 0.480260 0.868853 -0.010058
C115  C     C_R   0.523439 0.051225 0.869122 -0.007333
C116  C     C_R   0.947026 0.523819 0.869210 -0.007285
C117  C     C_R   0.976781 0.447840 0.369011 -0.007834
C118  C     C_R   0.552311 0.979887 0.368940 -0.009597
C119  C     C_R   0.023929 0.550865 0.369111 -0.007479
C120  C     C_R   0.446703 0.020916 0.369055 -0.009492
C121  C     C_R   0.478743 0.948226 0.898640 -0.225021
C122  C     C_R   0.051487 0.481025 0.898514 -0.231115
C123  C     C_R   0.521842 0.051003 0.898771 -0.225687
C124  C     C_R   0.947711 0.521690 0.898851 -0.228570
C125  C     C_R   0.978147 0.448402 0.398669 -0.225607
C126  C     C_R   0.552031 0.981142 0.398597 -0.233737
C127  C     C_R   0.022311 0.550725 0.398761 -0.225776
C128  C     C_R   0.447304 0.019301 0.398703 -0.233996
H25   H     H_    0.461167 0.909050 0.910277 0.191828
H26   H     H_    0.091276 0.464217 0.910051 0.194779
H27   H     H_    0.539331 0.090297 0.910511 0.191317
H28   H     H_    0.908170 0.538055 0.910664 0.191939
H29   H     H_    0.960161 0.409439 0.410325 0.191494
H30   H     H_    0.592171 0.965470 0.410216 0.195454
H31   H     H_    0.040212 0.589850 0.410491 0.191258
H32   H     H_    0.407293 0.034847 0.410408 0.195375
C129  C     C_R   0.500197 0.999705 0.913511 -0.072035
C130  C     C_R   0.999696 0.500910 0.913495 -0.076690
C131  C     C_R   0.000146 0.499678 0.413517 -0.071937
C132  C     C_R   0.499749 0.000135 0.413473 -0.082192
C133  C     C_R   0.500459 0.999400 0.854121 0.168525
C134  C     C_R   0.999153 0.502299 0.854104 0.169659
C135  C     C_R   0.000400 0.499256 0.354129 0.168396
C136  C     C_R   0.499427 0.000497 0.354071 0.170371
C137  C     C_R   0.054245 0.513859 0.131066 -0.087444
C138  C     C_R   0.482568 0.053777 0.130919 -0.087220
C139  C     C_R   0.946588 0.484145 0.130917 -0.083093
C140  C     C_R   0.516692 0.947430 0.130979 -0.087874
C141  C     C_R   0.554096 0.015082 0.631029 -0.081922
C142  C     C_R   0.983130 0.554306 0.630880 -0.087070
C143  C     C_R   0.446720 0.984360 0.630931 -0.081880
C144  C     C_R   0.015761 0.447498 0.631061 -0.086828
H33   H     H_    0.095944 0.525674 0.142485 0.155842
H34   H     H_    0.468858 0.094983 0.142249 0.156944
H35   H     H_    0.904954 0.472160 0.142218 0.156699
H36   H     H_    0.530255 0.906362 0.142358 0.156504
H37   H     H_    0.595691 0.027354 0.642427 0.156850
H38   H     H_    0.969991 0.595758 0.642163 0.156871
H39   H     H_    0.405209 0.972034 0.642250 0.156795
H40   H     H_    0.028721 0.406303 0.642490 0.156877
C145  C     C_R   0.054286 0.513799 0.101556 -0.207826
C146  C     C_R   0.483160 0.053770 0.101415 -0.208214
C147  C     C_R   0.946329 0.484810 0.101413 -0.201016
C148  C     C_R   0.516460 0.947065 0.101474 -0.208948
C149  C     C_R   0.554132 0.014801 0.601520 -0.200351
C150  C     C_R   0.983742 0.554137 0.601378 -0.207425
C151  C     C_R   0.446443 0.984829 0.601426 -0.199367
C152  C     C_R   0.015587 0.446993 0.601550 -0.207671
H41   H     H_    0.096335 0.525538 0.090521 0.167510
H42   H     H_    0.469875 0.095259 0.090287 0.167791
H43   H     H_    0.904197 0.473283 0.090267 0.168641
H44   H     H_    0.529860 0.905429 0.090395 0.167438
H45   H     H_    0.596061 0.026858 0.590462 0.168169
H46   H     H_    0.971047 0.595764 0.590214 0.168133
H47   H     H_    0.404420 0.972839 0.590296 0.168309
H48   H     H_    0.028426 0.405122 0.590517 0.168058
C153  C     C_R   0.000232 0.499524 0.086536 -0.047353
C154  C     C_R   0.499891 0.000319 0.086509 -0.050186
C155  C     C_R   0.500221 0.999879 0.586528 -0.043802
C156  C     C_R   0.999782 0.500400 0.586522 -0.050776
C157  C     C_R   0.000453 0.498907 0.145849 0.294112
C158  C     C_R   0.499527 0.000692 0.145810 0.293772
C159  C     C_R   0.500461 0.999690 0.645839 0.292791
C160  C     C_R   0.999340 0.501078 0.645831 0.293548
C161  C     C_3   0.688587 0.113948 0.979608 -0.347637
C162  C     C_3   0.732673 0.165239 0.970620 -0.833545
H49   H     H_    0.773840 0.166583 0.984635 0.268146
H50   H     H_    0.746666 0.159236 0.948175 0.278671
H51   H     H_    0.708793 0.210311 0.972328 0.254996
H52   H     H_    0.650789 0.111560 0.963702 0.230288
H53   H     H_    0.669374 0.128602 0.000376 0.230290
C163  C     C_3   0.885936 0.688376 0.979318 -0.350107
C164  C     C_3   0.834593 0.732303 0.970101 -0.829397
H54   H     H_    0.833145 0.773589 0.984048 0.264059
H55   H     H_    0.840638 0.746097 0.947653 0.280739
H56   H     H_    0.789551 0.708376 0.971699 0.254812
H57   H     H_    0.888440 0.650472 0.963463 0.231387
H58   H     H_    0.871255 0.669291 0.000060 0.228603
C165  C     C_3   0.310762 0.884653 0.981229 -0.346852
C166  C     C_3   0.266260 0.832711 0.973272 -0.830586
H59   H     H_    0.225405 0.832921 0.987399 0.267291
H60   H     H_    0.251781 0.836545 0.950775 0.280496
H61   H     H_    0.289995 0.787742 0.975724 0.253877
H62   H     H_    0.348140 0.885383 0.965171 0.231150
H63   H     H_    0.330444 0.871872 0.002169 0.229013
C167  C     C_3   0.115057 0.310908 0.019051 -0.340121
C168  C     C_3   0.166812 0.266438 0.027175 -0.843735
H64   H     H_    0.162603 0.252296 0.049667 0.276095
H65   H     H_    0.166738 0.225376 0.013069 0.271198
H66   H     H_    0.211862 0.290049 0.024835 0.252161
H67   H     H_    0.128102 0.330184 0.998113 0.230969
H68   H     H_    0.114205 0.348583 0.035056 0.229938
C169  C     C_3   0.188755 0.614387 0.480221 -0.345825
C170  C     C_3   0.232966 0.665898 0.471629 -0.831837
H69   H     H_    0.274081 0.666712 0.485684 0.268077
H70   H     H_    0.247035 0.660617 0.449156 0.279232
H71   H     H_    0.209156 0.710951 0.473632 0.254306
H72   H     H_    0.151043 0.612554 0.464257 0.230159
H73   H     H_    0.169461 0.628433 0.501062 0.229750
C171  C     C_3   0.384258 0.189741 0.517571 -0.339411
C172  C     C_3   0.332257 0.234659 0.524820 -0.843867
H74   H     H_    0.335241 0.249420 0.547321 0.275771
H75   H     H_    0.333333 0.275327 0.510607 0.271294
H76   H     H_    0.287252 0.211176 0.521901 0.252489
H77   H     H_    0.372283 0.169902 0.496519 0.230708
H78   H     H_    0.384066 0.152557 0.533709 0.230580
C173  C     C_3   0.810817 0.384885 0.480932 -0.345114
C174  C     C_3   0.766332 0.333083 0.472764 -0.832879
H79   H     H_    0.725463 0.333033 0.486882 0.267954
H80   H     H_    0.751872 0.337336 0.450281 0.279195
H81   H     H_    0.790070 0.288073 0.475046 0.254242
H82   H     H_    0.848234 0.385891 0.464896 0.230543
H83   H     H_    0.830457 0.371761 0.501835 0.229581
C175  C     C_3   0.615051 0.810907 0.519058 -0.340173
C176  C     C_3   0.666803 0.766438 0.527187 -0.843190
H84   H     H_    0.662586 0.752297 0.549678 0.276202
H85   H     H_    0.666734 0.725375 0.513081 0.271159
H86   H     H_    0.711854 0.790049 0.524851 0.252220
H87   H     H_    0.628103 0.830182 0.498121 0.230893
H88   H     H_    0.614194 0.848585 0.535063 0.230088
C177  C     C_2   0.809454 0.054621 0.950215 0.984142
O65   O     O_2   0.782908 0.036916 0.928799 -0.594646
O66   O     O_R   0.861742 0.091874 0.948027 -0.792545
H89   H     H_    0.874160 0.099421 0.927623 0.348743
C178  C     C_2   0.945562 0.808490 0.949804 0.973522
O67   O     O_2   0.914569 0.855192 0.947319 -0.607617
O68   O     O_R   0.964140 0.775853 0.925709 -0.783100
H90   H     H_    0.950702 0.796462 0.907455 0.356439
C179  C     C_2   0.189684 0.941566 0.951018 0.970710
O69   O     O_2   0.216242 0.956625 0.929289 -0.600336
O70   O     O_R   0.136841 0.904873 0.949530 -0.788547
H91   H     H_    0.124078 0.895370 0.929291 0.352394
C180  C     C_2   0.057304 0.190488 0.049308 0.968338
O71   O     O_2   0.041688 0.217404 0.070937 -0.610421
O72   O     O_R   0.094023 0.137720 0.051023 -0.792177
H92   H     H_    0.103052 0.125339 0.071321 0.343827
C181  C     C_2   0.309556 0.555833 0.450495 0.971616
O73   O     O_2   0.282900 0.539048 0.428953 -0.601690
O74   O     O_R   0.362040 0.592887 0.448581 -0.790552
H93   H     H_    0.374477 0.601112 0.428236 0.348258
C182  C     C_2   0.441133 0.310154 0.548627 0.967981
O75   O     O_2   0.455689 0.283327 0.570388 -0.609909
O76   O     O_R   0.404634 0.363131 0.550008 -0.792536
H94   H     H_    0.394827 0.375725 0.570218 0.344419
C183  C     C_2   0.689906 0.442492 0.450821 0.971553
O77   O     O_2   0.716524 0.458188 0.429204 -0.601663
O78   O     O_R   0.637173 0.405699 0.449079 -0.791036
H95   H     H_    0.624549 0.396689 0.428775 0.348343
C184  C     C_2   0.557287 0.690487 0.549312 0.968066
O79   O     O_2   0.541659 0.717400 0.570940 -0.610036
O80   O     O_R   0.594007 0.637720 0.551030 -0.792110
H96   H     H_    0.603023 0.625335 0.571329 0.344375
C185  C     C_2   0.386473 0.131655 0.777979 1.008911
O81   O     O_2   0.410297 0.165288 0.795732 -0.554594
O82   O     O_R   0.326051 0.142518 0.769009 -0.778738
H97   H     H_    0.306359 0.178536 0.779279 0.361961
C186  C     C_2   0.868773 0.385780 0.777642 1.007216
O83   O     O_2   0.834688 0.409009 0.795300 -0.555259
O84   O     O_R   0.859065 0.325144 0.768658 -0.780055
H98   H     H_    0.823425 0.304806 0.778837 0.361593
C187  C     C_2   0.614457 0.867231 0.777741 1.009108
O85   O     O_2   0.590604 0.833504 0.795291 -0.554372
O86   O     O_R   0.674899 0.856423 0.768889 -0.778574
H99   H     H_    0.694577 0.820357 0.779063 0.362088
C188  C     C_2   0.128060 0.619540 0.778064 1.007829
O87   O     O_2   0.162361 0.596619 0.795727 -0.554127
O88   O     O_R   0.137338 0.680190 0.769212 -0.779140
H100  H     H_    0.172876 0.700817 0.779486 0.362185
C189  C     C_2   0.888135 0.632719 0.277893 1.007595
O89   O     O_2   0.912405 0.666078 0.295628 -0.555430
O90   O     O_R   0.827876 0.644386 0.268906 -0.779766
H101  H     H_    0.808674 0.680708 0.279149 0.361515
C190  C     C_2   0.371696 0.881615 0.277474 1.006394
O91   O     O_2   0.337198 0.904001 0.295191 -0.555510
O92   O     O_R   0.363187 0.820872 0.268385 -0.781025
H102  H     H_    0.327994 0.799732 0.278545 0.361135
C191  C     C_2   0.112664 0.365355 0.277845 1.008492
O93   O     O_2   0.088382 0.332050 0.295441 -0.554756
O94   O     O_R   0.172930 0.353662 0.268976 -0.779388
H103  H     H_    0.192125 0.317372 0.279177 0.361754
C192  C     C_2   0.626484 0.120255 0.278197 1.006698
O95   O     O_2   0.661118 0.097829 0.295858 -0.555348
O96   O     O_R   0.634789 0.181085 0.269400 -0.780197
H104  H     H_    0.669967 0.202246 0.279707 0.361481
C193  C     C_2   0.450855 0.893090 0.854144 0.975800
O97   O     O_2   0.449028 0.843314 0.866183 -0.589618
O98   O     O_R   0.426660 0.898324 0.826750 -0.799245
H105  H     H_    0.410095 0.857863 0.819144 0.365390
C194  C     C_2   0.106669 0.455342 0.853892 0.969718
O99   O     O_2   0.156727 0.454878 0.865849 -0.588945
O100  O     O_R   0.101564 0.431130 0.826474 -0.802018
H106  H     H_    0.142333 0.415771 0.818775 0.364768
C195  C     C_2   0.550112 0.105685 0.854441 0.974802
O101  O     O_2   0.551869 0.155578 0.866535 -0.590534
O102  O     O_R   0.574503 0.100175 0.827134 -0.799454
H107  H     H_    0.591135 0.140556 0.819630 0.365054
C196  C     C_2   0.891748 0.549475 0.854647 0.972540
O103  O     O_2   0.842024 0.550033 0.866785 -0.591755
O104  O     O_R   0.896275 0.574262 0.827401 -0.799971
H108  H     H_    0.855415 0.590109 0.819976 0.364790
C197  C     C_2   0.949614 0.393505 0.354199 0.975411
O105  O     O_2   0.947267 0.343766 0.366251 -0.590210
O106  O     O_R   0.925420 0.398973 0.326815 -0.799495
H109  H     H_    0.908397 0.358686 0.319226 0.365063
C198  C     C_2   0.607978 0.956024 0.354105 0.969557
O107  O     O_2   0.657972 0.956809 0.366117 -0.590105
O108  O     O_R   0.603550 0.931391 0.326741 -0.801601
H110  H     H_    0.644688 0.916849 0.319124 0.364505
C199  C     C_2   0.051211 0.604994 0.354409 0.974969
O109  O     O_2   0.053506 0.654892 0.366480 -0.590514
O110  O     O_R   0.075570 0.599149 0.327110 -0.799910
H111  H     H_    0.092658 0.639327 0.319590 0.364670
C200  C     C_2   0.390877 0.044959 0.354355 0.969709
O111  O     O_2   0.341017 0.044054 0.366366 -0.590215
O112  O     O_R   0.395007 0.069893 0.327124 -0.801268
H112  H     H_    0.353789 0.084531 0.319590 0.364664

loop_
_geom_bond_atom_site_label_1
_geom_bond_atom_site_label_2
_geom_bond_distance
_ccdc_geom_bond_type
C170  H70   1.109173 S    
O104  H108  1.013792 S    
C179  O69   1.222593 D    
O8    Zn2   1.998018 S    
C196  O103  1.223508 D    
C14   C22   1.356925 D    
C36   H12   1.088775 S    
C151  C155  1.403614 A    
C199  O109  1.223505 D    
C96   C102  1.420326 A    
O29   Zn9   1.999553 S    
C90   C98   1.424207 A    
C115  C195  1.490517 S    
C119  C135  1.417714 A    
C175  H87   1.111094 S    
C189  O90   1.398028 S    
C59   O51   1.350021 S    
C187  O86   1.398021 S    
C170  H71   1.110619 S    
O21   Zn9   2.010209 S    
C34   H10   1.088701 S    
C68   C80   1.398393 A    
O23   Zn11  2.012623 S    
O20   C42   1.281333 A    
C77   C89   1.396523 A    
O22   C44   1.281341 A    
C72   C76   1.406806 A    
C11   C165  1.531791 S    
C99   C111  1.408324 A    
C150  H46   1.083077 S    
O3    C3    1.279859 A    
C71   C75   1.406878 A    
O33   Zn7   1.999961 S    
C122  C130  1.397350 A    
C166  H61   1.110620 S    
C71   C83   1.398396 A    
O33   C45   1.281559 A    
C147  H43   1.083050 S    
C193  O98   1.398327 S    
C107  N5    1.364512 A    
O39   Zn9   1.999961 S    
C146  C154  1.403486 A    
O17   Zn5   2.010209 S    
C21   H5    1.088584 S    
C178  O68   1.397526 S    
C109  O61   1.348371 S    
C96   C108  1.408274 A    
O25   Zn5   1.999553 S    
C86   C94   1.424241 A    
Zn7   O43   2.010242 S    
O12   Zn3   1.999738 S    
O27   C47   1.271091 A    
C84   C88   1.396565 A    
C141  H37   1.082908 S    
C29   C37   1.348389 D    
C175  C176  1.530773 S    
C82   H22   1.084487 S    
O31   Zn11  1.999553 S    
C167  C168  1.530775 S    
C164  H54   1.110823 S    
C171  H77   1.111153 S    
C65   C77   1.398378 A    
O68   H90   1.013815 S    
C66   C74   1.406829 A    
C12   C167  1.531497 S    
O12   C4    1.279238 A    
C80   C92   1.396524 A    
C13   C169  1.531631 S    
C79   H19   1.084505 S    
O28   Zn8   1.999846 S    
C127  H31   1.084051 S    
C8    C37   1.447090 S    
C24   C52   1.453988 S    
C35   H11   1.088722 S    
C140  H36   1.082917 S    
C187  O85   1.223158 D    
C149  C155  1.403648 A    
C16   C24   1.356694 D    
C150  C156  1.403632 A    
O22   Zn10  2.012309 S    
C121  H25   1.084024 S    
O82   H97   1.013878 S    
O19   C41   1.281242 A    
C163  C164  1.530623 S    
C19   H3    1.088560 S    
C164  H56   1.110617 S    
C137  H33   1.082906 S    
C20   H4    1.088592 S    
C57   O49   1.349993 S    
C78   C90   1.396516 A    
O24   C44   1.281341 A    
C174  H79   1.110836 S    
O78   H95   1.013729 S    
C26   C178  1.485836 S    
C43   C131  1.462713 S    
C188  O87   1.223156 D    
O34   C46   1.281465 A    
C97   C109  1.408162 A    
C69   C75   1.406864 A    
C149  H45   1.083056 S    
C31   C183  1.485297 S    
C181  O73   1.222598 D    
C62   O54   1.350004 S    
C10   C163  1.531515 S    
C55   C156  1.463744 S    
C84   H24   1.084503 S    
C92   C192  1.482039 S    
C124  C130  1.397637 A    
O26   Zn6   1.999846 S    
C67   C73   1.406915 A    
O47   C55   1.281455 A    
C6    C39   1.446566 S    
C60   O52   1.350015 S    
C25   C177  1.485097 S    
C173  C174  1.530783 S    
O4    C4    1.280371 A    
O5    C5    1.279555 A    
C169  C170  1.530701 S    
O70   H91   1.013742 S    
C14   C30   1.467846 S    
C192  O95   1.223159 D    
C138  C158  1.400773 A    
C60   C66   1.401532 A    
C100  C104  1.420229 A    
C186  O84   1.398034 S    
O10   Zn3   1.997929 S    
C144  C160  1.400872 A    
C161  H53   1.111030 S    
C195  O101  1.223508 D    
O19   Zn7   2.012623 S    
C5    C38   1.445563 S    
C142  C150  1.391248 A    
C128  C132  1.397730 A    
O100  H106  1.013790 S    
C91   C191  1.482084 S    
C94   C102  1.420200 A    
O4    Zn1   1.998018 S    
C197  O105  1.223506 D    
C10   C26   1.468750 S    
C10   C18   1.356362 D    
O7    Zn2   2.000356 S    
C15   C31   1.468608 S    
O10   C2    1.279486 A    
C64   O56   1.350003 S    
C117  C197  1.490488 S    
O90   H101  1.013905 S    
C38   H14   1.088796 S    
C86   C186  1.482111 S    
C165  H62   1.111655 S    
C4    C33   1.447568 S    
C15   C173  1.531682 S    
C31   C39   1.348124 D    
C63   N3    1.367931 A    
O28   C48   1.271330 A    
C27   C35   1.348021 D    
C60   N2    1.367986 A    
N6    C134  1.433244 S    
C57   C67   1.401810 A    
C144  H40   1.082913 S    
C15   C23   1.356717 D    
C116  C134  1.417461 A    
C162  H49   1.110827 S    
C95   C101  1.420290 A    
C121  C129  1.397304 A    
C88   C188  1.481979 S    
C24   H8    1.088593 S    
O17   C41   1.281080 A    
C148  H44   1.083086 S    
C21   C49   1.453822 S    
C113  C193  1.490498 S    
C172  H75   1.110855 S    
C91   C99   1.424330 A    
C123  C129  1.397294 A    
C23   C51   1.453767 S    
C174  H81   1.110619 S    
C89   C97   1.424279 A    
C194  O100  1.398332 S    
C166  H60   1.109164 S    
C28   C180  1.485160 S    
O36   C48   1.281915 A    
O20   Zn8   2.010508 S    
O36   Zn6   2.000090 S    
C87   C187  1.482037 S    
C9    C161  1.531509 S    
O40   C52   1.281908 A    
C76   C102  1.411493 A    
C125  C131  1.397244 A    
C152  H48   1.083071 S    
C198  O108  1.398346 S    
C17   C45   1.453709 S    
C161  C162  1.530639 S    
C44   C132  1.464115 S    
O45   C55   1.281233 A    
O106  H109  1.013825 S    
O46   C56   1.281280 A    
N8    C136  1.433183 S    
C145  H41   1.083051 S    
C89   C189  1.482096 S    
C22   H6    1.088594 S    
C114  C134  1.417624 A    
C126  H30   1.083903 S    
C176  H85   1.110840 S    
C39   H15   1.088724 S    
C177  O66   1.398701 S    
C9    C17   1.356353 D    
C142  H38   1.082922 S    
C173  H83   1.111075 S    
C141  C159  1.400697 A    
C87   C95   1.424307 A    
O9    C1    1.279066 A    
C167  H67   1.111094 S    
C88   C96   1.424293 A    
C168  H66   1.110618 S    
C106  N6    1.364521 A    
C171  C172  1.530914 S    
C30   C182  1.485364 S    
C119  C127  1.398697 A    
C75   C101  1.411567 A    
C66   C78   1.398394 A    
C40   H16   1.088777 S    
O1    C1    1.280865 A    
C118  C126  1.398667 A    
O14   C6    1.279412 A    
C22   C50   1.453759 S    
O30   C50   1.270717 A    
C139  C157  1.400601 A    
C175  H88   1.111586 S    
C189  O89   1.223173 D    
O13   C5    1.279083 A    
O30   Zn10  1.999846 S    
O6    Zn2   1.999825 S    
C61   O53   1.349995 S    
O7    C7    1.279846 A    
O8    C8    1.279872 A    
C105  O57   1.348366 S    
C111  N7    1.364541 A    
C184  O80   1.398673 S    
C95   C107  1.408322 A    
C144  C152  1.391586 A    
C59   N1    1.367921 A    
Zn5   O41   2.012662 S    
C138  H34   1.082913 S    
C117  C135  1.417701 A    
O25   C45   1.271716 A    
C16   C175  1.531493 S    
Zn9   O45   2.012662 S    
O29   C49   1.271480 A    
C182  O76   1.398673 S    
Zn11  O47   2.010242 S    
N2    C158  1.432445 S    
O23   C43   1.281138 A    
C193  O97   1.223504 D    
C178  O67   1.223134 D    
C108  O60   1.348330 S    
O80   H96   1.013729 S    
N4    C160  1.432474 S    
C118  C136  1.417439 A    
C180  O72   1.398671 S    
O11   C3    1.279259 A    
C177  O65   1.222587 D    
C79   C91   1.396658 A    
C112  N8    1.364488 A    
C183  O78   1.398691 S    
C173  H82   1.111663 S    
C98   C110  1.408041 A    
C200  O112  1.398352 S    
C56   C155  1.463825 S    
C195  O102  1.398326 S    
O37   C49   1.281853 A    
O76   H94   1.013726 S    
O6    C6    1.279693 A    
O39   C51   1.282117 A    
C171  H78   1.111551 S    
C126  C132  1.397663 A    
C82   C86   1.396528 A    
O66   H89   1.013726 S    
C137  C145  1.391558 A    
C59   C65   1.401610 A    
O72   H92   1.013729 S    
O13   Zn4   2.000268 S    
C143  C151  1.391351 A    
C165  H63   1.111081 S    
C27   C179  1.485482 S    
C20   C48   1.453988 S    
C92   C100  1.424246 A    
C164  H55   1.109204 S    
C170  H69   1.110832 S    
C93   C101  1.420260 A    
C168  H64   1.109162 S    
C179  O70   1.398818 S    
C118  C198  1.490423 S    
C196  O104  1.398335 S    
O18   Zn6   2.012309 S    
C68   C74   1.406832 A    
C110  O62   1.348371 S    
C115  C123  1.398644 A    
C190  O91   1.223157 D    
O40   Zn10  2.000090 S    
C116  C196  1.490537 S    
C199  O110  1.398324 S    
C32   C184  1.485169 S    
C70   C82   1.398374 A    
C165  C166  1.530828 S    
C78   H18   1.084487 S    
O3    Zn1   2.000356 S    
O26   C46   1.271755 A    
C162  H51   1.110618 S    
C174  H80   1.109163 S    
C105  N5    1.364498 A    
C26   C34   1.349898 D    
C62   C72   1.401659 A    
C97   C103  1.420272 A    
C81   H21   1.084500 S    
C63   C69   1.401650 A    
O110  H111  1.013827 S    
C1    C34   1.448157 S    
C58   N2    1.367982 A    
O32   C52   1.271338 A    
C109  N7    1.364497 A    
C3    C36   1.446511 S    
O24   Zn12  2.010508 S    
C93   C105  1.408176 A    
C77   H17   1.084506 S    
O21   C43   1.281075 A    
C113  C133  1.417691 A    
C85   C185  1.482046 S    
C81   C85   1.396527 A    
O38   C50   1.282450 A    
C69   C81   1.398362 A    
O38   Zn12  2.000090 S    
O9    Zn3   2.000268 S    
C186  O83   1.223162 D    
C152  C156  1.403513 A    
C163  H58   1.111027 S    
Zn8   O44   2.012341 S    
C90   C190  1.482091 S    
C29   C181  1.485160 S    
C64   N4    1.367929 A    
O41   C53   1.281267 A    
O35   Zn5   1.999961 S    
O88   H100  1.013871 S    
Zn12  O48   2.012341 S    
O35   C47   1.282403 A    
C57   N1    1.367884 A    
C117  C125  1.398760 A    
C146  H42   1.083085 S    
C181  O74   1.398699 S    
C63   O55   1.350020 S    
C23   H7    1.088587 S    
O15   Zn4   1.997837 S    
O27   Zn7   1.999553 S    
O2    Zn1   1.999825 S    
C143  H39   1.082915 S    
O5    Zn2   1.997926 S    
C32   C40   1.347828 D    
C113  C121  1.398816 A    
O96   H104  1.013872 S    
C185  O82   1.398020 S    
C62   N4    1.368001 A    
C11   C27   1.468890 S    
C85   C93   1.424281 A    
C12   C28   1.469016 S    
C142  C160  1.400616 A    
C120  C136  1.417373 A    
O16   Zn4   1.999738 S    
C176  H84   1.109165 S    
O2    C2    1.279523 A    
C172  H74   1.109147 S    
O92   H102  1.013873 S    
C67   C79   1.398405 A    
C140  C158  1.400806 A    
C194  O99   1.223495 D    
O86   H99   1.013878 S    
C139  C147  1.391373 A    
C19   C47   1.454137 S    
C140  C148  1.391298 A    
C145  C153  1.403739 A    
C53   C154  1.463319 S    
C116  C124  1.398706 A    
C169  H73   1.111050 S    
C2    C35   1.446382 S    
C191  O94   1.398027 S    
C148  C154  1.403414 A    
C14   C171  1.531671 S    
C161  H52   1.111706 S    
C37   H13   1.088718 S    
C123  H27   1.084036 S    
C125  H29   1.084045 S    
C30   C38   1.347427 D    
C73   C103  1.411552 A    
C74   C104  1.411382 A    
O94   H103  1.013902 S    
O11   Zn3   1.997837 S    
C192  O96   1.398020 S    
C163  H57   1.111719 S    
C110  N8    1.364480 A    
C65   C73   1.406856 A    
O18   C42   1.281084 A    
O15   C7    1.279270 A    
C61   N3    1.367938 A    
C108  N6    1.364455 A    
C42   C130  1.463519 S    
C70   C76   1.406897 A    
O43   C53   1.281203 A    
O1    Zn1   1.997926 S    
C114  C194  1.490429 S    
C25   C33   1.348672 D    
C54   C153  1.464140 S    
O48   C56   1.281388 A    
C127  C131  1.397211 A    
C190  O92   1.398028 S    
C147  C153  1.403709 A    
C99   C103  1.420267 A    
C197  O106  1.398321 S    
C167  H68   1.111588 S    
C107  O59   1.348345 S    
C168  H65   1.110840 S    
C18   H2    1.088587 S    
O44   C54   1.281392 A    
O37   Zn11  1.999961 S    
C13   C21   1.356619 D    
C100  C112  1.408089 A    
C111  O63   1.348349 S    
O102  H107  1.013797 S    
C83   H23   1.084493 S    
C138  C146  1.391358 A    
N7    C135  1.433355 S    
C188  O88   1.398009 S    
C7    C40   1.446511 S    
C18   C46   1.453943 S    
C83   C87   1.396627 A    
O74   H93   1.013733 S    
O34   Zn8   2.000090 S    
O98   H105  1.013797 S    
C143  C159  1.400660 A    
C28   C36   1.347826 D    
C120  C200  1.490432 S    
C80   H20   1.084493 S    
C114  C122  1.398696 A    
C184  O79   1.222590 D    
C72   C84   1.398396 A    
N3    C159  1.432440 S    
N5    C133  1.433324 S    
C172  H76   1.110619 S    
C122  H26   1.083935 S    
C112  O64   1.348357 S    
C64   C70   1.401634 A    
C151  H47   1.083062 S    
C166  H59   1.110835 S    
C182  O75   1.222596 D    
C33   H9    1.088676 S    
C58   O50   1.350003 S    
C13   C29   1.469157 S    
O32   Zn12  1.999846 S    
C137  C157  1.400649 A    
C139  H35   1.082915 S    
C16   C32   1.469020 S    
N1    C157  1.432381 S    
C58   C68   1.401583 A    
C180  O71   1.222591 D    
C141  C149  1.391517 A    
C128  H32   1.083901 S    
O112  H112  1.013788 S    
C41   C129  1.462925 S    
O31   C51   1.271205 A    
C183  O77   1.222608 D    
C94   C106  1.408077 A    
C162  H50   1.109185 S    
C115  C133  1.417647 A    
C200  O111  1.223493 D    
C185  O81   1.223159 D    
C9    C25   1.469272 S    
C106  O58   1.348385 S    
C11   C19   1.357062 D    
C169  H72   1.111692 S    
C191  O93   1.223174 D    
C12   C20   1.356697 D    
C120  C128  1.398638 A    
C119  C199  1.490498 S    
O108  H110  1.013790 S    
Zn6   O42   2.010547 S    
O16   C8    1.279509 A    
C198  O107  1.223493 D    
C176  H86   1.110616 S    
C124  H28   1.083995 S    
C61   C71   1.401770 A    
Zn10  O46   2.010547 S    
O14   Zn4   1.997929 S    
C17   H1    1.088594 S    
O42   C54   1.281388 A    
C98   C104  1.420213 A    
O84   H98   1.013871 S    
