data_mof_unit_pretest_246.cif
_audit_creation_date              2013-03-05T16:12:13-0500
_audit_creation_method            fapswitch 2.2
_symmetry_space_group_name_H-M    P1
_symmetry_Int_Tables_number       1
_space_group_crystal_system       triclinic
_cell_length_a                    10.710477
_cell_length_b                    9.526977
_cell_length_c                    27.779648
_cell_angle_alpha                 90.264195
_cell_angle_beta                  90.180528
_cell_angle_gamma                 89.969907
_cell_volume                      2834.54815024

loop_
_atom_site_label
_atom_site_type_symbol
_atom_site_description
_atom_site_fract_x
_atom_site_fract_y
_atom_site_fract_z
_atom_type_partial_charge
O1    O     O_R   0.317570 0.620260 0.500030 -0.565919
O2    O     O_R   0.317570 0.379740 0.500030 -0.559515
C1    C     C_R   0.260015 0.500225 0.500001 0.785483
O3    O     O_R   0.499900 0.620250 0.430280 -0.505877
O4    O     O_R   0.499900 0.379750 0.430280 -0.562814
C2    C     C_R   0.500786 0.499674 0.407690 0.864052
Cu1   Cu    Cu3+1 0.499860 0.642410 0.500020 0.970333
Cu2   Cu    Cu3+1 0.499860 0.357590 0.500020 0.934773
O5    O     O_R   0.682190 0.620260 0.500010 -0.589947
O6    O     O_R   0.682190 0.379740 0.500010 -0.615205
O7    O     O_R   0.499860 0.620280 0.569750 -0.556649
O8    O     O_R   0.499860 0.379720 0.569750 -0.600461
C3    C     C_R   0.739718 0.500187 0.500012 0.746227
C4    C     C_R   0.501045 0.500361 0.592454 0.806419
C5    C     C_R   0.402065 0.533925 0.177826 0.578930
O9    O     O_2   0.301072 0.579028 0.202392 -0.499923
N1    N     N_R   0.507513 0.494693 0.202208 -0.454776
C6    C     C_R   0.611214 0.447794 0.178408 0.638339
C7    C     C_R   0.575028 0.599361 0.279601 0.440229
C8    C     C_R   0.573421 0.599014 0.329884 -0.233416
C9    C     C_R   0.435855 0.397430 0.328885 -0.196618
C10   C     C_R   0.438044 0.396491 0.278776 -0.140725
C11   C     C_R   0.507253 0.497194 0.253852 0.260805
C12   C     C_R   0.505278 0.482879 0.102066 -0.046121
C13   C     C_R   0.398474 0.527405 0.127362 -0.016334
C14   C     C_R   0.290660 0.564110 0.101871 -0.112157
C15   C     C_R   0.612383 0.442110 0.127883 -0.099742
C16   C     C_R   0.503233 0.498793 0.354836 -0.100027
H1    H     H_    0.379749 0.320439 0.347156 0.221832
H2    H     H_    0.385377 0.317723 0.259168 0.178799
H3    H     H_    0.207712 0.600088 0.120443 0.199560
C17   C     C_R   0.502565 0.500284 0.645616 -0.037386
C18   C     C_R   0.390596 0.495657 0.974727 0.058686
C19   C     C_R   0.617988 0.460828 0.975202 0.040684
C20   C     C_R   0.504713 0.478729 0.949597 0.068597
C21   C     C_R   0.278320 0.500124 0.947984 -0.195225
C22   C     C_R   0.279255 0.496135 0.897999 -0.134279
C23   C     C_R   0.392131 0.489880 0.872877 -0.007570
C24   C     C_R   0.505752 0.482393 0.898510 -0.096173
C25   C     C_R   0.620041 0.480071 0.873122 -0.025600
C26   C     C_R   0.616496 0.481803 0.822257 0.564751
N2    N     N_R   0.504707 0.487437 0.798354 -0.473520
C27   C     C_R   0.393818 0.491616 0.822463 0.537130
C28   C     C_R   0.462596 0.375582 0.720202 -0.101952
C29   C     C_R   0.462227 0.379610 0.670078 -0.284515
C30   C     C_R   0.544562 0.617675 0.672548 0.125266
C31   C     C_R   0.544655 0.612195 0.722927 -0.155672
C32   C     C_R   0.503867 0.491698 0.746745 0.329139
O10   O     O_2   0.285490 0.498942 0.797625 -0.531651
C33   C     C_R   0.392817 0.509134 0.025593 0.059900
C34   C     C_R   0.504615 0.478254 0.051041 0.033676
C35   C     C_R   0.615325 0.441681 0.025898 -0.031289
C36   C     C_R   0.287362 0.554249 0.051950 -0.178197
H4    H     H_    0.429365 0.288276 0.650432 0.156531
H5    H     H_    0.431105 0.281965 0.738489 0.147267
H6    H     H_    0.190667 0.499676 0.879089 0.186231
H7    H     H_    0.187769 0.502999 0.964850 0.150908
H8    H     H_    0.201911 0.587309 0.034764 0.151511
O11   O     O_2   0.712459 0.405983 0.203602 -0.492279
C37   C     C_R   0.715925 0.390421 0.102964 -0.139530
H9    H     H_    0.628892 0.675138 0.349359 0.180586
H10   H     H_    0.795371 0.348776 0.122497 0.224349
C38   C     C_R   0.730624 0.472905 0.949658 -0.181679
C39   C     C_R   0.733169 0.480074 0.899443 0.167819
O12   O     O_2   0.723184 0.476534 0.796635 -0.493237
C40   C     C_R   0.717203 0.385678 0.052802 0.342811
H11   H     H_    0.818505 0.484472 0.968365 0.190019
H12   H     H_    0.576895 0.701787 0.743662 0.142883
C41   C     C_3   0.071164 0.653874 0.500520 -0.357686
C42   C     C_3   0.072319 0.424279 0.545215 -0.389353
H13   H     H_    0.104721 0.711606 0.468303 0.220542
H14   H     H_    0.106876 0.314079 0.545859 0.169504
H15   H     H_    0.105712 0.710883 0.533014 0.160632
H16   H     H_    0.107347 0.477231 0.578405 0.158739
C43   C     C_3   0.928336 0.653864 0.500626 -0.378490
C44   C     C_3   0.928205 0.424018 0.545171 -0.365958
H17   H     H_    0.894587 0.710468 0.533257 0.165102
H18   H     H_    0.893392 0.476542 0.578399 0.160257
H19   H     H_    0.893752 0.712002 0.468540 0.177808
H20   H     H_    0.894054 0.313690 0.545665 0.166233
H21   H     H_    0.106396 0.478897 0.421469 0.185842
H22   H     H_    0.105532 0.315180 0.453167 0.215624
H23   H     H_    0.892360 0.479951 0.421480 0.171181
H24   H     H_    0.892853 0.315683 0.452841 0.172731
C45   C     C_3   0.071507 0.425510 0.454348 -0.331748
C46   C     C_3   0.121841 0.500961 0.500016 0.120209
C47   C     C_3   0.877840 0.500923 0.500024 0.152808
C48   C     C_3   0.927395 0.425818 0.454285 -0.390250
C49   C     C_3   0.616308 0.083009 0.522856 -0.301399
C50   C     C_3   0.615423 0.917001 0.523482 -0.292699
H25   H     H_    0.627642 0.123107 0.560306 0.174298
H26   H     H_    0.623616 0.880735 0.561357 0.189486
H27   H     H_    0.701267 0.118342 0.503791 0.157638
H28   H     H_    0.701032 0.876768 0.506031 0.158223
H29   H     H_    0.404605 0.121711 0.568352 0.146574
H30   H     H_    0.402917 0.879073 0.568082 0.162154
C51   C     C_3   0.396610 0.083596 0.530556 -0.233477
C52   C     C_3   0.396192 0.917177 0.530361 -0.254240
C53   C     C_3   0.487417 0.084047 0.450777 0.550908
C54   C     C_3   0.486875 0.914575 0.450926 0.600135
N3    N     N_3   0.500250 0.143650 0.501060 -0.157507
N4    N     N_3   0.500250 0.856350 0.501060 -0.157715
H31   H     H_    0.304396 0.121925 0.517999 0.197629
H32   H     H_    0.304075 0.879511 0.517409 0.192946
Cl1   Cl    Cl    0.660817 0.729724 0.249676 -0.535970
N5    N     N_3   0.589958 0.741108 0.649135 -0.600020
H33   H     H_    0.681993 0.758183 0.660376 0.218445
H34   H     H_    0.536228 0.826514 0.660639 0.210322
N6    N     N_3   0.851702 0.489929 0.875847 -0.500194
H35   H     H_    0.897560 0.579430 0.888771 0.215699
H36   H     H_    0.905019 0.402365 0.885450 0.238041
Cl2   Cl    Cl    0.837444 0.282274 0.027397 -0.619390
Cl3   Cl    Cl    0.343374 0.151806 0.424479 -0.616105
Cl4   Cl    Cl    0.343230 0.846419 0.424241 -0.559519
N7    N     N_3   0.592366 0.130081 0.419989 -0.652542
H37   H     H_    0.562982 0.157938 0.385391 0.264162
H38   H     H_    0.649103 0.207917 0.434686 0.255484
N8    N     N_3   0.588474 0.859855 0.420282 -0.544001
H39   H     H_    0.571810 0.888390 0.384504 0.248258
H40   H     H_    0.676374 0.898143 0.429903 0.192101

loop_
_geom_bond_atom_site_label_1
_geom_bond_atom_site_label_2
_geom_bond_distance
_ccdc_geom_bond_type
C47   C48   1.550351 S    
C26   N2    1.368429 A    
C20   C24   1.419848 A    
C7    C8    1.397040 A    
C12   C15   1.406447 A    
C51   C52   1.585464 S    
Cu1   Cu2   2.713473 S    
C45   C46   1.550649 S    
Cu1   O7    1.949481 S    
N1    C11   1.434760 S    
C21   C22   1.388983 A    
C44   H18   1.113184 S    
C15   C37   1.397370 A    
N6    H36   1.045840 S    
C53   N7    1.482347 S    
C23   C24   1.409965 A    
O7    C4    1.307583 A    
C5    C13   1.403382 A    
N5    H33   1.045665 S    
C5    O9    1.349758 S    
C18   C21   1.412233 A    
C37   H10   1.083795 S    
C19   C20   1.415062 A    
C17   C29   1.407032 A    
C8    H9    1.080015 S    
C41   H13   1.113323 S    
O5    C3    1.299029 A    
N8    H39   1.046385 S    
C50   N4    1.495363 S    
C22   H6    1.083659 S    
C2    C16   1.468548 S    
C53   C54   1.614591 S    
N7    H38   1.040164 S    
Cu1   N4    2.038279 S    
H30   C52   1.112672 S    
C42   H16   1.113146 S    
C41   H15   1.113681 S    
C49   H25   1.112912 S    
Cu2   N3    2.038541 S    
H21   C45   1.113178 S    
C12   C34   1.417942 A    
H23   C48   1.113206 S    
C37   C40   1.394100 A    
C14   H3    1.083473 S    
C9    C10   1.392258 A    
C1    C46   1.479928 S    
O3    Cu1   1.947855 S    
C50   H28   1.106070 S    
C38   H11   1.079183 S    
C33   C36   1.413624 A    
C34   C35   1.420500 A    
C44   H20   1.113252 S    
C54   Cl4   1.824165 S    
C12   C13   1.408581 A    
O3    C2    1.306470 A    
C21   H7    1.078695 S    
C24   C25   1.414765 A    
C27   O10   1.349976 S    
C26   O12   1.348929 S    
C8    C16   1.402629 A    
C33   C34   1.419960 A    
C18   C33   1.418411 A    
C52   N4    1.497058 S    
C9    H1    1.078217 S    
O1    C1    1.299413 A    
C7    C11   1.406068 A    
C22   C23   1.398939 A    
C50   H26   1.112122 S    
C31   C32   1.398515 A    
Cu2   O8    1.947548 S    
C3    C47   1.479373 S    
C54   N4    1.507847 S    
N1    C6    1.368129 A    
N2    C32   1.434425 S    
C43   H17   1.113782 S    
C44   C47   1.550653 S    
C51   H31   1.108655 S    
C7    Cl1   1.758782 S    
C43   C47   1.554467 S    
C25   C26   1.413572 A    
C53   N3    1.511320 S    
C9    C16   1.401454 A    
O8    C4    1.308526 A    
C29   H4    1.083337 S    
C42   C44   1.543534 S    
C54   N8    1.477067 S    
N2    C27   1.365805 A    
C42   C46   1.550683 S    
C14   C36   1.389870 A    
C31   H12   1.083550 S    
C35   C40   1.425430 A    
C28   C29   1.393115 A    
C45   C48   1.543503 S    
Cu1   O5    1.964100 S    
C30   C31   1.400706 A    
C10   H2    1.082950 S    
C49   N3    1.497753 S    
O1    Cu1   1.963896 S    
C17   C30   1.415471 A    
O2    Cu2   1.963675 S    
C6    C15   1.404454 A    
H24   C48   1.113253 S    
C4    C17   1.476855 S    
O6    C3    1.302744 A    
C53   Cl3   1.823938 S    
O4    Cu2   1.949791 S    
C36   H8    1.078461 S    
H29   C51   1.112457 S    
C5    N1    1.367859 A    
H22   C45   1.112693 S    
C19   C35   1.421275 A    
C25   C39   1.413215 A    
O2    C1    1.302627 A    
C13   C14   1.397803 A    
C23   C27   1.400831 A    
N6    H35   1.045805 S    
C28   H5    1.082997 S    
C39   N6    1.433949 S    
O4    C2    1.306103 A    
N5    H34   1.045767 S    
C52   H32   1.108411 S    
C30   N5    1.432448 S    
C19   C38   1.406577 A    
C18   C20   1.418232 A    
C41   C43   1.529766 S    
C49   H27   1.107616 S    
N8    H40   1.043407 S    
C38   C39   1.397279 A    
C28   C32   1.397789 A    
C6    O11   1.349718 S    
Cu2   O6    1.964321 S    
C10   C11   1.399794 A    
C42   H14   1.113221 S    
C40   Cl2   1.767788 S    
C49   C50   1.581765 S    
C43   H19   1.113887 S    
C51   N3    1.497210 S    
C41   C46   1.554382 S    
N7    H37   1.045747 S    
