data_mof_unit_pretest_1118.cif
_audit_creation_date              2012-12-10T17:26:19-0500
_audit_creation_method            fapswitch 2.2
_symmetry_space_group_name_H-M    P1
_symmetry_Int_Tables_number       1
_space_group_crystal_system       triclinic
_cell_length_a                    10.102224
_cell_length_b                    10.721072
_cell_length_c                    27.637528
_cell_angle_alpha                 90.932527
_cell_angle_beta                  81.099782
_cell_angle_gamma                 95.86486
_cell_volume                      2941.80707288

loop_
_atom_site_label
_atom_site_type_symbol
_atom_type_description
_atom_site_fract_x
_atom_site_fract_y
_atom_site_fract_z
_atom_type_partial_charge
C1    C     C_R   0.556797 0.733506 0.494989 0.888253
C2    C     C_R   0.443158 0.266357 0.501391 0.887545
C3    C     C_R   0.460791 0.482615 0.901423 -0.069362
C4    C     C_R   0.538733 0.517149 0.098619 -0.069488
C5    C     C_R   0.416907 0.585174 0.879225 -0.003422
C6    C     C_R   0.582772 0.414645 0.120799 -0.003358
C7    C     C_R   0.373502 0.686126 0.907932 -0.139360
C8    C     C_R   0.626196 0.313716 0.092082 -0.139504
C9    C     C_R   0.493426 0.375292 0.873491 -0.108729
C10   C     C_R   0.506002 0.624426 0.126563 -0.108593
C11   C     C_R   0.496663 0.498900 0.647304 -0.158651
C12   C     C_R   0.503288 0.500999 0.352713 -0.155414
C13   C     C_R   0.489869 0.616487 0.025383 -0.024720
C14   C     C_R   0.509576 0.383273 0.974669 -0.024679
C15   C     C_R   0.544744 0.397780 0.022282 0.066645
C16   C     C_R   0.454755 0.601995 0.977760 0.066656
C17   C     C_R   0.523733 0.510453 0.048664 0.056806
C18   C     C_R   0.475750 0.489311 0.951382 0.056819
C19   C     C_R   0.498841 0.733676 0.050342 0.100669
C20   C     C_R   0.500540 0.266068 0.949724 0.100734
C21   C     C_R   0.484276 0.733704 0.101918 -0.005560
C22   C     C_R   0.515053 0.265999 0.898149 -0.005796
C23   C     C_R   0.500286 0.501317 0.594079 0.901071
C24   C     C_R   0.499707 0.498660 0.405925 0.886632
C25   C     C_R   0.388260 0.692231 0.957004 -0.249384
C26   C     C_R   0.611316 0.307574 0.043021 -0.249331
C27   C     C_2   0.590160 0.866551 0.485853 -0.181376
C28   C     C_2   0.409658 0.132705 0.495866 -0.180393
C29   C     C_2   0.492896 0.931212 0.473988 -0.193442
C30   C     C_2   0.507023 0.066536 0.473219 -0.192142
C31   C     C_2   0.928335 0.513561 0.502800 -0.109458
C32   C     C_2   0.071710 0.486556 0.497145 -0.112807
C33   C     C_R   0.417213 0.583974 0.828778 0.512385
C34   C     C_R   0.582605 0.415879 0.171238 0.512678
C35   C     C_R   0.496901 0.381150 0.822301 0.479710
C36   C     C_R   0.502554 0.618549 0.177751 0.479510
C37   C     C_R   0.362729 0.447096 0.726570 0.190135
C38   C     C_R   0.636974 0.553090 0.273440 0.190272
C39   C     C_R   0.376061 0.450736 0.675779 -0.244370
C40   C     C_R   0.623711 0.549519 0.324229 -0.247891
C41   C     C_R   0.607587 0.545443 0.670025 -0.054026
C42   C     C_R   0.392491 0.453993 0.330016 -0.053693
C43   C     C_R   0.597104 0.540500 0.721499 0.140454
C44   C     C_R   0.402876 0.458894 0.278546 0.139396
C45   C     C_R   0.473859 0.491167 0.749411 0.250016
C46   C     C_R   0.525935 0.508613 0.250618 0.249691
H1    H     H_    0.105484 0.411109 0.473372 0.184252
H2    H     H_    0.894593 0.589095 0.526533 0.184257
H3    H     H_    0.122240 0.622638 0.542187 0.182679
H4    H     H_    0.877724 0.377278 0.457851 0.178813
H5    H     H_    0.330230 0.761806 0.892460 0.189089
H6    H     H_    0.669557 0.238072 0.107539 0.188970
H7    H     H_    0.708462 0.586243 0.341767 0.176331
H8    H     H_    0.291214 0.414325 0.658234 0.177161
H9    H     H_    0.348766 0.769360 0.978344 0.151249
H10   H     H_    0.650797 0.230452 0.021673 0.151250
H11   H     H_    0.605483 0.112406 0.458170 0.190749
H12   H     H_    0.394629 0.884428 0.469757 0.193542
N1    N     N_R   0.462040 0.485351 0.801510 -0.348876
N2    N     N_R   0.537648 0.514426 0.198523 -0.348651
N3    N     N_2   0.842700 0.448890 0.480020 -0.194193
N4    N     N_2   0.157300 0.551110 0.519980 -0.194736
O1    O     O_R   0.431060 0.692470 0.504020 -0.609536
O2    O     O_R   0.568940 0.307530 0.495980 -0.609009
O3    O     O_R   0.651120 0.659650 0.491200 -0.606254
O4    O     O_R   0.348880 0.340350 0.508800 -0.605121
O5    O     O_R   0.389980 0.516390 0.577660 -0.606971
O6    O     O_R   0.610020 0.483610 0.422340 -0.613483
O7    O     O_R   0.610040 0.483570 0.564830 -0.598673
O8    O     O_R   0.389960 0.516430 0.435170 -0.605075
O9    O     O_2   0.375999 0.681463 0.806817 -0.573115
O10   O     O_2   0.624089 0.318498 0.193178 -0.574090
O11   O     O_2   0.463832 0.714406 0.206975 -0.556625
O12   O     O_2   0.535445 0.285206 0.793092 -0.555166
Zn1   Zn    Zn3+2 0.353060 0.521910 0.508560 0.967002
Zn2   Zn    Zn3+2 0.646940 0.478090 0.491440 0.966164
C47   C     C_1   0.729860 0.603096 0.641187 0.200082
N5    N     N_1   0.827815 0.649953 0.618610 -0.226191
C48   C     C_1   0.270492 0.395898 0.358881 0.197038
N6    N     N_1   0.172772 0.348683 0.381486 -0.232319
C49   C     C_1   0.276679 0.075552 0.516061 0.198675
N7    N     N_1   0.170524 0.029972 0.532174 -0.180826
C50   C     C_1   0.722761 0.924881 0.491635 0.196521
N8    N     N_1   0.828603 0.971373 0.496264 -0.182113
C51   C     C_3   0.716897 0.587166 0.746647 -0.417926
C52   C     C_3   0.728228 0.729446 0.752873 -0.783209
H13   H     H_    0.740541 0.777051 0.716868 0.265346
H14   H     H_    0.637129 0.758511 0.776285 0.290269
H15   H     H_    0.817279 0.760104 0.770739 0.246735
H16   H     H_    0.710215 0.543898 0.783220 0.212062
H17   H     H_    0.811637 0.558996 0.725258 0.213224
C53   C     C_3   0.283165 0.411815 0.253424 -0.416596
C54   C     C_3   0.272285 0.269531 0.247226 -0.786062
H18   H     H_    0.363474 0.240684 0.223809 0.290641
H19   H     H_    0.260166 0.221989 0.283235 0.264277
H20   H     H_    0.183282 0.238575 0.229377 0.246501
H21   H     H_    0.188330 0.439748 0.274822 0.212647
H22   H     H_    0.289665 0.454998 0.216845 0.211950
C55   C     C_3   0.770043 0.606966 0.244684 -0.385873
C56   C     C_3   0.879662 0.519457 0.245980 -0.830666
H23   H     H_    0.897639 0.506436 0.284130 0.254223
H24   H     H_    0.850122 0.426726 0.230212 0.294650
H25   H     H_    0.975164 0.560482 0.224026 0.246982
H26   H     H_    0.762181 0.624285 0.205824 0.212591
H27   H     H_    0.801381 0.699305 0.260483 0.211031
C57   C     C_3   0.229492 0.393543 0.755305 -0.386121
C58   C     C_3   0.120171 0.481364 0.753981 -0.828228
H28   H     H_    0.149953 0.574039 0.769744 0.294740
H29   H     H_    0.102281 0.494450 0.715826 0.254976
H30   H     H_    0.024553 0.440564 0.775927 0.246762
H31   H     H_    0.197912 0.301273 0.739504 0.212362
H32   H     H_    0.237237 0.376162 0.794171 0.212475
C59   C     C_1   0.453287 0.848394 0.127924 0.273161
N9    N     N_1   0.428516 0.940190 0.148419 -0.175067
C60   C     C_1   0.545946 0.151268 0.872155 0.273568
N10   N     N_1   0.570642 0.059439 0.851672 -0.173977
C61   C     C_3   0.547216 0.856843 0.023089 -0.445925
C62   C     C_3   0.684001 0.913483 0.034909 -0.852755
H33   H     H_    0.677387 0.944995 0.073518 0.262440
H34   H     H_    0.758779 0.843667 0.027778 0.269293
H35   H     H_    0.720558 0.996434 0.011202 0.237677
H36   H     H_    0.564194 0.844430 0.982886 0.232624
H37   H     H_    0.471122 0.924442 0.032584 0.205968
C63   C     C_3   0.452185 0.142927 0.976998 -0.446067
C64   C     C_3   0.315351 0.086304 0.965219 -0.852666
H38   H     H_    0.240595 0.156137 0.972365 0.269307
H39   H     H_    0.321880 0.054777 0.926613 0.262494
H40   H     H_    0.278822 0.003367 0.988935 0.237647
H41   H     H_    0.528251 0.075306 0.967492 0.205948
H42   H     H_    0.435292 0.155368 0.017201 0.232637

loop_
_geom_bond_atom_site_label_1
_geom_bond_atom_site_label_2
_ccdc_geom_bond_type
C35   O12   S    
C54   H18   S    
C27   C29   D    
C8    C26   A    
C31   N3    D    
C49   N7    T    
C51   H17   S    
C53   H22   S    
C57   H32   S    
C47   N5    T    
O3    Zn2   S    
O7    Zn2   S    
C19   C21   A    
C41   C47   S    
C52   H14   S    
C9    C22   A    
C39   H8    S    
C57   C58   S    
C60   N10   T    
C30   H11   S    
C3    C18   A    
C35   N1    A    
C23   O5    A    
C23   O7    A    
C62   H33   S    
C56   H23   S    
C12   C42   A    
C31   C32   S    
C44   C46   A    
C28   C30   D    
C5    C33   A    
C64   H40   S    
C1    O3    A    
C58   H28   S    
C8    H6    S    
C44   C53   S    
C1    C27   S    
C55   H26   S    
C42   C48   S    
C33   N1    A    
C34   N2    A    
C58   H29   S    
C42   C44   A    
C1    O1    A    
C2    O2    A    
C53   H21   S    
C57   H31   S    
N3    Zn2   S    
C55   H27   S    
C20   C63   S    
C13   C19   A    
C24   O8    A    
C43   C51   S    
C14   C20   A    
C4    C6    A    
C5    C7    A    
C24   O6    A    
C52   H13   S    
C15   C26   A    
C6    C8    A    
C36   N2    A    
C51   C52   S    
C56   H25   S    
C6    C34   A    
C62   H35   S    
C12   C40   A    
C61   H36   S    
C29   C30   S    
C3    C9    A    
C50   N8    T    
C56   H24   S    
O2    Zn2   S    
C63   H42   S    
C16   C18   A    
C11   C39   A    
C43   C45   A    
C4    C17   A    
C21   C59   S    
C22   C60   S    
C20   C22   A    
C54   H20   S    
C31   H2    S    
C64   H38   S    
C58   H30   S    
N4    Zn1   S    
O5    Zn1   S    
C37   C45   A    
C34   O10   S    
C64   H39   S    
C59   N9    T    
C16   C25   A    
C15   C17   A    
C45   N1    S    
H3    N4    S    
C46   N2    S    
C28   C49   S    
C14   C18   A    
C41   C43   A    
C25   H9    S    
C38   C55   S    
C3    C5    A    
C52   H15   S    
C26   H10   S    
C10   C21   A    
C10   C36   A    
C51   H16   S    
C2    O4    A    
O6    Zn2   S    
C12   C24   S    
C7    C25   A    
C55   C56   S    
C13   C17   A    
C27   C50   S    
C61   H37   S    
C7    H5    S    
C37   C57   S    
C37   C39   A    
C61   C62   S    
C38   C40   A    
O1    Zn1   S    
O4    Zn1   S    
C11   C23   S    
C53   C54   S    
C32   H1    S    
C63   H41   S    
C11   C41   A    
C62   H34   S    
C38   C46   A    
C36   O11   S    
C33   O9    S    
C32   N4    D    
C48   N6    T    
C29   H12   S    
C19   C61   S    
C54   H19   S    
C40   H7    S    
C13   C16   A    
O8    Zn1   S    
C9    C35   A    
H4    N3    S    
C14   C15   A    
C2    C28   S    
C4    C10   A    
C63   C64   S    
