data_mof_unit_pretest_1736.cif
_audit_creation_date              2012-12-10T21:24:24-0500
_audit_creation_method            fapswitch 2.2
_symmetry_space_group_name_H-M    P1
_symmetry_Int_Tables_number       1
_space_group_crystal_system       triclinic
_cell_length_a                    16.755174
_cell_length_b                    16.80049
_cell_length_c                    17.511249
_cell_angle_alpha                 88.966686
_cell_angle_beta                  90.02424
_cell_angle_gamma                 92.482887
_cell_volume                      4923.90256105

loop_
_atom_site_label
_atom_site_type_symbol
_atom_type_description
_atom_site_fract_x
_atom_site_fract_y
_atom_site_fract_z
_atom_type_partial_charge
C1    C     C_R   0.499855 0.498855 0.647003 0.873064
C2    C     C_R   0.500029 0.498714 0.353058 0.873630
C3    C     C_R   0.427892 0.487595 0.230270 -0.176809
C4    C     C_R   0.570713 0.482968 0.769887 -0.174534
C5    C     C_R   0.500046 0.488583 0.270809 -0.064305
C6    C     C_R   0.498881 0.489707 0.729714 -0.057354
C7    C     C_R   0.571942 0.474949 0.233034 -0.227092
C8    C     C_R   0.425538 0.482741 0.768522 -0.229454
C9    C     C_R   0.571930 0.460846 0.155089 0.038111
C10   C     C_R   0.423838 0.468945 0.846991 0.032265
C11   C     C_R   0.499298 0.460451 0.115162 0.101982
C12   C     C_R   0.496210 0.462064 0.886418 0.099798
C13   C     C_1   0.497934 0.454713 0.034758 -0.031679
C14   C     C_1   0.497137 0.455240 0.966964 -0.030643
C15   C     C_R   0.165723 0.447939 0.549059 -0.250148
C16   C     C_R   0.834304 0.552633 0.451499 -0.250926
C17   C     C_R   0.250025 0.449180 0.547841 0.002031
C18   C     C_R   0.749999 0.551339 0.452672 0.001133
C19   C     C_R   0.253358 0.550844 0.452495 0.125640
C20   C     C_R   0.746633 0.448686 0.547037 0.125947
C21   C     C_R   0.169177 0.551238 0.452164 -0.278976
C22   C     C_R   0.830816 0.448332 0.547394 -0.279583
C23   C     C_R   0.491227 0.346882 0.498434 0.862671
C24   C     C_R   0.508767 0.653174 0.501469 0.864495
C25   C     C_R   0.124278 0.499454 0.500695 0.144262
C26   C     C_R   0.875733 0.500639 0.499381 0.144441
C27   C     C_1   0.036527 0.499700 0.500418 -0.021764
C28   C     C_1   0.963485 0.500420 0.499678 -0.021911
C29   C     C_R   0.490650 0.261220 0.496655 -0.133804
C30   C     C_R   0.509281 0.738952 0.501479 -0.136762
C31   C     C_R   0.538823 0.222761 0.443493 -0.064407
C32   C     C_R   0.458941 0.778522 0.551895 -0.063800
C33   C     C_R   0.554058 0.141666 0.456427 -0.011880
C34   C     C_R   0.443744 0.859150 0.536314 -0.011270
C35   C     C_R   0.511506 0.099637 0.515139 0.197810
C36   C     C_R   0.488448 0.900016 0.478361 0.198465
C37   C     C_R   0.460837 0.138035 0.564069 -0.157013
C38   C     C_R   0.541300 0.860758 0.432346 -0.156210
C39   C     C_R   0.451235 0.218861 0.555612 -0.196170
C40   C     C_R   0.550821 0.780132 0.443024 -0.196510
C41   C     C_R   0.427667 0.473664 0.152522 -0.158203
C42   C     C_R   0.569249 0.469177 0.848141 -0.160356
H1    H     H_    0.281301 0.409288 0.585390 0.133364
H2    H     H_    0.718742 0.591617 0.415506 0.134463
H3    H     H_    0.138909 0.591793 0.414225 0.150183
H4    H     H_    0.861073 0.407393 0.584948 0.150186
H5    H     H_    0.429417 0.105079 0.609395 0.149845
H6    H     H_    0.574576 0.892856 0.387671 0.148899
H7    H     H_    0.414788 0.248878 0.596312 0.154054
H8    H     H_    0.588980 0.749332 0.404422 0.154351
H9    H     H_    0.371826 0.474393 0.121263 0.155767
H10   H     H_    0.625071 0.465003 0.878989 0.155358
H11   H     H_    0.371787 0.497568 0.258510 0.166305
H12   H     H_    0.627869 0.487943 0.740936 0.165929
H13   H     H_    0.627929 0.474771 0.264122 0.164871
H14   H     H_    0.369656 0.487521 0.737850 0.163972
H15   H     H_    0.133251 0.407036 0.587508 0.149990
H16   H     H_    0.866791 0.593954 0.413460 0.149769
N1    N     N_2   0.516088 0.017169 0.523879 -0.211482
N2    N     N_2   0.484577 0.982450 0.468714 -0.214035
N3    N     N_R   0.292770 0.500020 0.499970 -0.111747
N4    N     N_R   0.707230 0.499980 0.500030 -0.111801
O1    O     O_R   0.433430 0.500000 0.610870 -0.634349
O2    O     O_R   0.566570 0.500000 0.389130 -0.635246
O3    O     O_R   0.566520 0.499990 0.610900 -0.615817
O4    O     O_R   0.433480 0.500010 0.389100 -0.614947
O5    O     O_R   0.426030 0.383870 0.500690 -0.612717
O6    O     O_R   0.573970 0.616130 0.499310 -0.611766
O7    O     O_R   0.559120 0.383870 0.500710 -0.622866
O8    O     O_R   0.440880 0.616130 0.499290 -0.622183
Zn1   Zn    Zn3+2 0.411140 0.500000 0.499980 0.956558
Zn2   Zn    Zn3+2 0.588860 0.500000 0.500020 0.955614
C43   C     C_2   0.428638 0.736863 0.622931 0.472592
H17   H     H_    0.420244 0.672613 0.625854 0.064933
O9    O     O_2   0.417144 0.773740 0.681073 -0.522186
C44   C     C_2   0.567069 0.266283 0.372716 0.474522
H18   H     H_    0.576870 0.330416 0.371679 0.062365
O10   O     O_2   0.575346 0.231217 0.312957 -0.522789
C45   C     C_1   0.297434 0.605024 0.402040 0.222559
N5    N     N_1   0.332567 0.648789 0.361310 -0.199570
C46   C     C_1   0.702564 0.393919 0.596934 0.220289
N6    N     N_1   0.667461 0.349644 0.637196 -0.199065
C47   C     C_2   0.378217 0.900270 0.574908 0.499517
H19   H     H_    0.380406 0.964515 0.579580 0.062113
O11   O     O_2   0.318506 0.863192 0.598079 -0.525463
C48   C     C_2   0.617925 0.101405 0.414495 0.499275
H20   H     H_    0.615418 0.037335 0.408358 0.062563
O12   O     O_2   0.676768 0.138945 0.389979 -0.526411
C49   C     C_1   0.646763 0.448010 0.117160 0.173942
N7    N     N_1   0.706661 0.437733 0.086758 -0.180983
C50   C     C_1   0.347694 0.462875 0.885902 0.162874
N8    N     N_1   0.286752 0.458021 0.917093 -0.185778

loop_
_geom_bond_atom_site_label_1
_geom_bond_atom_site_label_2
_ccdc_geom_bond_type
C30   C32   A    
C43   O9    D    
C43   H17   S    
C23   O7    A    
C7    H13   S    
C8    H14   S    
C46   N6    T    
C24   O8    A    
C23   C29   S    
C19   C21   A    
C44   O10   D    
C48   O12   D    
C15   C25   A    
C22   H4    S    
C35   N1    S    
C23   O5    A    
C12   C42   A    
C17   N3    A    
O4    Zn1   S    
C1    O3    A    
C31   C33   A    
O8    Zn1   S    
C37   H5    S    
C38   H6    S    
N3    Zn1   S    
N1    N2    D    
C20   C46   S    
C3    H11   S    
C15   H15   S    
C1    O1    A    
C2    O2    A    
C21   H3    S    
C16   C26   A    
N4    Zn2   S    
C1    C6    S    
C44   H18   S    
C4    C6    A    
C9    C49   S    
C32   C43   S    
C5    C7    A    
C48   H20   S    
C18   N4    A    
C6    C8    A    
C2    O4    A    
C32   C34   A    
O7    Zn2   S    
C33   C48   S    
C17   H1    S    
C18   H2    S    
C47   H19   S    
O6    Zn2   S    
C29   C39   A    
C30   C40   A    
C16   C18   A    
C16   H16   S    
C19   C45   S    
C9    C11   A    
C10   C12   A    
C8    C10   A    
C47   O11   D    
C12   C14   S    
C10   C50   S    
C2    C5    S    
C34   C47   S    
C20   C22   A    
C3    C5    A    
C50   N8    T    
C35   C37   A    
C15   C17   A    
C21   C25   A    
C3    C41   A    
C4    H12   S    
O1    Zn1   S    
C36   N2    S    
C39   H7    S    
C25   C27   S    
O3    Zn2   S    
C26   C28   S    
C36   C38   A    
C37   C39   A    
C38   C40   A    
C11   C13   S    
C31   C44   S    
C4    C42   A    
C19   N3    A    
C40   H8    S    
C33   C35   A    
C34   C36   A    
C11   C41   A    
O5    Zn1   S    
O2    Zn2   S    
C20   N4    A    
C24   C30   S    
C24   O6    A    
C45   N5    T    
C7    C9    A    
C29   C31   A    
C22   C26   A    
C27   C28   T    
C49   N7    T    
C13   C14   T    
C41   H9    S    
C42   H10   S    
