data_mof_unit_pretest_1447.cif
_audit_creation_date              2012-12-10T17:22:03-0500
_audit_creation_method            fapswitch 2.2
_symmetry_space_group_name_H-M    P1
_symmetry_Int_Tables_number       1
_space_group_crystal_system       triclinic
_cell_length_a                    10.300926
_cell_length_b                    10.773374
_cell_length_c                    15.768675
_cell_angle_alpha                 90.135895
_cell_angle_beta                  81.254609
_cell_angle_gamma                 96.113802
_cell_volume                      1719.58746539

loop_
_atom_site_label
_atom_site_type_symbol
_atom_type_description
_atom_site_fract_x
_atom_site_fract_y
_atom_site_fract_z
_atom_type_partial_charge
C1    C     C_R   0.557076 0.731946 0.493578 0.899594
C2    C     C_2   0.509105 0.941346 0.478536 -0.123550
C3    C     C_2   0.405165 0.134664 0.508866 -0.316997
C4    C     C_R   0.500072 0.499320 0.661033 0.917099
C5    C     C_2   0.492941 0.058459 0.526670 0.402929
C6    C     C_2   0.923749 0.505431 0.511856 -0.027411
C7    C     C_2   0.065590 0.478494 0.506074 -0.127926
C8    C     C_R   0.442772 0.267715 0.507333 0.948415
C9    C     C_R   0.499763 0.499961 0.339062 0.868287
C10   C     C_3   0.388933 0.584723 0.956758 0.145838
C11   C     C_3   0.650805 0.560583 0.935622 0.012413
C12   C     C_3   0.403247 0.606650 0.056887 0.050199
C13   C     C_3   0.656960 0.551621 0.038954 0.456423
C14   C     C_1   0.499227 0.502579 0.250790 0.049111
C15   C     C_3   0.503528 0.497150 0.916261 -0.325501
C16   C     C_1   0.459690 0.737749 0.066319 0.329730
C17   C     C_1   0.441256 0.910308 0.405192 0.219798
C18   C     C_1   0.280265 0.090656 0.481298 0.198235
C19   C     C_1   0.871743 0.594052 0.573492 0.346703
C20   C     C_1   0.141428 0.676567 0.548765 0.359015
C21   C     C_1   0.404039 0.706455 0.908068 0.204306
C22   C     C_1   0.887399 0.366066 0.402481 0.366106
C23   C     C_3   0.503198 0.507032 0.083891 -0.350023
C24   C     C_1   0.667458 0.691773 0.905253 0.316096
C25   C     C_1   0.587733 0.288960 0.922192 0.559460
C26   C     C_1   0.308404 0.343893 0.092457 0.552654
C27   C     C_3   0.449713 0.364733 0.057692 0.056110
C28   C     C_3   0.473163 0.355408 0.954351 0.098079
C29   C     C_1   0.499386 0.505761 0.175658 0.246415
C30   C     C_1   0.503632 0.494475 0.824312 0.181670
C31   C     C_1   0.501125 0.496322 0.749400 0.035084
C32   C     C_2   0.592836 0.864165 0.498666 -0.261696
H1    H     H_    0.670444 0.892505 0.536123 0.218415
H2    H     H_    0.352536 0.078923 0.829291 0.416498
H3    H     H_    0.092728 0.390431 0.479173 0.170872
H4    H     H_    0.081789 0.372968 0.937483 0.436750
H5    H     H_    0.051886 0.529187 0.176992 0.392369
H6    H     H_    0.397104 0.078593 0.202579 0.403339
H7    H     H_    0.629136 0.000320 0.723161 0.408980
H8    H     H_    0.983265 0.625338 0.810012 0.400712
H9    H     H_    0.877448 0.693074 0.175618 0.383602
H10   H     H_    0.839216 0.262180 0.055012 0.416749
N1    N     N_2   0.842720 0.448890 0.465540 -0.168732
N2    N     N_1   0.684976 0.792980 0.877746 -0.086321
N3    N     N_1   0.668737 0.227431 0.893279 0.005326
N4    N     N_1   0.200407 0.315460 0.124328 -0.013184
N5    N     N_2   0.157250 0.551040 0.534500 -0.150592
N6    N     N_1   0.493464 0.842860 0.073556 0.004174
N7    N     N_1   0.388201 0.885031 0.346809 -0.110035
N8    N     N_1   0.180316 0.056406 0.459530 -0.119473
N9    N     N_1   0.831291 0.666387 0.622255 -0.146162
N10   N     N_1   0.129573 0.781146 0.560548 -0.190450
N11   N     N_1   0.411697 0.799932 0.870476 -0.092239
N12   N     N_1   0.924246 0.297285 0.349994 -0.151126
O1    O     O_R   0.431050 0.692470 0.506940 -0.604971
O2    O     O_2   0.224141 0.532652 0.837874 -0.291380
O3    O     O_3   0.144069 0.403705 0.976756 -0.438544
O4    O     O_2   0.269508 0.616952 0.223015 -0.345588
O5    O     O_2   0.202909 0.748843 0.117480 -0.193109
O6    O     O_3   0.112996 0.522242 0.122676 -0.430274
O7    O     O_2   0.554734 0.132244 0.056602 -0.219814
O8    O     O_2   0.588757 0.264793 0.178653 -0.246280
O9    O     O_3   0.362836 0.148777 0.175577 -0.544317
O10   O     O_2   0.727938 0.133802 0.575903 -0.283665
O11   O     O_2   0.532582 0.203281 0.664486 -0.280956
O12   O     O_R   0.651130 0.659650 0.484820 -0.627734
O13   O     O_3   0.575029 0.972694 0.678373 -0.557561
O14   O     O_2   0.855697 0.400431 0.884373 -0.227731
O15   O     O_2   0.772401 0.505328 0.772452 -0.340142
O16   O     O_3   0.921787 0.633671 0.863987 -0.429764
O17   O     O_2   0.749123 0.815826 0.033530 -0.228638
O18   O     O_2   0.650494 0.728843 0.172129 -0.364247
O19   O     O_3   0.885446 0.691016 0.112236 -0.365645
O20   O     O_2   0.910896 0.499590 0.025979 -0.110343
O21   O     O_2   0.775380 0.447870 0.161943 -0.284611
O22   O     O_3   0.763161 0.297653 0.036272 -0.483399
O23   O     O_R   0.389910 0.516410 0.633920 -0.583665
O24   O     O_2   0.239355 0.185703 0.973181 -0.225841
O25   O     O_2   0.290439 0.305663 0.839076 -0.244690
O26   O     O_3   0.420735 0.124014 0.859502 -0.516595
O27   O     O_R   0.609990 0.483590 0.611800 -0.583568
O28   O     O_R   0.348870 0.340350 0.515180 -0.614114
O29   O     O_R   0.568950 0.307530 0.493060 -0.565877
O30   O     O_R   0.390010 0.516410 0.388200 -0.603605
O31   O     O_R   0.610090 0.483590 0.366080 -0.595393
O32   O     O_2   0.136631 0.640063 0.964185 -0.104782
S1    S     S_3+6 0.221080 0.538407 0.933541 0.156759
S2    S     S_3+6 0.246071 0.622060 0.131433 0.071060
S3    S     S_3+6 0.496239 0.227701 0.116065 0.064784
S4    S     S_3+6 0.585581 0.097393 0.612626 0.049724
S5    S     S_3+6 0.799309 0.516778 0.863160 0.077266
S6    S     S_3+6 0.732401 0.700192 0.088454 0.101667
S7    S     S_3+6 0.775795 0.446481 0.066506 0.141518
S8    S     S_3+6 0.349253 0.245262 0.907643 0.082480
Zn1   Zn    Zn3+2 0.353060 0.521920 0.514770 1.028142
Zn2   Zn    Zn3+2 0.646940 0.478080 0.485230 1.047302

loop_
_geom_bond_atom_site_label_1
_geom_bond_atom_site_label_2
_ccdc_geom_bond_type
C8    O29   A    
O16   S5    S    
O10   S4    D    
C16   N6    T    
O6    S2    S    
C22   N12   T    
C25   C28   S    
C6    C19   S    
C12   C23   S    
O21   S7    D    
C26   C27   S    
H8    O16   S    
C8    O28   A    
C23   C29   S    
C28   S8    S    
C10   C15   S    
C30   C31   T    
O18   S6    D    
O31   Zn2   S    
O8    S3    D    
C11   C24   S    
O14   S5    D    
C13   C23   S    
C3    C18   S    
C2    C32   D    
O5    S2    D    
H2    O26   S    
C11   C15   S    
O17   S6    D    
C12   C16   S    
C23   C27   S    
C5    S4    S    
C9    O31   A    
C2    C17   S    
O20   S7    D    
C7    H3    S    
O7    S3    D    
C1    O12   A    
C10   C21   S    
O11   S4    D    
C10   S1    S    
C12   S2    S    
H5    O6    S    
O25   S8    D    
O1    Zn1   S    
H4    O3    S    
C17   N7    T    
O27   Zn2   S    
O32   S1    D    
O2    S1    D    
O23   Zn1   S    
C1    C32   S    
O3    S1    S    
C13   S7    S    
O30   Zn1   S    
C7    N5    D    
C9    C14   S    
C11   S5    S    
O22   S7    S    
C22   N1    S    
O9    S3    S    
N1    Zn2   S    
C10   C12   S    
C3    C8    S    
C6    N1    D    
C13   S6    S    
C24   N2    T    
C2    C5    S    
C14   C29   T    
O26   S8    S    
C25   N3    T    
C18   N8    T    
C15   C30   S    
O12   Zn2   S    
H6    O9    S    
O28   Zn1   S    
H7    O13   S    
O19   S6    S    
C3    C5    D    
O4    S2    D    
C6    C7    S    
H10   O22   S    
C32   H1    S    
C1    O1    A    
C4    O23   A    
C20   N10   T    
C21   N11   T    
C11   C13   S    
C15   C28   S    
O24   S8    D    
O29   Zn2   S    
C4    O27   A    
C27   S3    S    
O13   S4    S    
C4    C31   S    
C26   N4    T    
C9    O30   A    
H9    O19   S    
C19   N9    T    
C27   C28   S    
N5    Zn1   S    
O15   S5    D    
C20   N5    S    
