data_mof_unit_pretest_818.cif
_audit_creation_date              2012-12-10T19:50:02-0500
_audit_creation_method            fapswitch 2.2
_symmetry_space_group_name_H-M    P1
_symmetry_Int_Tables_number       1
_space_group_crystal_system       triclinic
_cell_length_a                    14.220255
_cell_length_b                    14.978582
_cell_length_c                    15.279962
_cell_angle_alpha                 90.480958
_cell_angle_beta                  69.652271
_cell_angle_gamma                 90.762265
_cell_volume                      3051.23621435

loop_
_atom_site_label
_atom_site_type_symbol
_atom_type_description
_atom_site_fract_x
_atom_site_fract_y
_atom_site_fract_z
_atom_type_partial_charge
C1    C     C_R   0.500160 0.671709 0.501239 0.882603
C2    C     C_R   0.499621 0.328074 0.499776 0.858376
C3    C     C_R   0.373345 0.578397 0.109165 -0.226374
C4    C     C_R   0.606783 0.604010 0.905289 -0.206683
C5    C     C_R   0.302522 0.567561 0.065887 -0.247400
C6    C     C_R   0.681020 0.601984 0.944573 -0.240620
C7    C     C_R   0.443262 0.906180 0.580315 -0.207505
C8    C     C_R   0.516861 0.095343 0.575384 -0.202967
C9    C     C_R   0.440757 0.813586 0.581446 0.132208
C10   C     C_R   0.513942 0.187888 0.576562 0.133917
C11   C     C_R   0.501936 0.767226 0.501379 -0.078884
C12   C     C_R   0.498763 0.232208 0.501106 -0.109127
C13   C     C_R   0.566245 0.812989 0.422171 0.120215
C14   C     C_R   0.486959 0.183771 0.425563 0.133869
C15   C     C_R   0.567635 0.905564 0.423876 -0.204278
C16   C     C_R   0.490640 0.091266 0.426835 -0.197067
C17   C     C_R   0.505994 0.951498 0.502038 0.060084
C18   C     C_R   0.505181 0.047740 0.501174 0.051443
C19   C     C_R   0.884928 0.569914 0.534455 -0.338569
C20   C     C_R   0.128328 0.479855 0.426074 -0.328424
C21   C     C_R   0.786520 0.572060 0.532315 0.242169
C22   C     C_R   0.228751 0.479034 0.422364 0.234712
C23   C     C_R   0.438318 0.499646 0.676445 0.872596
C24   C     C_R   0.561451 0.507818 0.324854 0.880468
C25   C     C_R   0.802766 0.424358 0.473487 -0.070654
C26   C     C_R   0.177016 0.516765 0.582558 -0.061496
C27   C     C_R   0.900181 0.417739 0.478413 0.105489
C28   C     C_R   0.074465 0.513477 0.590603 0.112479
C29   C     C_R   0.943063 0.492782 0.509054 0.057467
C30   C     C_R   0.049261 0.494819 0.509950 0.056096
C31   C     C_R   0.401719 0.509812 0.778356 -0.163622
C32   C     C_R   0.596181 0.537019 0.227761 -0.103384
C33   C     C_R   0.262559 0.529681 0.925073 0.166998
C34   C     C_R   0.729233 0.561409 0.078974 0.189384
C35   C     C_R   0.298920 0.517625 0.827723 -0.233003
C36   C     C_R   0.696789 0.529860 0.170910 -0.301409
C37   C     C_R   0.469618 0.517311 0.826427 0.025802
C38   C     C_R   0.529696 0.582373 0.194717 0.048002
C39   C     C_R   0.436896 0.554012 0.916681 0.062564
C40   C     C_R   0.552721 0.587396 0.097878 0.008313
C41   C     C_R   0.332673 0.552230 0.969413 0.057522
C42   C     C_R   0.655695 0.584395 0.039873 0.118226
C43   C     C_R   0.506761 0.582093 0.958815 0.108489
C44   C     C_R   0.476827 0.585930 0.056819 0.070378
H1    H     H_    0.224350 0.566166 0.110026 0.141257
H2    H     H_    0.757864 0.609075 0.898367 0.157456
H3    H     H_    0.915865 0.628437 0.557027 0.161947
H4    H     H_    0.111629 0.466902 0.363238 0.159791
H5    H     H_    0.769995 0.367390 0.450423 0.150599
H6    H     H_    0.196158 0.530519 0.643892 0.140676
H7    H     H_    0.750430 0.503288 0.199531 0.165664
H8    H     H_    0.247445 0.510311 0.790131 0.177322
H9    H     H_    0.344378 0.578605 0.183906 0.157525
H10   H     H_    0.629089 0.618111 0.831563 0.147754
H11   H     H_    0.396163 0.943334 0.640456 0.137681
H12   H     H_    0.528469 0.060105 0.632463 0.145235
H13   H     H_    0.616355 0.942102 0.363883 0.142096
H14   H     H_    0.481776 0.052751 0.369727 0.144076
N1    N     N_R   0.747530 0.500020 0.500000 -0.104852
N2    N     N_R   0.252470 0.499980 0.500000 -0.105383
O1    O     O_R   0.420530 0.630930 0.499990 -0.621269
O2    O     O_R   0.579470 0.369070 0.500010 -0.620773
O3    O     O_R   0.579480 0.630940 0.499990 -0.590174
O4    O     O_R   0.420520 0.369060 0.500010 -0.610021
O5    O     O_R   0.375120 0.499990 0.632240 -0.628029
O6    O     O_R   0.624880 0.500010 0.367760 -0.614038
O7    O     O_R   0.534080 0.500000 0.632240 -0.625424
O8    O     O_R   0.465920 0.500000 0.367760 -0.597852
Zn1   Zn    Zn3+2 0.393860 0.499990 0.500000 0.932248
Zn2   Zn    Zn3+2 0.606140 0.500010 0.500000 0.932138
N3    N     N_3   0.726277 0.649372 0.566156 -0.413302
H15   H     H_    0.671526 0.632162 0.629786 0.178214
H16   H     H_    0.768822 0.701269 0.580350 0.150660
N4    N     N_3   0.305606 0.453037 0.337434 -0.437924
H17   H     H_    0.333239 0.392354 0.350353 0.212772
H18   H     H_    0.276124 0.440823 0.284545 0.148634
C45   C     C_3   0.951974 0.328378 0.456451 -0.428837
C46   C     C_3   0.979892 0.303737 0.353339 -0.877507
H19   H     H_    0.911485 0.294012 0.334920 0.252423
H20   H     H_    0.027430 0.356666 0.308289 0.253794
H21   H     H_    0.022328 0.240370 0.339165 0.252477
H22   H     H_    0.020511 0.327073 0.475319 0.219064
H23   H     H_    0.900753 0.276066 0.499372 0.202095
C47   C     C_3   0.995686 0.524507 0.686654 -0.436520
C48   C     C_3   0.996281 0.619222 0.724355 -0.896520
H24   H     H_    0.068668 0.634368 0.734095 0.253188
H25   H     H_    0.984059 0.668767 0.675890 0.260493
H26   H     H_    0.935336 0.625591 0.793084 0.252861
H27   H     H_    0.919284 0.508350 0.686867 0.219542
H28   H     H_    0.010833 0.476644 0.735235 0.200960
N5    N     N_3   0.460278 0.644020 0.256662 -0.474423
H29   H     H_    0.442188 0.694950 0.219048 0.179777
H30   H     H_    0.394550 0.611243 0.296840 0.227491
N6    N     N_3   0.564534 0.472247 0.793247 -0.457085
H31   H     H_    0.616335 0.506736 0.737973 0.201711
H32   H     H_    0.553799 0.407689 0.771868 0.199755
C49   C     C_3   0.151406 0.516057 0.981430 -0.400400
C50   C     C_3   0.089986 0.469606 0.928987 -0.911211
H33   H     H_    0.076387 0.516031 0.878444 0.261328
H34   H     H_    0.128705 0.408921 0.892259 0.263166
H35   H     H_    0.016697 0.447391 0.979258 0.247299
H36   H     H_    0.144716 0.472407 0.041801 0.204715
H37   H     H_    0.117212 0.581456 0.008676 0.203982
C51   C     C_3   0.840730 0.563873 0.024335 -0.426925
C52   C     C_3   0.881371 0.659604 0.010334 -0.873997
H38   H     H_    0.843706 0.699925 0.971892 0.255223
H39   H     H_    0.869769 0.691708 0.079053 0.261476
H40   H     H_    0.963026 0.659020 0.969652 0.254018
H41   H     H_    0.881621 0.528021 0.063140 0.208424
H42   H     H_    0.857776 0.529034 0.956221 0.201948
C53   C     C_3   0.375665 0.766919 0.669966 -0.426650
C54   C     C_3   0.437603 0.740268 0.729316 -0.865096
H43   H     H_    0.387839 0.709239 0.795125 0.254176
H44   H     H_    0.495850 0.691535 0.691400 0.256643
H45   H     H_    0.474492 0.800036 0.747166 0.258981
H46   H     H_    0.315010 0.811875 0.712369 0.202562
H47   H     H_    0.337315 0.707303 0.653979 0.220666
C55   C     C_3   0.525474 0.235974 0.660093 -0.402078
C56   C     C_3   0.634789 0.236555 0.654658 -0.848069
H48   H     H_    0.682534 0.272866 0.591533 0.265936
H49   H     H_    0.641426 0.270251 0.717216 0.239000
H50   H     H_    0.662562 0.167296 0.652159 0.250663
H51   H     H_    0.498189 0.305544 0.666500 0.198560
H52   H     H_    0.478574 0.201762 0.725246 0.194900
C57   C     C_3   0.631840 0.766025 0.334197 -0.389485
C58   C     C_3   0.741154 0.765334 0.328227 -0.827553
H53   H     H_    0.748138 0.730478 0.389475 0.283898
H54   H     H_    0.786914 0.729548 0.263869 0.243303
H55   H     H_    0.770780 0.834606 0.325732 0.246397
H56   H     H_    0.606749 0.696344 0.330410 0.218151
H57   H     H_    0.626378 0.800287 0.271896 0.202037
C59   C     C_3   0.474175 0.227096 0.341041 -0.410585
C60   C     C_3   0.368705 0.210133 0.339161 -0.866723
H58   H     H_    0.311727 0.236890 0.403626 0.265029
H59   H     H_    0.360698 0.243643 0.277626 0.240641
H60   H     H_    0.354583 0.137585 0.333675 0.255542
H61   H     H_    0.488971 0.300031 0.338208 0.204520
H62   H     H_    0.529872 0.198819 0.276594 0.197737

loop_
_geom_bond_atom_site_label_1
_geom_bond_atom_site_label_2
_ccdc_geom_bond_type
C9    C53   S    
C38   C40   A    
C58   H53   S    
C28   C47   S    
C11   C13   A    
C53   C54   S    
C1    C11   S    
C7    H11   S    
C2    C12   S    
C8    H12   S    
C54   H44   S    
C49   C50   S    
C16   H14   S    
C39   C41   A    
C14   C59   S    
C45   C46   S    
C52   H39   S    
N4    H18   S    
C21   N3    S    
C32   C36   A    
C19   C21   A    
C21   N1    A    
C26   H6    S    
C22   N2    A    
C51   H41   S    
C19   H3    S    
C48   H26   S    
C27   C29   A    
C45   H23   S    
C59   H62   S    
O2    Zn2   S    
C15   C17   A    
C23   O7    A    
C55   C56   S    
C54   H43   S    
C57   H56   S    
O8    Zn1   S    
C7    C17   A    
C34   C42   A    
C60   H60   S    
C53   H46   S    
C32   C38   A    
C33   C49   S    
C49   H36   S    
C24   O6    A    
C13   C57   S    
C40   C42   A    
C15   H13   S    
C47   H28   S    
C1    O3    A    
C51   C52   S    
C2    O4    A    
C25   H5    S    
C56   H49   S    
C52   H40   S    
C3    C44   A    
N4    H17   S    
C48   H25   S    
C47   C48   S    
C4    C6    A    
N5    H29   S    
N3    H16   S    
C46   H19   S    
C59   C60   S    
C20   C30   A    
C58   H55   S    
C27   C45   S    
C59   H61   S    
C48   H24   S    
C5    H1    S    
C38   N5    S    
C8    C18   A    
C31   C37   A    
C23   C31   S    
C43   C44   A    
C24   C32   S    
C29   C30   S    
C10   C55   S    
N5    H30   S    
C57   H57   S    
O3    Zn2   S    
C17   C18   S    
C46   H20   S    
C16   C18   A    
C55   H52   S    
O4    Zn1   S    
N6    H32   S    
C9    C11   A    
C20   H4    S    
C36   H7    S    
C10   C12   A    
N2    Zn1   S    
C12   C14   A    
C50   H34   S    
C13   C15   A    
C57   C58   S    
C14   C16   A    
C47   H27   S    
C22   N4    S    
C19   C29   A    
C56   H50   S    
O1    Zn1   S    
C7    C9    A    
C5    C41   A    
C58   H54   S    
C6    H2    S    
C4    H10   S    
C20   C22   A    
C3    C5    A    
C1    O1    A    
C39   C43   A    
C56   H48   S    
C4    C43   A    
C25   C27   A    
C50   H35   S    
C52   H38   S    
O6    Zn2   S    
C26   C28   A    
C53   H47   S    
O7    Zn2   S    
C33   C41   A    
C23   O5    A    
C28   C30   A    
N3    H15   S    
C37   C39   A    
C51   H42   S    
C3    H9    S    
C46   H21   S    
C60   H58   S    
C45   H22   S    
O5    Zn1   S    
C31   C35   A    
C33   C35   A    
C37   N6    S    
C34   C36   A    
C55   H51   S    
N6    H31   S    
C49   H37   S    
C34   C51   S    
C24   O8    A    
N1    Zn2   S    
C40   C44   A    
C8    C10   A    
C50   H33   S    
C6    C42   A    
C35   H8    S    
C60   H59   S    
C25   N1    A    
C26   N2    A    
C54   H45   S    
C2    O2    A    
