data_mof_unit_pretest_587.cif
_audit_creation_date              2012-12-10T19:45:41-0500
_audit_creation_method            fapswitch 2.2
_symmetry_space_group_name_H-M    P1
_symmetry_Int_Tables_number       1
_space_group_crystal_system       triclinic
_cell_length_a                    10.851381
_cell_length_b                    14.66884
_cell_length_c                    14.739035
_cell_angle_alpha                 65.277105
_cell_angle_beta                  103.148599
_cell_angle_gamma                 102.547839
_cell_volume                      2055.33366124

loop_
_atom_site_label
_atom_site_type_symbol
_atom_type_description
_atom_site_fract_x
_atom_site_fract_y
_atom_site_fract_z
_atom_type_partial_charge
C1    C     C_R   0.477318 0.119655 0.312472 0.799649
C2    C     C_R   0.520888 0.880333 0.687635 0.795902
C3    C     C_R   0.870105 0.000529 0.495270 -0.092229
C4    C     C_R   0.129404 0.000389 0.503514 -0.087552
C5    C     C_R   0.907527 0.949235 0.445575 0.053975
C6    C     C_R   0.091469 0.054969 0.549819 0.050717
C7    C     C_R   0.457746 0.187301 0.205433 -0.060651
C8    C     C_R   0.527300 0.812863 0.794931 -0.067633
C9    C     C_R   0.388522 0.215860 0.029032 -0.194822
C10   C     C_R   0.554922 0.784933 0.971646 -0.190097
C11   C     C_R   0.408063 0.149401 0.129776 -0.134576
C12   C     C_R   0.553106 0.851154 0.870825 -0.170959
C13   C     C_R   0.485322 0.291979 0.179605 -0.262311
C14   C     C_R   0.503118 0.708104 0.820849 -0.251623
C15   C     C_R   0.459902 0.360698 0.079264 0.090004
C16   C     C_R   0.498810 0.639830 0.921389 0.090526
C17   C     C_R   0.414594 0.320912 0.003292 0.161777
C18   C     C_R   0.528539 0.679824 0.997512 0.148425
C19   C     C_R   0.480253 0.467473 0.052349 0.063115
C20   C     C_R   0.467979 0.533189 0.948319 0.071163
C21   C     C_R   0.422167 0.490196 0.874862 -0.226006
C22   C     C_R   0.508939 0.510584 0.125880 -0.218359
C23   C     C_R   0.262828 0.999743 0.502063 0.793361
C24   C     C_R   0.736946 0.000672 0.497364 0.796088
C25   C     C_R   0.395062 0.386129 0.902394 -0.237504
C26   C     C_R   0.531528 0.614670 0.098597 -0.221245
C27   C     C_R   0.707204 0.281525 0.672647 -0.315649
C28   C     C_R   0.299029 0.720884 0.323706 -0.335838
C29   C     C_R   0.675029 0.200412 0.642246 0.106515
C30   C     C_R   0.325797 0.799699 0.357279 0.082906
C31   C     C_R   0.524235 0.287888 0.505633 0.005596
C32   C     C_R   0.480463 0.714345 0.491557 -0.006621
C33   C     C_R   0.553871 0.373872 0.531750 -0.030032
C34   C     C_R   0.456727 0.630801 0.462034 -0.003688
C35   C     C_R   0.646010 0.367920 0.618488 0.152510
C36   C     C_R   0.364940 0.636759 0.375078 0.171572
C37   C     C_R   0.493009 0.463272 0.477464 0.147925
C38   C     C_R   0.521447 0.543174 0.514120 0.136536
C39   C     C_R   0.613007 0.532469 0.601752 -0.253930
C40   C     C_R   0.404196 0.475196 0.388208 -0.161905
C41   C     C_R   0.674738 0.447119 0.651915 -0.220262
C42   C     C_R   0.340935 0.559769 0.338847 -0.158578
C43   C     C_R   0.346452 0.138522 0.734231 0.409011
C44   C     C_R   0.651047 0.916885 0.234706 0.397965
C45   C     C_R   0.266035 0.076905 0.687386 -0.096041
C46   C     C_R   0.738453 0.960935 0.295467 -0.102180
C47   C     C_R   0.180505 0.119117 0.598989 -0.037534
C48   C     C_R   0.816168 0.901796 0.380787 -0.014464
C49   C     C_R   0.172965 0.223234 0.559559 -0.237322
C50   C     C_R   0.809289 0.798112 0.402906 -0.289190
C51   C     C_R   0.247906 0.285585 0.607371 0.514916
C52   C     C_R   0.724129 0.752838 0.340231 0.519901
C53   C     C_R   0.337813 0.243094 0.693847 -0.349201
C54   C     C_R   0.643111 0.812596 0.258588 -0.286700
C55   C     C_R   0.962166 0.052525 0.546326 -0.240839
C56   C     C_R   0.036920 0.947795 0.452681 -0.240333
Cu1   Cu    Cu3+1 0.466270 0.918260 0.475690 0.942659
Cu2   Cu    Cu3+1 0.533730 0.081740 0.524310 0.946125
H1    H     H_    0.402419 0.290714 0.728750 0.136994
H2    H     H_    0.574221 0.777625 0.212883 0.128662
H3    H     H_    0.352038 0.185180 0.971212 0.145220
H4    H     H_    0.576565 0.815954 0.029407 0.135894
H5    H     H_    0.401654 0.534823 0.795161 0.134568
H6    H     H_    0.510655 0.466076 0.205550 0.145485
H7    H     H_    0.744575 0.442440 0.718734 0.147702
H8    H     H_    0.272558 0.565065 0.271154 0.133289
H9    H     H_    0.552310 0.718491 0.553858 0.126223
H10   H     H_    0.451199 0.283751 0.443939 0.125948
H11   H     H_    0.277077 0.865732 0.316450 0.122426
H12   H     H_    0.721049 0.133144 0.684640 0.122801
H13   H     H_    0.778284 0.276192 0.738909 0.139308
H14   H     H_    0.228503 0.726319 0.257125 0.139924
H15   H     H_    0.639364 0.588830 0.634131 0.132664
H16   H     H_    0.381041 0.420161 0.354205 0.109127
H17   H     H_    0.271246 0.996303 0.719166 0.141375
H18   H     H_    0.744722 0.041350 0.276902 0.137303
H19   H     H_    0.106517 0.256135 0.491573 0.164949
H20   H     H_    0.869039 0.753638 0.469605 0.144685
H21   H     H_    0.933550 0.092116 0.584350 0.163294
H22   H     H_    0.065360 0.908904 0.413906 0.159603
H23   H     H_    0.359120 0.356115 0.844298 0.129429
H24   H     H_    0.552558 0.644124 0.157453 0.170723
H25   H     H_    0.490400 0.681481 0.761090 0.147772
H26   H     H_    0.529079 0.318152 0.239178 0.153675
H27   H     H_    0.572145 0.932009 0.852393 0.192602
H28   H     H_    0.384234 0.068682 0.148366 0.181439
N1    N     N_R   0.584450 0.204570 0.560790 -0.178774
N2    N     N_R   0.415550 0.795430 0.439210 -0.177890
O1    O     O_R   0.455540 0.022090 0.338120 -0.579850
O2    O     O_R   0.544460 0.977910 0.661880 -0.582690
O3    O     O_R   0.512510 0.160150 0.379180 -0.595541
O4    O     O_R   0.487490 0.839850 0.620820 -0.593795
O5    O     O_R   0.291160 0.930970 0.479480 -0.591955
O6    O     O_R   0.708840 0.069030 0.520520 -0.591417
O7    O     O_R   0.348130 0.069020 0.520540 -0.574113
O8    O     O_R   0.651870 0.930980 0.479460 -0.572848
O9    O     O_3   0.432412 0.094572 0.818908 -0.745894
H29   H     H_    0.482419 0.147788 0.842611 0.324622
O10   O     O_3   0.575304 0.977568 0.152428 -0.741094
H30   H     H_    0.518464 0.935267 0.117672 0.318746
O11   O     O_3   0.235921 0.388191 0.561680 -0.573994
C57   C     C_3   0.244276 0.430666 0.633145 -0.343462
H31   H     H_    0.345657 0.449568 0.663064 0.167158
H32   H     H_    0.188472 0.380753 0.695303 0.154674
H33   H     H_    0.203245 0.502905 0.594288 0.192230
O12   O     O_3   0.709226 0.650331 0.357945 -0.587118
C58   C     C_3   0.823181 0.607237 0.404497 -0.319462
H34   H     H_    0.839790 0.589319 0.486980 0.173965
H35   H     H_    0.906999 0.656420 0.368720 0.155819
H36   H     H_    0.812274 0.534476 0.395284 0.196638

loop_
_geom_bond_atom_site_label_1
_geom_bond_atom_site_label_2
_ccdc_geom_bond_type
O11   C57   S    
C1    O1    A    
Cu1   O4    S    
C27   C29   A    
C5    C56   A    
C36   C42   A    
C19   C20   A    
C18   C26   A    
C6    C55   A    
Cu2   N1    S    
C46   H18   S    
O9    H29   S    
C53   H1    S    
C39   C41   A    
C54   H2    S    
C29   N1    A    
C15   C19   A    
C13   H26   S    
Cu1   O1    S    
C12   H27   S    
C23   O7    A    
C9    H3    S    
C37   C40   A    
C24   O8    A    
C38   C39   A    
C44   O10   S    
O12   C58   S    
C11   H28   S    
C32   N2    A    
C57   H33   S    
C2    O2    A    
C3    C55   A    
C43   C53   A    
C44   C46   A    
C49   C51   A    
Cu1   O8    S    
C50   C52   A    
C58   H34   S    
C31   C33   A    
Cu2   O3    S    
C8    C12   A    
C40   C42   A    
C52   O12   S    
C1    O3    A    
C1    C7    S    
C4    C56   A    
C25   H23   S    
C58   H35   S    
C3    C24   S    
C28   H14   S    
C14   H25   S    
C50   H20   S    
C52   C54   A    
C26   H24   S    
C45   C47   A    
C31   H10   S    
C2    O4    A    
C5    C48   S    
C46   C48   A    
C31   N1    A    
C6    C47   S    
C19   C22   A    
C47   C49   A    
C4    C23   S    
C41   H7    S    
C27   C35   A    
C33   C37   A    
C23   O5    A    
C51   C53   A    
C32   C34   A    
C7    C11   A    
Cu2   O7    S    
C37   C38   A    
C24   O6    A    
C55   H21   S    
O10   H30   S    
C16   C20   A    
C57   H32   S    
C48   C50   A    
C43   C45   A    
C10   C12   A    
Cu2   O2    S    
C32   H9    S    
C4    C6    A    
C9    C11   A    
C58   H36   S    
C14   C16   A    
C10   H4    S    
C30   N2    A    
C30   H11   S    
C27   H13   S    
C29   H12   S    
C9    C17   A    
C15   C17   A    
C21   C25   A    
C8    C14   A    
C34   C38   A    
C2    C8    S    
C43   O9    S    
C3    C5    A    
C51   O11   S    
C56   H22   S    
Cu1   N2    S    
C45   H17   S    
C17   C25   A    
C13   C15   A    
Cu2   O6    S    
C49   H19   S    
Cu1   Cu2   S    
C10   C18   A    
C28   C30   A    
C33   C35   A    
C40   H16   S    
C34   C36   A    
C39   H15   S    
C57   H31   S    
C35   C41   A    
C21   H5    S    
C22   H6    S    
C44   C54   A    
C7    C13   A    
C20   C21   A    
C28   C36   A    
C16   C18   A    
C22   C26   A    
C42   H8    S    
Cu1   O5    S    
