data_mof_unit_pretest_1438.cif
_audit_creation_date              2012-10-26T17:13:07-0400
_audit_creation_method            fapswitch 2.2
_symmetry_space_group_name_H-M    P1
_symmetry_Int_Tables_number       1
_space_group_crystal_system       triclinic
_cell_length_a                    16.811698
_cell_length_b                    16.746742
_cell_length_c                    16.750483
_cell_angle_alpha                 67.460011
_cell_angle_beta                  67.63803
_cell_angle_gamma                 67.609718
_cell_volume                      3872.60183879

loop_
_atom_site_label
_atom_site_type_symbol
_atom_type_description
_atom_site_fract_x
_atom_site_fract_y
_atom_site_fract_z
_atom_type_partial_charge
C1    C     C_R   0.314526 0.996486 0.435173 0.006213
C2    C     C_R   0.311553 0.422851 0.013643 0.010669
C3    C     C_R   0.546930 0.432106 0.954014 0.003647
C4    C     C_R   0.005005 0.458429 0.587032 0.008274
C5    C     C_R   0.945398 0.554676 0.431110 0.009942
C6    C     C_R   0.981974 0.692474 0.575956 0.007541
C7    C     C_R   0.950080 0.322750 0.455011 0.012441
C8    C     C_R   0.457811 0.985936 0.449353 -0.015012
C9    C     C_R   0.554102 0.002016 0.545115 -0.016057
C10   C     C_R   0.960979 0.461089 0.462154 -0.016878
C11   C     C_R   0.989136 0.552203 0.556477 -0.018476
C12   C     C_R   0.453575 0.448995 0.992081 -0.015789
C13   C     C_R   0.547506 0.551253 0.004800 -0.015435
C14   C     C_R   0.016476 0.830549 0.569274 0.594805
C15   C     C_R   0.682099 0.036493 0.545852 0.014621
C16   C     C_R   0.969198 0.172174 0.436141 0.590352
C17   C     C_R   0.830642 0.569711 0.015396 0.599252
C18   C     C_R   0.169649 0.430495 0.983614 0.596698
C19   C     C_R   0.568135 0.019025 0.829654 0.581376
C20   C     C_R   0.436661 0.968603 0.171981 0.588109
C21   C     C_R   0.436634 0.172265 0.968306 0.549736
C22   C     C_R   0.563499 0.827750 0.031171 0.593185
C23   C     C_R   0.966829 0.437151 0.172644 0.593554
C24   C     C_R   0.030741 0.563572 0.827730 0.587040
C25   C     C_R   0.170433 0.980593 0.431890 0.589011
C26   C     C_R   0.936243 0.458766 0.327664 0.012653
C27   C     C_R   0.828204 0.029834 0.563663 0.590473
C28   C     C_R   0.409107 0.977762 0.401974 -0.041880
C29   C     C_R   0.600900 0.012671 0.592844 -0.043223
C30   C     C_R   0.950482 0.413841 0.414001 -0.040421
C31   C     C_R   0.004200 0.597505 0.603120 -0.045840
C32   C     C_R   0.406337 0.399542 0.983727 -0.033032
C33   C     C_R   0.594719 0.600771 0.013020 -0.042849
C34   C     C_R   0.267464 0.975743 0.393299 0.011487
C35   C     C_R   0.729400 0.044840 0.595973 0.011009
C36   C     C_R   0.941639 0.406109 0.274197 0.008421
C37   C     C_R   0.039144 0.548066 0.678438 0.014580
C38   C     C_R   0.046817 0.596601 0.727866 0.009714
C39   C     C_R   0.403461 0.272663 0.948407 -0.023334
C40   C     C_R   0.597081 0.727663 0.048947 0.012549
C41   C     C_R   0.607274 0.021622 0.732929 0.011536
C42   C     C_R   0.404229 0.949921 0.271732 0.005790
C43   C     C_R   0.734965 0.611537 0.015208 0.020265
C44   C     C_R   0.265666 0.388750 0.982457 0.023928
C45   C     C_R   0.015755 0.735293 0.610674 0.019610
C46   C     C_R   0.946839 0.272666 0.404367 0.008242
C47   C     C_R   0.488108 0.966402 0.730039 0.110990
C48   C     C_R   0.453511 0.326251 0.945952 -0.006519
C49   C     C_R   0.550767 0.932654 0.292558 0.121709
C50   C     C_R   0.928377 0.739864 0.514428 0.104292
C51   C     C_R   0.947488 0.287227 0.547766 0.123607
C52   C     C_R   0.733770 0.520054 0.925978 0.103972
C53   C     C_R   0.267589 0.479489 0.071816 0.101711
C54   C     C_R   0.272584 0.030393 0.512171 0.112824
C55   C     C_R   0.712046 0.051343 0.450360 0.113285
C56   C     C_R   0.546829 0.313374 0.902323 0.114452
C57   C     C_R   0.454396 0.688272 0.092568 0.107989
C58   C     C_R   0.907407 0.554775 0.303417 0.102922
C59   C     C_R   0.547438 0.674515 0.050007 0.018059
C60   C     C_R   0.065492 0.452538 0.701093 0.108447
C61   C     C_R   0.315664 0.944388 0.316002 0.047260
C62   C     C_R   0.684451 0.052840 0.683725 0.044429
C63   C     C_R   0.932209 0.317955 0.318223 0.045997
C64   C     C_R   0.053510 0.684597 0.683618 0.044361
C65   C     C_R   0.314564 0.315243 0.945363 0.057445
C66   C     C_R   0.685806 0.685114 0.052011 0.046882
C67   C     C_R   0.677046 0.017239 0.409858 0.015292
C68   C     C_R   0.323121 0.012112 0.570699 0.018609
C69   C     C_R   0.039117 0.408626 0.662197 0.019592
C70   C     C_R   0.566153 0.998334 0.687198 0.006441
C71   C     C_R   0.912614 0.602484 0.355005 0.021520
C72   C     C_R   0.407832 0.634948 0.089190 0.025323
C73   C     C_R   0.592996 0.366018 0.907030 0.059571
C74   C     C_R   0.594436 0.961696 0.329073 0.026783
C75   C     C_R   0.430328 0.984240 0.678990 0.016059
C76   C     C_R   0.314482 0.529822 0.079606 0.024314
C77   C     C_R   0.686736 0.470180 0.917564 0.023555
C78   C     C_R   0.983364 0.324467 0.583695 0.020970
C79   C     C_R   0.923173 0.695172 0.460566 0.021749
C80   C     C_R   0.720939 0.002715 0.324323 -0.145918
C81   C     C_R   0.455257 0.953047 0.320989 0.013844
C82   C     C_R   0.284173 0.010588 0.661895 -0.133403
C83   C     C_R   0.045042 0.316136 0.697107 -0.143857
C84   C     C_R   0.882062 0.696994 0.334770 -0.139650
C85   C     C_R   0.316007 0.645676 0.132811 -0.136915
C86   C     C_R   0.684779 0.355255 0.863263 -0.116133
C87   C     C_R   0.682460 0.969497 0.287097 -0.136220
C88   C     C_R   0.338523 0.990168 0.717088 -0.134950
C89   C     C_R   0.270578 0.593495 0.129025 -0.135981
C90   C     C_R   0.730516 0.406843 0.867662 -0.148061
C91   C     C_R   0.012857 0.275845 0.661268 -0.144072
C92   C     C_R   0.689515 0.577179 0.983732 0.008075
C93   C     C_R   0.885155 0.742221 0.387870 -0.135127
C94   C     C_R   0.548664 0.982607 0.411015 0.011437
C95   C     C_R   0.466619 0.994744 0.586718 0.011433
C96   C     C_R   0.985087 0.414236 0.543211 0.009532
C97   C     C_R   0.954495 0.600853 0.481417 0.010776
C98   C     C_R   0.407176 0.516532 0.037051 0.011758
C99   C     C_R   0.593945 0.483629 0.959959 0.009494
C100  C     C_R   0.593750 0.000042 0.455504 0.010330
C101  C     C_R   0.415774 0.996951 0.535795 0.011530
C102  C     C_R   0.454091 0.568245 0.042832 0.010274
Cu1   Cu    Cu3+1 0.995180 0.995180 0.424630 0.941369
Cu2   Cu    Cu3+1 0.004820 0.004820 0.575370 0.945321
Cu3   Cu    Cu3+1 0.995180 0.424630 0.995180 0.947241
Cu4   Cu    Cu3+1 0.004820 0.575370 0.004820 0.949691
Cu5   Cu    Cu3+1 0.424630 0.995180 0.995180 0.941366
Cu6   Cu    Cu3+1 0.575370 0.004820 0.004820 0.940211
H1    H     H_    0.307500 0.984955 0.787878 0.103358
H2    H     H_    0.277778 0.694570 0.170521 0.109699
H3    H     H_    0.854181 0.737310 0.278565 0.103339
H4    H     H_    0.070035 0.275041 0.754966 0.104961
H5    H     H_    0.325364 0.865590 0.242735 0.238951
H6    H     H_    0.253503 0.851783 0.340996 0.215456
H7    H     H_    0.657842 0.148595 0.741230 0.219468
H8    H     H_    0.756082 0.135123 0.670842 0.246664
H9    H     H_    0.857361 0.242272 0.328415 0.236193
H10   H     H_    0.860802 0.326052 0.239291 0.224964
H11   H     H_    0.151665 0.741570 0.653005 0.217503
H12   H     H_    0.720091 0.955399 0.223135 0.102093
H13   H     H_    0.137881 0.670875 0.753506 0.231567
H14   H     H_    0.324898 0.243571 0.863975 0.227259
H15   H     H_    0.255506 0.344266 0.849320 0.229705
H16   H     H_    0.741236 0.653961 0.150221 0.230154
H17   H     H_    0.674417 0.755431 0.134953 0.241515
H18   H     H_    0.491160 0.836851 0.800380 0.222020
H19   H     H_    0.418198 0.911772 0.857101 0.237059
H20   H     H_    0.639672 0.813015 0.279568 0.210684
H21   H     H_    0.647626 0.897383 0.183330 0.240673
H22   H     H_    0.803116 0.824211 0.536626 0.223651
H23   H     H_    0.859413 0.814608 0.369396 0.106994
H24   H     H_    0.880820 0.872431 0.453407 0.249097
H25   H     H_    0.833195 0.275665 0.647391 0.218853
H26   H     H_    0.916685 0.179385 0.652312 0.235777
H27   H     H_    0.819912 0.544704 0.801350 0.224350
H28   H     H_    0.864818 0.456431 0.879228 0.247526
H29   H     H_    0.136420 0.541539 0.120536 0.247924
H30   H     H_    0.183231 0.453534 0.197266 0.222336
H31   H     H_    0.204464 0.160484 0.507776 0.222820
H32   H     H_    0.145941 0.086795 0.580498 0.234294
H33   H     H_    0.720199 0.170418 0.356683 0.219399
H34   H     H_    0.014994 0.205539 0.692305 0.096412
H35   H     H_    0.818062 0.089031 0.349475 0.238123
H36   H     H_    0.630278 0.197148 0.872908 0.260276
H37   H     H_    0.548043 0.249296 0.818192 0.220921
H38   H     H_    0.387013 0.711933 0.214296 0.213203
H39   H     H_    0.356171 0.796655 0.125368 0.236971
H40   H     H_    0.889093 0.650811 0.187716 0.244838
H41   H     H_    0.793579 0.634371 0.268852 0.209604
H42   H     H_    0.186263 0.366080 0.713413 0.217747
H43   H     H_    0.102484 0.355380 0.809884 0.245408
H44   H     H_    0.800993 0.394955 0.832588 0.109383
H45   H     H_    0.200113 0.605357 0.164059 0.106801
H46   H     H_    0.213027 0.019553 0.692087 0.101696
H47   H     H_    0.786743 0.012310 0.287824 0.098966
H48   H     H_    0.722454 0.306398 0.825302 0.139274
N1    N     N_3   0.276005 0.902399 0.285765 -0.571336
N2    N     N_3   0.885377 0.235726 0.608478 -0.612008
N3    N     N_3   0.822203 0.521715 0.868168 -0.598364
N4    N     N_3   0.179814 0.476619 0.130819 -0.598873
N5    N     N_3   0.190341 0.101483 0.516688 -0.583308
N6    N     N_3   0.760695 0.117032 0.394451 -0.617850
N7    N     N_3   0.592690 0.258871 0.840916 -0.654283
N8    N     N_3   0.410411 0.748596 0.148020 -0.632842
N9    N     N_3   0.858528 0.602147 0.237289 -0.618683
N10   N     N_3   0.129284 0.401746 0.752709 -0.624445
N11   N     N_3   0.713578 0.097845 0.721227 -0.571946
N12   N     N_3   0.902728 0.276102 0.277653 -0.564676
N13   N     N_3   0.101541 0.721353 0.710036 -0.569346
N14   N     N_3   0.275855 0.287737 0.900050 -0.573399
N15   N     N_3   0.723569 0.711245 0.099130 -0.579454
N16   N     N_3   0.482191 0.896348 0.813585 -0.578850
N17   N     N_3   0.602489 0.869265 0.240655 -0.624582
N18   N     N_3   0.868887 0.827656 0.517551 -0.593719
O1    O     O_R   0.124540 0.978640 0.385460 -0.473832
O2    O     O_R   0.124540 0.385460 0.978640 -0.472564
O3    O     O_R   0.021360 0.875460 0.614540 -0.473143
O4    O     O_R   0.978640 0.124540 0.385460 -0.481139
O5    O     O_R   0.013780 0.867370 0.487190 -0.511250
O6    O     O_R   0.986220 0.132630 0.512810 -0.493345
O7    O     O_R   0.867370 0.487190 0.013780 -0.513009
O8    O     O_R   0.132630 0.512810 0.986220 -0.511382
O9    O     O_R   0.487190 0.013780 0.867370 -0.504689
O10   O     O_R   0.512810 0.986220 0.132630 -0.494376
O11   O     O_R   0.512810 0.132630 0.986220 -0.516440
O12   O     O_R   0.875460 0.021360 0.614540 -0.489448
O13   O     O_R   0.487190 0.867370 0.013780 -0.487762
O14   O     O_R   0.986220 0.512810 0.132630 -0.494653
O15   O     O_R   0.013780 0.487190 0.867370 -0.499357
O16   O     O_R   0.132630 0.986220 0.512810 -0.500845
O17   O     O_R   0.867370 0.013780 0.487190 -0.502020
O18   O     O_R   0.978640 0.385460 0.124540 -0.483812
O19   O     O_R   0.021360 0.614540 0.875460 -0.490462
O20   O     O_R   0.385460 0.124540 0.978640 -0.481781
O21   O     O_R   0.614540 0.875460 0.021360 -0.492208
O22   O     O_R   0.614540 0.021360 0.875460 -0.481345
O23   O     O_R   0.385460 0.978640 0.124540 -0.485601
O24   O     O_R   0.875460 0.614540 0.021360 -0.469288

loop_
_geom_bond_atom_site_label_1
_geom_bond_atom_site_label_2
_ccdc_geom_bond_type
H13   N13   S    
C16   O6    A    
C6    C45   A    
C39   C65   A    
C74   C94   A    
C17   O7    A    
C50   C79   A    
C49   N17   S    
C72   C85   A    
C75   C95   A    
H6    N1    S    
H22   N18   S    
H16   N15   S    
C56   N7    S    
H20   N17   S    
C60   C69   A    
C45   C64   A    
C79   C93   A    
C80   C87   A    
C18   C44   S    
C25   O16   A    
C23   O14   A    
C58   C71   A    
C57   C59   A    
C54   C68   A    
C18   O8    A    
H9    N12   S    
C76   C98   A    
H42   N10   S    
Cu5   O13   S    
C64   N13   S    
C55   C67   A    
C2    C32   A    
H25   N2    S    
C49   C81   A    
C22   O13   A    
C58   N9    S    
C86   H48   S    
Cu4   O8    S    
C3    C12   A    
C4    C96   A    
H28   N3    S    
C78   C96   A    
Cu6   O11   S    
H14   N14   S    
Cu3   O2    S    
C1    C28   A    
C24   C38   S    
Cu5   Cu6   S    
H8    N11   S    
C77   C99   A    
C24   O15   A    
C10   C96   A    
C21   O20   A    
Cu6   O22   S    
C36   C63   A    
C8    C101  A    
C9    C95   A    
H35   N6    S    
C12   C98   A    
C14   O5    A    
C9    C29   A    
C25   C34   S    
Cu4   O24   S    
C91   H34   S    
C52   N3    S    
C62   N11   S    
C11   C31   A    
C19   O22   A    
C57   C72   A    
C7    C30   A    
C40   C66   A    
C12   C32   A    
H40   N9    S    
C32   C48   A    
Cu3   O18   S    
H21   N17   S    
C44   C65   A    
C42   C81   A    
C27   O17   A    
C41   C62   A    
C3    C73   A    
C15   C35   A    
C4    C69   A    
C16   O4    A    
C1    C34   A    
C15   C29   A    
Cu4   O19   S    
C38   C64   A    
C20   O23   A    
C77   C90   A    
C84   H3    S    
H27   N3    S    
C11   C97   A    
Cu6   O10   S    
C14   O3    A    
C7    C46   A    
Cu3   O15   S    
C66   N15   S    
H31   N5    S    
C8    C94   A    
C68   C101  A    
C90   H44   S    
C85   H2    S    
C86   C90   A    
C33   C92   A    
C19   O9    A    
Cu5   O23   S    
C85   C89   A    
H37   N7    S    
C27   C35   S    
H32   N5    S    
C98   C102  A    
H38   N8    S    
C34   C61   A    
C60   N10   S    
C31   C37   A    
Cu5   O9    S    
Cu6   O21   S    
C27   O12   A    
C15   C55   A    
C13   C99   A    
C29   C70   A    
C1    C54   A    
C17   C43   S    
C47   C70   A    
C13   C33   A    
C37   C38   A    
C69   C83   A    
C61   N1    S    
C7    C51   A    
C25   O1    A    
C89   H45   S    
Cu2   O3    S    
C21   C39   S    
C94   C100  A    
C22   C40   S    
Cu1   O1    S    
H41   N9    S    
C17   O24   A    
H24   N18   S    
C6    C50   A    
C4    C11   A    
C26   C58   A    
C42   C61   A    
C67   C100  A    
H11   N13   S    
C47   N16   S    
C88   H1    S    
C26   C36   A    
C63   N12   S    
H26   N2    S    
C5    C97   A    
C26   C30   A    
C9    C100  A    
H36   N7    S    
C74   C87   A    
C10   C30   A    
C52   C92   A    
C53   C76   A    
Cu1   O17   S    
C16   C46   S    
C52   C77   A    
Cu2   O12   S    
C2    C44   A    
C80   H47   S    
C71   C84   A    
C23   O18   A    
C48   C56   A    
Cu2   O16   S    
C53   N4    S    
C56   C73   A    
C22   O21   A    
H29   N4    S    
C28   C81   A    
C83   H4    S    
C79   C97   A    
C67   C80   A    
C55   N6    S    
C2    C53   A    
H30   N4    S    
C20   C42   S    
C21   O11   A    
C14   C45   S    
C78   C91   A    
H43   N10   S    
C83   C91   A    
Cu3   Cu4   S    
C46   C63   A    
C51   N2    S    
C95   C101  A    
C43   C92   A    
C20   O10   A    
C65   N14   S    
C50   N18   S    
Cu1   O4    S    
C68   C82   A    
H5    N1    S    
H19   N16   S    
C51   C78   A    
C47   C75   A    
C5    C10   A    
C5    C71   A    
Cu2   O6    S    
C57   N8    S    
C72   C102  A    
C24   O19   A    
C43   C66   A    
C82   C88   A    
H10   N12   S    
H39   N8    S    
C6    C31   A    
C35   C62   A    
Cu1   O5    S    
C84   C93   A    
C54   N5    S    
H17   N15   S    
H15   N14   S    
C73   C86   A    
C37   C60   A    
H18   N16   S    
Cu4   O14   S    
C82   H46   S    
C3    C99   A    
C75   C88   A    
H33   N6    S    
C8    C28   A    
C33   C59   A    
C23   C36   S    
Cu1   Cu2   S    
C40   C59   A    
C49   C74   A    
C41   C70   A    
C76   C89   A    
Cu3   O7    S    
C13   C102  A    
C93   H23   S    
H7    N11   S    
Cu5   O20   S    
C87   H12   S    
C19   C41   S    
C39   C48   A    
C18   O2    A    
