data_mof_unit_pretest_672.cif
_audit_creation_date              2012-12-10T17:15:49-0500
_audit_creation_method            fapswitch 2.2
_symmetry_space_group_name_H-M    P1
_symmetry_Int_Tables_number       1
_space_group_crystal_system       triclinic
_cell_length_a                    10.18103
_cell_length_b                    10.642223
_cell_length_c                    10.485199
_cell_angle_alpha                 89.667042
_cell_angle_beta                  93.778637
_cell_angle_gamma                 83.366532
_cell_volume                      1125.8968358

loop_
_atom_site_label
_atom_site_type_symbol
_atom_type_description
_atom_site_fract_x
_atom_site_fract_y
_atom_site_fract_z
_atom_type_partial_charge
C1    C     C_R   0.445724 0.508662 0.264959 0.902326
C2    C     C_R   0.458326 0.069561 0.378418 -0.100632
C3    C     C_R   0.487400 0.129048 0.495459 -0.204974
C4    C     C_R   0.521109 0.062031 0.610204 0.315104
C5    C     C_R   0.530778 0.930652 0.608421 0.384697
C6    C     C_R   0.510731 0.870813 0.491353 -0.228007
C7    C     C_2   0.418896 0.500553 0.126231 0.315506
C8    C     C_2   0.490858 0.406092 0.069038 -0.382342
C9    C     C_2   0.576624 0.462839 0.870965 -0.391248
C10   C     C_2   0.489650 0.400831 0.930163 0.641890
C11   C     C_2   0.076185 0.473751 0.507550 0.612612
C12   C     C_R   0.496540 0.260883 0.498319 1.086548
C13   C     C_2   0.929763 0.497869 0.521914 -0.013043
C14   C     C_R   0.553569 0.486957 0.734481 0.983732
C15   C     C_R   0.502438 0.739121 0.496680 1.043502
C16   C     C_R   0.400364 0.136663 0.267151 0.438003
C17   C     C_R   0.394538 0.074670 0.149554 -0.283661
C18   C     C_R   0.443559 0.948299 0.141592 -0.276939
C19   C     C_R   0.490269 0.878193 0.252491 0.448173
C20   C     C_R   0.487084 0.937748 0.373698 -0.074990
H1    H     H_    0.894251 0.555693 0.600101 0.067127
H2    H     H_    0.353358 0.124894 0.063328 0.178340
H3    H     H_    0.443184 0.904273 0.048691 0.190010
H4    H     H_    0.554830 0.333461 0.124023 0.138413
H5    H     H_    0.652808 0.508207 0.924458 0.101265
N1    N     N_2   0.157290 0.551390 0.551110 0.003609
N2    N     N_2   0.842740 0.448550 0.448960 0.046789
O1    O     O_R   0.568950 0.489660 0.307530 -0.616547
O2    O     O_R   0.348880 0.522640 0.340350 -0.585330
O3    O     O_R   0.610060 0.300270 0.483590 -0.641121
O4    O     O_R   0.389990 0.333260 0.516410 -0.548623
O5    O     O_R   0.651120 0.477360 0.659650 -0.647475
O6    O     O_R   0.431050 0.510340 0.692470 -0.568762
O7    O     O_R   0.610010 0.666740 0.483590 -0.594182
O8    O     O_R   0.389940 0.699730 0.516410 -0.578653
Zn1   Zn    Zn3+2 0.646940 0.477980 0.478090 0.993247
Zn2   Zn    Zn3+2 0.353060 0.522020 0.521910 1.080497
O9    O     O_3   0.542144 0.128293 0.721537 -0.746869
H6    H     H_    0.551389 0.070072 0.796350 0.377957
O10   O     O_3   0.340948 0.593224 0.050797 -0.633193
C21   C     C_3   0.238130 0.657727 0.116960 -0.284602
H7    H     H_    0.277815 0.718095 0.192919 0.185741
H8    H     H_    0.174377 0.590679 0.156185 0.191338
H9    H     H_    0.174425 0.721484 0.048320 0.188912
O11   O     O_3   0.127749 0.368779 0.441870 -0.528573
C22   C     C_3   0.116190 0.258400 0.513698 -0.184138
H10   H     H_    0.011156 0.243629 0.524155 0.155049
H11   H     H_    0.169853 0.260178 0.609259 0.125019
H12   H     H_    0.162597 0.175528 0.462608 0.206124
O12   O     O_3   0.883756 0.391929 0.342251 -0.653147
H13   H     H_    0.802868 0.364334 0.298879 0.361458
O13   O     O_3   0.106654 0.660116 0.603132 -0.699979
H14   H     H_    0.079135 0.636431 0.688277 0.301223
O14   O     O_3   0.341120 0.258953 0.276602 -0.764664
H15   H     H_    0.287555 0.283839 0.196334 0.328832
O15   O     O_3   0.547466 0.755076 0.242788 -0.778808
H16   H     H_    0.550257 0.732182 0.151359 0.339650
O16   O     O_3   0.552483 0.860386 0.721154 -0.621035
C23   C     C_3   0.690350 0.830618 0.747494 -0.345125
H17   H     H_    0.740667 0.917376 0.761735 0.180990
H18   H     H_    0.736310 0.772556 0.670805 0.184645
H19   H     H_    0.707310 0.773926 0.837422 0.190522
O17   O     O_3   0.408275 0.325459 0.860804 -0.577832
C24   C     C_3   0.274298 0.360052 0.884686 -0.213061
H20   H     H_    0.242021 0.460478 0.856964 0.192136
H21   H     H_    0.255038 0.342382 0.985567 0.138680
H22   H     H_    0.212428 0.300537 0.825743 0.147892

loop_
_geom_bond_atom_site_label_1
_geom_bond_atom_site_label_2
_ccdc_geom_bond_type
C19   O15   S    
C19   C20   A    
C1    O1    A    
C9    C14   S    
C24   H22   S    
N1    Zn2   S    
N1    O13   S    
N2    Zn1   S    
C6    C20   A    
C9    C10   D    
C21   H8    S    
C15   O7    A    
C17   H2    S    
N2    O12   S    
O3    Zn1   S    
C7    O10   S    
C12   O3    A    
C24   H20   S    
C14   O6    A    
C1    O2    A    
C17   C18   A    
O16   C23   S    
C9    H5    S    
C7    C8    D    
O11   C22   S    
C13   H1    S    
C11   C13   S    
C22   H12   S    
C5    C6    A    
C5    O16   S    
C4    C5    A    
O5    Zn1   S    
C15   O8    A    
O10   C21   S    
C8    H4    S    
C4    O9    S    
O12   H13   S    
O7    Zn1   S    
C12   O4    A    
O9    H6    S    
C21   H9    S    
C16   O14   S    
C23   H18   S    
C11   O11   S    
O17   C24   S    
C2    C20   A    
C18   H3    S    
C22   H11   S    
O4    Zn2   S    
C23   H17   S    
C2    C16   A    
O15   H16   S    
O1    Zn1   S    
C8    C10   S    
C18   C19   A    
C21   H7    S    
O2    Zn2   S    
O14   H15   S    
C22   H10   S    
C13   N2    D    
C23   H19   S    
C2    C3    A    
C3    C12   S    
C11   N1    D    
O8    Zn2   S    
C6    C15   S    
C1    C7    S    
C14   O5    A    
O6    Zn2   S    
C3    C4    A    
C10   O17   S    
O13   H14   S    
C16   C17   A    
C24   H21   S    
