data_mof_unit_pretest_20.cif
_audit_creation_date              2012-12-10T20:44:02-0500
_audit_creation_method            fapswitch 2.2
_symmetry_space_group_name_H-M    P1
_symmetry_Int_Tables_number       1
_space_group_crystal_system       triclinic
_cell_length_a                    17.085772
_cell_length_b                    10.767146
_cell_length_c                    9.926268
_cell_angle_alpha                 90.318141
_cell_angle_beta                  91.173164
_cell_angle_gamma                 93.673176
_cell_volume                      1821.90950702

loop_
_atom_site_label
_atom_site_type_symbol
_atom_type_description
_atom_site_fract_x
_atom_site_fract_y
_atom_site_fract_z
_atom_type_partial_charge
C1    C     C_R   0.505504 0.261091 0.499574 0.964106
C2    C     C_R   0.887889 0.605577 0.551362 -0.117514
C3    C     C_1   0.970674 0.635650 0.557453 0.218569
C4    C     C_1   0.040694 0.648848 0.555124 0.113299
C5    C     C_R   0.169982 0.622483 0.659758 0.451871
C6    C     C_R   0.242826 0.574462 0.641785 -0.208383
C7    C     C_R   0.273293 0.558555 0.511973 -0.117686
C8    C     C_R   0.231252 0.603471 0.402002 -0.070949
C9    C     C_R   0.155630 0.641694 0.417655 -0.194916
C10   C     C_R   0.123741 0.646573 0.545850 -0.044769
C11   C     C_R   0.483869 0.065023 0.611635 0.052892
C12   C     C_R   0.353246 0.512890 0.500783 0.924023
C13   C     C_R   0.511885 0.129292 0.498943 -0.194860
C14   C     C_R   0.536796 0.063393 0.385106 0.349786
C15   C     C_R   0.526685 0.934902 0.384847 -0.268168
C16   C     C_R   0.499071 0.871744 0.498781 -0.200838
C17   C     C_R   0.475886 0.936961 0.611071 0.051972
C18   C     C_3   0.506582 0.929014 0.752607 0.295424
C19   C     C_3   0.520069 0.068650 0.750839 -0.416714
C20   C     C_R   0.462029 0.404846 0.065917 0.162441
C21   C     C_R   0.546652 0.582639 0.076699 -0.104122
C22   C     C_R   0.550167 0.580989 0.933655 0.489999
C23   C     C_R   0.499477 0.739662 0.500200 0.914579
C24   C     C_R   0.463769 0.403942 0.925022 0.094392
C25   C     C_3   0.382418 0.352088 0.905150 0.156811
C26   C     C_3   0.378353 0.347526 0.058196 0.129262
C27   C     C_R   0.647370 0.499752 0.501305 1.016201
C28   C     C_R   0.853624 0.514399 0.638091 0.154222
C29   C     C_R   0.777401 0.461822 0.606668 0.371095
C30   C     C_R   0.732434 0.519287 0.506839 -0.224883
C31   C     C_R   0.766305 0.612866 0.425673 -0.338332
C32   C     C_R   0.844935 0.653531 0.444205 0.479418
H1    H     H_    0.545677 0.883597 0.298495 0.226271
H2    H     H_    0.561956 0.882949 0.762658 0.183665
H3    H     H_    0.487117 0.116857 0.827174 0.296901
H4    H     H_    0.583386 0.099841 0.750407 0.204463
H5    H     H_    0.584319 0.647404 0.136131 0.188094
H6    H     H_    0.345828 0.418417 0.851836 0.174127
H7    H     H_    0.373221 0.251324 0.098668 0.134139
H8    H     H_    0.730960 0.656033 0.349339 0.192126
H9    H     H_    0.276109 0.552213 0.730988 0.218416
H10   H     H_    0.255477 0.608990 0.304146 0.252970
H11   H     H_    0.121220 0.664152 0.329155 0.201523
N1    N     N_R   0.499490 0.499140 0.142800 -0.118345
N2    N     N_R   0.499490 0.499180 0.857150 -0.171774
O1    O     O_R   0.500010 0.316790 0.614690 -0.583010
O2    O     O_R   0.500000 0.316760 0.385350 -0.580400
O3    O     O_R   0.389120 0.500020 0.614710 -0.638699
O4    O     O_R   0.389110 0.499990 0.385370 -0.535866
O5    O     O_R   0.500000 0.683240 0.614650 -0.552650
O6    O     O_R   0.499990 0.683210 0.385310 -0.645582
O7    O     O_R   0.610890 0.500010 0.614630 -0.528422
O8    O     O_R   0.610880 0.499980 0.385290 -0.602755
Zn1   Zn    Zn3+2 0.500010 0.500020 0.653130 1.090780
Zn2   Zn    Zn3+2 0.499990 0.499980 0.346870 1.063891
S1    S     S_3+6 0.905331 0.476029 0.788485 0.165860
O9    O     O_2   0.942449 0.594027 0.849381 -0.177876
O10   O     O_2   0.852446 0.415424 0.891395 -0.130392
O11   O     O_3   0.976320 0.380893 0.751252 -0.463929
H12   H     H_    0.956477 0.332816 0.670926 0.359791
S2    S     S_3+6 0.432538 0.872515 0.866923 0.069680
O12   O     O_2   0.364979 0.955326 0.865098 -0.243486
O13   O     O_2   0.403030 0.742842 0.826845 -0.275879
O14   O     O_3   0.472178 0.870110 0.023191 -0.555447
H13   H     H_    0.431320 0.827397 0.078826 0.386031
S3    S     S_3+6 0.634981 0.668427 0.874119 0.067591
O15   O     O_2   0.646853 0.784995 0.958245 -0.280148
O16   O     O_2   0.704045 0.591718 0.900120 -0.224018
O17   O     O_3   0.636707 0.711812 0.712533 -0.584860
H14   H     H_    0.690060 0.750996 0.699613 0.375076
O18   O     O_3   0.377895 0.234000 0.846053 -0.742008
H15   H     H_    0.321150 0.208361 0.838750 0.378543
S4    S     S_3+6 0.302191 0.439327 0.111615 0.011849
O19   O     O_2   0.334030 0.572322 0.124788 -0.305812
O20   O     O_2   0.235312 0.431792 0.010608 -0.248759
O21   O     O_3   0.268556 0.381451 0.257763 -0.561859
H16   H     H_    0.247098 0.295952 0.235735 0.370181
S5    S     S_3+6 0.741271 0.316573 0.675114 0.095271
O22   O     O_2   0.685452 0.249719 0.576348 -0.330842
O23   O     O_2   0.807673 0.234858 0.703690 -0.234976
O24   O     O_3   0.693548 0.341342 0.818273 -0.465721
H17   H     H_    0.681950 0.257564 0.856497 0.393802
O25   O     O_3   0.880658 0.741627 0.360846 -0.701059
H18   H     H_    0.842375 0.764909 0.290397 0.374098
S6    S     S_3+6 0.140219 0.653286 0.825413 0.109527
O26   O     O_2   0.083458 0.754330 0.825196 -0.245094
O27   O     O_2   0.102076 0.536450 0.883188 -0.166499
O28   O     O_3   0.219358 0.699200 0.920977 -0.469031
H19   H     H_    0.199209 0.708335 0.013142 0.399703
S7    S     S_3+6 0.588736 0.131861 0.247812 0.098619
O29   O     O_2   0.637260 0.246661 0.292020 -0.204651
O30   O     O_2   0.642432 0.040803 0.190175 -0.217020
O31   O     O_3   0.524817 0.169088 0.126371 -0.551424
H20   H     H_    0.483933 0.099670 0.123863 0.367072

loop_
_geom_bond_atom_site_label_1
_geom_bond_atom_site_label_2
_ccdc_geom_bond_type
C8    C9    A    
S3    O16   D    
O31   H20   S    
S4    O19   D    
N1    Zn2   S    
C12   O3    A    
C12   O4    A    
C28   S1    S    
C7    C8    A    
S6    O26   D    
S1    O9    D    
O3    Zn1   S    
C11   C19   S    
O5    Zn1   S    
C24   N2    A    
C28   C29   A    
C8    H10   S    
C19   H4    S    
C30   C31   A    
S5    O23   D    
C1    O1    A    
S3    O17   S    
C15   C16   A    
C26   S4    S    
C31   H8    S    
C2    C32   A    
C18   C19   S    
S2    O13   D    
C14   S7    S    
S7    O30   D    
C22   S3    S    
C29   S5    S    
C31   C32   A    
C16   C17   A    
C6    H9    S    
C25   O18   S    
C9    C10   A    
C5    S6    S    
O8    Zn2   S    
S3    O15   D    
O11   H12   S    
C13   C14   A    
C27   C30   S    
S4    O20   D    
O17   H14   S    
C20   N1    A    
O7    Zn1   S    
O24   H17   S    
S6    O27   D    
C7    C12   S    
C9    H11   S    
C20   C24   A    
C24   C25   S    
S5    O22   D    
C1    O2    A    
C23   O5    A    
C25   C26   S    
O4    Zn2   S    
S2    O14   S    
C29   C30   A    
C25   H6    S    
C21   N1    A    
C23   O6    A    
O25   H18   S    
O1    Zn1   S    
C17   C18   S    
O21   H16   S    
C18   H2    S    
N2    Zn1   S    
C16   C23   S    
S4    O21   S    
C1    C13   S    
C4    C10   S    
C3    C4    T    
C27   O7    A    
S7    O31   S    
O2    Zn2   S    
S6    O28   S    
C32   O25   S    
C11   C17   A    
C27   O8    A    
C18   S2    S    
C6    C7    A    
S1    O11   S    
O14   H13   S    
C2    C3    S    
O18   H15   S    
C19   H3    S    
C11   C13   A    
S5    O24   S    
S7    O29   D    
C5    C6    A    
C20   C26   S    
S1    O10   D    
O6    Zn2   S    
S2    O12   D    
C26   H7    S    
C5    C10   A    
C22   N2    A    
C21   H5    S    
O28   H19   S    
C14   C15   A    
C2    C28   A    
C21   C22   A    
C15   H1    S    
