data_mof_unit_pretest_1309.cif
_audit_creation_date              2012-12-11T14:46:06-0500
_audit_creation_method            fapswitch 2.2
_symmetry_space_group_name_H-M    P1
_symmetry_Int_Tables_number       1
_space_group_crystal_system       triclinic
_cell_length_a                    10.919619
_cell_length_b                    10.930176
_cell_length_c                    18.824528
_cell_angle_alpha                 90.309039
_cell_angle_beta                  89.67356
_cell_angle_gamma                 119.94264
_cell_volume                      1946.84407449

loop_
_atom_site_label
_atom_site_type_symbol
_atom_type_description
_atom_site_fract_x
_atom_site_fract_y
_atom_site_fract_z
_atom_type_partial_charge
C1    C     C_R   0.868039 0.636396 0.604852 0.537295
C2    C     C_R   0.260146 0.547618 0.797630 -0.150491
C3    C     C_R   0.239931 0.531387 0.725202 -0.146754
C4    C     C_R   0.291505 0.650415 0.681241 0.017177
C5    C     C_R   0.863406 0.179711 0.826564 -0.045923
C6    C     C_R   0.063013 0.133607 0.813382 -0.082013
C7    C     C_R   0.142205 0.092905 0.771363 -0.124276
C8    C     C_R   0.115924 0.070383 0.698937 -0.117590
C9    C     C_R   0.014426 0.094297 0.667635 -0.090195
C10   C     C_R   0.935543 0.139376 0.708814 -0.005614
C11   C     C_R   0.953548 0.150329 0.783723 0.004902
C12   C     C_R   0.262144 0.627397 0.606075 0.536217
C13   C     C_R   0.742906 0.191586 0.721621 0.020621
C14   C     C_R   0.777275 0.224547 0.793494 0.010915
C15   C     C_R   0.616563 0.184375 0.697248 -0.080276
C16   C     C_R   0.545962 0.236557 0.738299 -0.135221
C17   C     C_R   0.597190 0.293372 0.804995 -0.111831
C18   C     C_R   0.712207 0.287689 0.832666 -0.070986
C19   C     C_R   0.836068 0.168935 0.677009 -0.042173
C20   C     C_R   0.712398 0.625058 0.704932 -0.004687
C21   C     C_R   0.694936 0.628509 0.778230 -0.112248
C22   C     C_R   0.805783 0.653889 0.824624 0.017285
C23   C     C_R   0.859598 0.225328 0.603298 0.526448
C24   C     C_R   0.933126 0.672031 0.798503 -0.139190
C25   C     C_R   0.950396 0.666181 0.726123 -0.123789
C26   C     C_R   0.841927 0.645148 0.679307 0.062987
C27   C     C_R   0.270300 0.539500 0.277341 -0.116075
C28   C     C_R   0.279744 0.551650 0.204791 -0.115349
C29   C     C_R   0.329844 0.683829 0.173182 0.028034
C30   C     C_R   0.351731 0.800028 0.214714 -0.133749
C31   C     C_R   0.336390 0.786262 0.288280 -0.135038
C32   C     C_R   0.300891 0.656752 0.319917 0.033058
C33   C     C_R   0.716061 0.129449 0.291422 -0.129401
C34   C     C_R   0.864952 0.638673 0.397808 0.549781
C35   C     C_R   0.709890 0.119349 0.218902 -0.097077
C36   C     C_R   0.826630 0.136420 0.179294 0.042807
C37   C     C_R   0.949711 0.160519 0.214101 -0.155326
C38   C     C_R   0.957605 0.175278 0.287748 -0.145794
C39   C     C_R   0.842279 0.165670 0.326118 0.027819
C40   C     C_R   0.894201 0.786490 0.295284 -0.145698
C41   C     C_R   0.887335 0.796061 0.222848 -0.153348
C42   C     C_R   0.804741 0.674887 0.181392 0.048143
C43   C     C_R   0.721896 0.543401 0.214390 0.140485
C44   C     C_R   0.730877 0.534187 0.287620 -0.098323
C45   C     C_R   0.266803 0.631270 0.394880 0.547509
C46   C     C_R   0.821377 0.654879 0.327667 -0.002216
C47   C     C_R   0.812378 0.109008 0.896583 0.533252
C48   C     C_R   0.393716 0.700772 0.897105 0.537626
C49   C     C_R   0.796337 0.690474 0.897334 0.541619
C50   C     C_R   0.804038 0.101362 0.104318 0.550219
C51   C     C_R   0.392428 0.703697 0.102900 0.541927
C52   C     C_R   0.795489 0.697559 0.106217 0.577907
C53   C     C_R   0.861483 0.226440 0.396601 0.545736
C54   C     C_R   0.352851 0.785676 0.710805 -0.158481
C55   C     C_R   0.374273 0.802296 0.783700 -0.140934
C56   C     C_R   0.333120 0.683163 0.826873 0.017799
Cr1   Cr    Cr6+3 0.791660 0.390250 0.499930 1.008518
Cr2   Cr    Cr6+3 0.098520 0.708290 0.500540 1.005980
Cr3   Cr    Cr6+3 0.109770 0.401430 0.499480 1.005137
Cr4   Cr    Cr6+3 0.874790 0.925890 0.000070 1.016770
Cr5   Cr    Cr6+3 0.574120 0.948670 0.999300 1.036156
Cr6   Cr    Cr6+3 0.551420 0.625320 0.000920 1.051058
H1    H     H_    0.387490 0.877620 0.677446 0.111662
H2    H     H_    0.452216 0.234026 0.717977 0.104726
H3    H     H_    0.568420 0.134871 0.647350 0.130554
H4    H     H_    0.544443 0.336695 0.836437 0.121055
H5    H     H_    0.598354 0.620603 0.798882 0.135039
H6    H     H_    0.019912 0.694469 0.833852 0.125555
H7    H     H_    0.049524 0.679616 0.706303 0.140785
H8    H     H_    0.236971 0.436759 0.299875 0.137726
H9    H     H_    0.258339 0.459081 0.173926 0.146569
H10   H     H_    0.386684 0.901979 0.190817 0.131941
H11   H     H_    0.431060 0.908282 0.805388 0.149291
H12   H     H_    0.353971 0.876230 0.320282 0.120829
H13   H     H_    0.624468 0.118852 0.319635 0.133593
H14   H     H_    0.611626 0.096368 0.194106 0.167180
H15   H     H_    0.038928 0.168699 0.184592 0.121932
H16   H     H_    0.055166 0.200218 0.314146 0.121579
H17   H     H_    0.963267 0.880929 0.325299 0.138187
H18   H     H_    0.947717 0.899742 0.199330 0.148936
H19   H     H_    0.674198 0.431116 0.312265 0.160629
H20   H     H_    0.226191 0.454636 0.830185 0.130423
H21   H     H_    0.185610 0.425451 0.703410 0.153079
H22   H     H_    0.224086 0.078439 0.795189 0.110315
H23   H     H_    0.175514 0.035784 0.666751 0.115866
H24   H     H_    0.091984 0.156411 0.868664 0.132353
H25   H     H_    0.995461 0.073411 0.611340 0.123805
H26   H     H_    0.746696 0.327118 0.886025 0.129835
O1    O     O_R   0.766500 0.250040 0.579790 -0.525316
O2    O     O_R   0.218690 0.701900 0.425960 -0.499902
O3    O     O_R   0.249490 0.516440 0.419420 -0.525143
O4    O     O_R   0.982880 0.281910 0.424890 -0.508921
O5    O     O_3   0.999980 0.499990 0.499980 -0.240838
O6    O     O_R   0.895110 0.806860 0.920430 -0.509326
O7    O     O_R   0.872260 0.046970 0.925000 -0.505224
O8    O     O_R   0.691430 0.085060 0.918550 -0.511461
O9    O     O_R   0.451490 0.822460 0.925250 -0.503753
O10   O     O_R   0.413330 0.603360 0.920440 -0.530090
O11   O     O_R   0.676110 0.626250 0.926750 -0.509354
O12   O     O_R   0.798570 0.516780 0.574780 -0.501275
O13   O     O_R   0.895350 0.809870 0.080950 -0.535248
O14   O     O_R   0.872490 0.049760 0.073800 -0.515428
O15   O     O_R   0.691680 0.088070 0.079070 -0.502006
O16   O     O_R   0.451720 0.825250 0.074050 -0.507795
O17   O     O_R   0.413580 0.606370 0.080960 -0.506498
O18   O     O_R   0.676340 0.629040 0.075550 -0.450085
O19   O     O_3   0.666780 0.833290 0.000090 -0.255916
O20   O     O_R   0.984000 0.732950 0.581090 -0.533170
O21   O     O_R   0.218600 0.700890 0.574760 -0.509416
O22   O     O_R   0.249390 0.515350 0.579940 -0.525312
O23   O     O_R   0.982790 0.280900 0.573700 -0.505859
O24   O     O_R   0.766600 0.251130 0.419260 -0.526379
O25   O     O_R   0.798660 0.517790 0.425980 -0.507856
O26   O     O_R   0.984100 0.734040 0.420570 -0.518711
C57   C     C_3   0.598450 0.612824 0.655520 -0.275538
C58   C     C_3   0.637357 0.757226 0.625106 -0.426031
H27   H     H_    0.645199 0.830009 0.668547 0.158842
H28   H     H_    0.739794 0.804165 0.596275 0.149265
H29   H     H_    0.555145 0.746057 0.587124 0.148000
H30   H     H_    0.580990 0.537418 0.611765 0.162415
H31   H     H_    0.496715 0.569774 0.684438 0.154867
Br1   Br    Br    0.603722 0.372790 0.162544 -0.556106

loop_
_geom_bond_atom_site_label_1
_geom_bond_atom_site_label_2
_ccdc_geom_bond_type
C55   C56   A    
C57   H31   S    
Cr2   O21   S    
C41   C42   A    
C14   C18   A    
C35   C36   A    
C41   H18   S    
C12   O22   A    
Cr5   O8    S    
C7    C8    A    
Cr6   O17   S    
C39   C53   S    
C34   O25   A    
C40   C46   A    
C48   O9    A    
C5    C47   S    
C17   H4    S    
C33   C39   A    
Cr1   O1    S    
C28   C29   A    
Cr5   O15   S    
Cr2   O5    S    
C5    C11   A    
C30   C31   A    
Cr1   O24   S    
C54   H1    S    
C15   C16   A    
C15   H3    S    
Cr3   O22   S    
C58   H27   S    
C8    H23   S    
C32   C45   S    
Cr6   O10   S    
C33   H13   S    
C8    C9    A    
Cr3   O23   S    
C47   O8    A    
C23   O1    A    
C34   C46   S    
C49   O6    A    
C4    C12   S    
C29   C30   A    
C9    C10   A    
C27   H8    S    
C7    H22   S    
C52   O18   A    
C50   O15   A    
Cr1   O5    S    
C21   C22   A    
C21   H5    S    
Cr4   O14   S    
C1    O12   A    
C12   O21   A    
C25   C26   A    
C44   C46   A    
C52   O13   A    
C35   H14   S    
C13   C19   A    
Cr5   O16   S    
C24   C25   A    
C44   H19   S    
C6    C11   A    
C16   C17   A    
C31   H12   S    
Cr1   O25   S    
Cr6   O19   S    
C38   H16   S    
C51   O16   A    
Cr1   O12   S    
C37   H15   S    
C18   H26   S    
C19   C23   S    
C43   C44   A    
C37   C38   A    
C16   H2    S    
C49   O11   A    
C31   C32   A    
C10   C19   A    
C51   O17   A    
C53   O4    A    
C17   C18   A    
C40   H17   S    
Cr3   O3    S    
C45   O2    A    
Cr2   O2    S    
C43   Br1   S    
C5    C14   A    
Cr4   O19   S    
C22   C49   S    
C53   O24   A    
C40   C41   A    
C50   O14   A    
C13   C15   A    
C3    H21   S    
C1    C26   S    
C22   C24   A    
C2    H20   S    
C28   H9    S    
C25   H7    S    
C42   C43   A    
Cr4   O13   S    
C36   C50   S    
C29   C51   S    
C48   C56   S    
C54   C55   A    
C36   C37   A    
C4    C54   A    
C27   C32   A    
Cr5   O9    S    
C20   C57   S    
C30   H10   S    
C6    C7    A    
Cr6   O18   S    
C34   O26   A    
C48   O10   A    
C6    H24   S    
C58   H29   S    
C2    C3    A    
C23   O23   A    
C2    C56   A    
C9    H25   S    
C57   C58   S    
C38   C39   A    
C20   C26   A    
C33   C35   A    
C58   H28   S    
Cr2   O20   S    
Cr3   O4    S    
C45   O3    A    
C10   C11   A    
C24   H6    S    
C1    O20   A    
Cr6   O11   S    
C55   H11   S    
Cr4   O7    S    
C20   C21   A    
C57   H30   S    
Cr5   O19   S    
C27   C28   A    
Cr2   O26   S    
C47   O7    A    
Cr3   O5    S    
C13   C14   A    
C3    C4    A    
C42   C52   S    
Cr4   O6    S    
