data_mof_unit_pretest_600.cif
_audit_creation_date              2012-12-11T17:24:59-0500
_audit_creation_method            fapswitch 2.2
_symmetry_space_group_name_H-M    P1
_symmetry_Int_Tables_number       1
_space_group_crystal_system       triclinic
_cell_length_a                    6.951072
_cell_length_b                    20.515633
_cell_length_c                    24.550941
_cell_angle_alpha                 89.970788
_cell_angle_beta                  90.585025
_cell_angle_gamma                 89.554595
_cell_volume                      3500.81381014

loop_
_atom_site_label
_atom_site_type_symbol
_atom_type_description
_atom_site_fract_x
_atom_site_fract_y
_atom_site_fract_z
_atom_type_partial_charge
O1    O     O_R   0.507280 0.423750 0.460310 -0.540187
O2    O     O_R   0.171030 0.555650 0.437630 -0.539645
O3    O     O_R   0.004080 0.576250 0.539690 -0.535891
C1    C     C_R   0.339004 0.575593 0.421720 0.715692
O4    O     O_R   0.177330 0.422980 0.453960 -0.541705
O5    O     O_R   0.010420 0.442640 0.556140 -0.534931
C2    C     C_R   0.346244 0.399248 0.443178 0.691805
O6    O     O_R   0.500930 0.557360 0.443860 -0.537689
O7    O     O_3   0.340310 0.506600 0.533500 -0.355341
V1    V     V_3+5 0.064140 0.498780 0.493780 1.443200
O8    O     O_R   0.680890 0.444350 0.562370 -0.530099
C3    C     C_R   0.850686 0.424461 0.578181 0.747724
O9    O     O_R   0.674590 0.577020 0.546040 -0.525996
C4    C     C_R   0.843555 0.600525 0.557151 0.742399
V2    V     V_3+5 0.564550 0.501220 0.506220 1.470561
O10   O     O_3   0.838250 0.493400 0.466500 -0.375487
C5    C     C_R   0.976608 0.839267 0.909548 -0.080526
C6    C     C_R   0.855953 0.660920 0.589624 -0.067069
C7    C     C_R   0.071291 0.725894 0.902259 -0.133988
C8    C     C_R   0.060665 0.783248 0.932107 -0.172726
C9    C     C_R   0.906580 0.838194 0.855092 0.062511
C10   C     C_R   0.944256 0.782298 0.821540 0.068953
C11   C     C_R   0.014417 0.724834 0.847424 0.101639
C12   C     C_R   0.922163 0.781109 0.763366 0.029432
C13   C     C_R   0.921914 0.720459 0.734713 0.061038
C14   C     C_R   0.987056 0.664708 0.762913 -0.114023
C15   C     C_R   0.034887 0.667083 0.817922 -0.159163
C16   C     C_R   0.933905 0.838465 0.732460 -0.149230
C17   C     C_R   0.929530 0.837643 0.675792 0.153784
C18   C     C_R   0.906931 0.778417 0.647539 0.059014
C19   C     C_R   0.888260 0.719035 0.677036 0.028491
C20   C     C_R   0.909275 0.777170 0.590314 -0.110311
C21   C     C_R   0.892637 0.718847 0.562079 -0.206374
C22   C     C_R   0.842145 0.661033 0.647087 0.075057
H1    H     H_    0.091826 0.623459 0.837342 0.146744
H2    H     H_    0.903226 0.719186 0.518052 0.116431
H3    H     H_    0.130779 0.682657 0.921646 0.142196
H4    H     H_    0.114672 0.783591 0.973673 0.141590
H5    H     H_    0.021224 0.620146 0.741694 0.166416
H6    H     H_    0.967610 0.884227 0.751698 0.182139
H7    H     H_    0.929680 0.820909 0.566608 0.160850
H8    H     H_    0.662681 0.167367 0.764287 0.156277
C23   C     C_R   0.754475 0.248165 0.715339 -0.125907
H9    H     H_    0.629597 0.245709 0.688678 0.132289
C24   C     C_R   0.895545 0.295503 0.706734 0.090558
C25   C     C_R   0.055922 0.297556 0.741900 -0.155318
H10   H     H_    0.166173 0.333766 0.735680 0.152060
C26   C     C_R   0.075450 0.253044 0.785274 0.171974
C27   C     C_R   0.933497 0.205453 0.793817 0.079931
C28   C     C_R   0.773522 0.203470 0.758445 -0.131067
C29   C     C_1   0.877083 0.341410 0.661652 -0.016280
C30   C     C_1   0.948914 0.159024 0.838663 0.036513
C31   C     C_1   0.960999 0.120658 0.876332 -0.122389
C32   C     C_1   0.863539 0.379473 0.623790 -0.158032
H11   H     H_    0.668510 0.736553 0.319102 0.125313
C33   C     C_R   0.577349 0.786225 0.245862 -0.159689
H12   H     H_    0.708392 0.814291 0.243687 0.149655
C34   C     C_R   0.432752 0.794291 0.205961 0.089248
C35   C     C_R   0.263361 0.757113 0.210124 0.165820
C36   C     C_R   0.240936 0.712948 0.253555 -0.163637
H13   H     H_    0.110070 0.684846 0.256215 0.146972
C37   C     C_R   0.386073 0.704937 0.293267 0.095628
C38   C     C_R   0.554464 0.741911 0.288992 -0.145577
C39   C     C_1   0.458821 0.840673 0.161390 0.027910
C40   C     C_1   0.363315 0.658918 0.338200 -0.031103
C41   C     C_1   0.348598 0.620767 0.376001 -0.183728
C42   C     C_1   0.475259 0.879064 0.123835 -0.141259
C43   C     C_R   0.475102 0.162315 0.088019 -0.083599
C44   C     C_R   0.355073 0.339924 0.409274 -0.082563
C45   C     C_R   0.563234 0.276105 0.093450 0.173406
C46   C     C_R   0.543198 0.218806 0.063650 -0.166424
C47   C     C_R   0.424494 0.163141 0.143208 -0.215425
C48   C     C_R   0.448836 0.220176 0.175649 0.065918
C49   C     C_R   0.519381 0.277122 0.149610 0.077653
C50   C     C_R   0.411279 0.222060 0.233203 0.059822
C51   C     C_R   0.433982 0.281719 0.263126 0.069114
C52   C     C_R   0.515366 0.334990 0.235793 -0.145125
C53   C     C_R   0.553157 0.333160 0.180482 -0.171083
C54   C     C_R   0.361294 0.165519 0.262356 -0.181968
C55   C     C_R   0.339456 0.166591 0.318428 -0.184322
C56   C     C_R   0.353746 0.224613 0.347658 0.088848
C57   C     C_R   0.389287 0.284345 0.320369 0.086605
C58   C     C_R   0.330112 0.222849 0.404265 -0.156253
C59   C     C_R   0.335690 0.279720 0.434817 -0.202439
C60   C     C_R   0.374218 0.343253 0.351840 0.128566
H14   H     H_    0.615208 0.376184 0.162610 0.171898
H15   H     H_    0.318373 0.276962 0.478569 0.122151
H16   H     H_    0.308480 0.121263 0.339164 0.130263
H17   H     H_    0.583674 0.218036 0.021135 0.147446
H18   H     H_    0.371702 0.118080 0.159618 0.102431
H19   H     H_    0.564164 0.377860 0.256788 0.174770
H20   H     H_    0.345925 0.118524 0.243450 0.123639
H21   H     H_    0.307136 0.177034 0.425098 0.132093
O11   O     O_R   0.323320 0.942780 0.056240 -0.535881
O12   O     O_R   0.647300 0.077050 0.046060 -0.542816
O13   O     O_R   0.813840 0.057330 0.943840 -0.530466
C61   C     C_R   0.478792 0.101095 0.056630 0.700971
O14   O     O_R   0.653250 0.944380 0.062400 -0.535470
O15   O     O_R   0.819830 0.923720 0.960300 -0.524106
C62   C     C_R   0.485242 0.924426 0.078284 0.714905
O16   O     O_R   0.317330 0.076390 0.039790 -0.538378
O17   O     O_3   0.483830 0.993470 0.966560 -0.353393
V3    V     V_3+5 0.760140 0.001210 0.006210 1.489994
O18   O     O_R   0.149290 0.922840 0.953850 -0.536561
C63   C     C_R   0.980651 0.899429 0.942643 0.744524
O19   O     O_R   0.143340 0.055500 0.937510 -0.533007
C64   C     C_R   0.973561 0.075461 0.921771 0.740901
V4    V     V_3+5 0.259690 0.998600 0.993650 1.499901
O20   O     O_3   0.986130 0.006520 0.033440 -0.375017
I1    I     I_    0.321720 0.260062 0.836619 -0.378869
I2    I     I_    0.036832 0.765609 0.151907 -0.439637
I3    I     I_    0.703454 0.578667 0.683366 -0.409032
N1    N     N_3   0.356237 0.405664 0.325865 -0.689002
H22   H     H_    0.463970 0.436100 0.341104 0.216320
H23   H     H_    0.222766 0.425987 0.335763 0.234807
I4    I     I_    0.668579 0.357851 0.049774 -0.321673
I5    I     I_    0.962296 0.929560 0.636747 -0.365497
I6    I     I_    0.707231 0.913942 0.831637 -0.382385

loop_
_geom_bond_atom_site_label_1
_geom_bond_atom_site_label_2
_ccdc_geom_bond_type
C13   C19   A    
C26   I1    S    
C50   C51   A    
C22   I3    S    
C48   C49   A    
C4    C6    S    
O15   V3    S    
C7    C8    A    
C59   H15   S    
C1    O6    A    
C21   H2    S    
C56   C57   A    
C52   C53   A    
V4    O20   S    
O11   V4    S    
C14   C15   A    
C9    I6    S    
C16   C17   A    
O5    C3    A    
C18   C19   A    
C14   H5    S    
O19   C64   A    
C16   H6    S    
O14   V3    S    
C58   H21   S    
C5    C8    A    
C8    H4    S    
C33   H12   S    
C36   C37   A    
C43   C61   S    
C7    H3    S    
O8    V2    S    
H11   C38   S    
C45   C49   A    
C35   I2    S    
C20   H7    S    
O17   V4    S    
C45   C46   A    
O1    V2    S    
C11   C15   A    
O7    V1    S    
C53   H14   S    
O16   V4    S    
C35   C36   A    
O9    C4    A    
C48   C50   A    
O18   C63   A    
C56   C58   A    
O12   V3    S    
C6    C22   A    
C34   C39   S    
O15   C63   A    
C25   C26   A    
C19   C22   A    
C39   C42   T    
C12   C13   A    
C51   C57   A    
O4    C2    A    
C7    C11   A    
C55   C56   A    
C15   H1    S    
C13   C14   A    
C24   C25   A    
C17   I5    S    
C5    C9    A    
C36   H13   S    
O2    C1    A    
C23   H9    S    
C2    C44   S    
C17   C18   A    
C5    C63   S    
C47   H18   S    
C31   C64   S    
C58   C59   A    
C46   H17   S    
O11   C62   A    
C43   C47   A    
C27   C30   S    
C37   C38   A    
C33   C38   A    
C51   C52   A    
C23   C24   A    
C54   H20   S    
O3    C4    A    
C42   C62   S    
H8    C28   S    
C26   C27   A    
O13   C64   A    
C27   C28   A    
O6    V2    S    
O14   C62   A    
O9    V2    S    
C10   C12   A    
O2    V1    S    
O18   V4    S    
C44   C60   A    
C30   C31   T    
N1    H22   S    
C25   H10   S    
C52   H19   S    
C37   C40   S    
O1    C2    A    
C12   C16   A    
C47   C48   A    
O5    V1    S    
O8    C3    A    
O12   C61   A    
C23   C28   A    
C57   C60   A    
V3    O20   S    
C29   C32   T    
C45   I4    S    
C20   C21   A    
C60   N1    S    
C34   C35   A    
O4    V1    S    
C55   H16   S    
O3    V1    S    
V1    O10   S    
C18   C20   A    
O19   V4    S    
C43   C46   A    
C33   C34   A    
O7    V2    S    
O17   V3    S    
C6    C21   A    
C3    C32   S    
C54   C55   A    
C1    C41   S    
C40   C41   T    
C49   C53   A    
O13   V3    S    
C44   C59   A    
C24   C29   S    
C10   C11   A    
C9    C10   A    
C50   C54   A    
C61   O16   A    
V2    O10   S    
N1    H23   S    
