data_mof_unit_pretest_925.cif
_audit_creation_date              2012-12-10T17:24:14-0500
_audit_creation_method            fapswitch 2.2
_symmetry_space_group_name_H-M    P1
_symmetry_Int_Tables_number       1
_space_group_crystal_system       triclinic
_cell_length_a                    19.359328
_cell_length_b                    10.861512
_cell_length_c                    9.562127
_cell_angle_alpha                 90.822865
_cell_angle_beta                  90.049949
_cell_angle_gamma                 92.894425
_cell_volume                      2007.86880606

loop_
_atom_site_label
_atom_site_type_symbol
_atom_type_description
_atom_site_fract_x
_atom_site_fract_y
_atom_site_fract_z
_atom_type_partial_charge
C1    C     C_R   0.506363 0.263423 0.500056 0.807365
C2    C     C_R   0.291905 0.506941 0.499372 -0.098298
C3    C     C_R   0.930043 0.499441 0.495975 0.441775
C4    C     C_R   0.070302 0.503949 0.500571 0.425298
C5    C     C_R   0.817477 0.490056 0.621324 -0.235950
C6    C     C_R   0.745607 0.491714 0.623767 -0.207781
C7    C     C_R   0.708409 0.499993 0.498780 -0.080561
C8    C     C_R   0.744206 0.507018 0.371481 -0.289032
C9    C     C_R   0.816572 0.509034 0.368197 0.464935
C10   C     C_R   0.853762 0.498745 0.494366 -0.025139
C11   C     C_R   0.548468 0.128661 0.754951 -0.263935
C12   C     C_R   0.367659 0.502765 0.499813 0.839460
C13   C     C_R   0.539743 0.074201 0.886256 0.493290
C14   C     C_R   0.506559 0.957882 0.892862 -0.186612
C15   C     C_R   0.489485 0.891534 0.770672 -0.239535
C16   C     C_R   0.503695 0.941626 0.636776 0.086902
C17   C     C_R   0.523535 0.067978 0.631022 0.045697
C18   C     C_R   0.514638 0.130210 0.502830 -0.098709
C19   C     C_R   0.503811 0.062549 0.378726 -0.212396
C20   C     C_R   0.498258 0.935404 0.380891 -0.195541
C21   C     C_R   0.497287 0.873052 0.508266 -0.088929
C22   C     C_R   0.593169 0.662946 0.146960 -0.156860
C23   C     C_R   0.497487 0.737982 0.502067 0.792755
C24   C     C_R   0.638996 0.741592 0.075697 -0.240603
C25   C     C_R   0.638465 0.742291 0.931608 -0.209815
C26   C     C_R   0.592635 0.663350 0.858025 -0.144533
C27   C     C_R   0.545597 0.580351 0.926367 0.185869
C28   C     C_R   0.545688 0.580256 0.076179 0.206127
C29   C     C_R   0.456873 0.422988 0.072692 0.010001
C30   C     C_R   0.456913 0.422975 0.924538 -0.026987
C31   C     C_R   0.632501 0.500102 0.499909 0.777320
C32   C     C_R   0.254074 0.449662 0.607715 -0.216033
C33   C     C_R   0.182084 0.448993 0.608843 -0.138341
C34   C     C_R   0.146502 0.506020 0.501680 0.001526
C35   C     C_R   0.184301 0.565380 0.394690 -0.167189
C36   C     C_R   0.256362 0.566914 0.392918 0.255063
Cu1   Cu    Cu3+1 0.500000 0.499990 0.640660 0.928074
Cu2   Cu    Cu3+1 0.500000 0.500010 0.359340 0.961139
H1    H     H_    0.280224 0.403509 0.690732 0.162732
H2    H     H_    0.573798 0.219250 0.751704 0.164896
H3    H     H_    0.494012 0.918242 0.993575 0.163598
H4    H     H_    0.460989 0.804910 0.785006 0.202237
H5    H     H_    0.492804 0.886020 0.281917 0.180339
H6    H     H_    0.421605 0.359939 0.127159 0.145442
H7    H     H_    0.597527 0.671535 0.257248 0.197095
H8    H     H_    0.675073 0.802651 0.133220 0.150394
H9    H     H_    0.673632 0.804805 0.875956 0.151156
H10   H     H_    0.596152 0.672320 0.747944 0.201224
H11   H     H_    0.154383 0.402812 0.693031 0.167177
H12   H     H_    0.421679 0.359867 0.867877 0.142390
H13   H     H_    0.157980 0.611931 0.312304 0.184034
H14   H     H_    0.844811 0.483207 0.719420 0.173638
H15   H     H_    0.719255 0.485813 0.723535 0.163946
H16   H     H_    0.716247 0.510605 0.273594 0.161833
H17   H     H_    0.498788 0.107913 0.279380 0.205295
N1    N     N_R   0.036174 0.549783 0.390462 -0.238008
N2    N     N_R   0.967502 0.547666 0.388333 -0.195609
N3    N     N_R   0.964139 0.454081 0.606616 -0.241765
N4    N     N_R   0.032927 0.456024 0.608742 -0.233745
N5    N     N_R   0.500660 0.501210 0.147910 -0.202438
N6    N     N_R   0.500680 0.501290 0.852040 -0.211530
O1    O     O_R   0.499990 0.319640 0.618810 -0.587428
O2    O     O_R   0.500000 0.319660 0.381240 -0.579763
O3    O     O_R   0.400140 0.499970 0.618820 -0.581849
O4    O     O_R   0.400150 0.500000 0.381250 -0.534957
O5    O     O_R   0.500000 0.680340 0.618760 -0.615107
O6    O     O_R   0.500010 0.680360 0.381190 -0.584268
O7    O     O_R   0.599850 0.500000 0.618750 -0.608847
O8    O     O_R   0.599860 0.500030 0.381180 -0.607787
O9    O     O_3   0.549786 0.141785 0.009425 -0.632530
C37   C     C_3   0.619881 0.182242 0.027988 0.049714
H18   H     H_    0.620770 0.263616 0.099921 0.182046
H19   H     H_    0.645924 0.213838 0.930339 0.118633
C38   C     C_3   0.660595 0.081424 0.095323 -0.387206
H20   H     H_    0.632711 0.046285 0.189371 0.234743
H21   H     H_    0.664982 0.004226 0.019173 0.211904
C39   C     C_3   0.733096 0.129654 0.137822 -0.879724
H22   H     H_    0.762126 0.164226 0.044978 0.261033
H23   H     H_    0.761472 0.053868 0.184360 0.251397
H24   H     H_    0.730181 0.205428 0.216597 0.265605
Br1   Br    Br    0.302381 0.659219 0.246839 -0.513860
O10   O     O_3   0.850371 0.508183 0.240666 -0.601441
C40   C     C_3   0.844684 0.622175 0.172229 0.073802
H25   H     H_    0.897539 0.666267 0.163541 0.188861
H26   H     H_    0.812388 0.689706 0.228160 0.108503
C41   C     C_3   0.815338 0.598419 0.025265 -0.341007
H27   H     H_    0.844865 0.526449 0.971701 0.235195
H28   H     H_    0.760401 0.564239 0.032709 0.214077
C42   C     C_3   0.819851 0.715429 0.938528 -0.912908
H29   H     H_    0.793373 0.790782 0.992871 0.253356
H30   H     H_    0.794621 0.697183 0.835511 0.259373
H31   H     H_    0.874808 0.745401 0.920783 0.266294

loop_
_geom_bond_atom_site_label_1
_geom_bond_atom_site_label_2
_ccdc_geom_bond_type
C16   C21   A    
C35   C36   A    
C2    C12   S    
C1    O1    A    
Cu1   O3    S    
Cu1   O1    S    
C7    C8    A    
C39   H22   S    
C1    C18   S    
Cu1   Cu2   S    
C38   H21   S    
C23   O5    A    
C18   C19   A    
C5    C6    A    
C12   O3    A    
C41   H28   S    
C13   O9    S    
C33   H11   S    
C15   C16   A    
Cu1   O7    S    
C2    C36   A    
N1    N2    A    
C2    C32   A    
C34   C35   A    
C32   H1    S    
C23   O6    A    
C27   N6    A    
C19   C20   A    
C8    C9    A    
C38   C39   S    
Cu2   O4    S    
C5    H14   S    
O9    C37   S    
C42   H30   S    
C9    C10   A    
C25   H9    S    
C26   H10   S    
C9    O10   S    
C28   N5    A    
C30   H12   S    
Cu2   O8    S    
C22   C28   A    
C13   C14   A    
C4    N1    A    
C1    O2    A    
C33   C34   A    
C39   H23   S    
C31   O7    A    
C4    C34   S    
C7    C31   S    
C38   H20   S    
C24   C25   A    
C8    H16   S    
C37   H19   S    
C41   H27   S    
C16   C17   A    
N3    N4    A    
C29   C30   A    
C40   H25   S    
C29   N5    A    
C31   O8    A    
C36   Br1   S    
Cu1   O5    S    
C40   C41   S    
C17   C18   A    
C26   C27   A    
Cu2   O6    S    
C42   H31   S    
C14   H3    S    
Cu2   N5    S    
C3    N2    A    
C40   H26   S    
C21   C23   S    
C29   H6    S    
C35   H13   S    
C22   C24   A    
C6    H15   S    
C20   H5    S    
Cu2   O2    S    
C39   H24   S    
C19   H17   S    
C11   C17   A    
C15   H4    S    
C41   C42   S    
C37   C38   S    
Cu1   N6    S    
C6    C7    A    
C12   O4    A    
C24   H8    S    
C32   C33   A    
C25   C26   A    
C5    C10   A    
C3    C10   S    
C11   C13   A    
C4    N4    A    
C11   H2    S    
C3    N3    A    
C37   H18   S    
C22   H7    S    
C20   C21   A    
O10   C40   S    
C30   N6    A    
C27   C28   A    
C14   C15   A    
C42   H29   S    
