data_mof_unit_pretest_1979.cif
_audit_creation_date              2012-10-26T19:11:34-0400
_audit_creation_method            fapswitch 2.2
_symmetry_space_group_name_H-M    P1
_symmetry_Int_Tables_number       1
_space_group_crystal_system       triclinic
_cell_length_a                    15.875065
_cell_length_b                    15.904164
_cell_length_c                    14.661549
_cell_angle_alpha                 90.292156
_cell_angle_beta                  90.354734
_cell_angle_gamma                 89.997906
_cell_volume                      3701.62350326

loop_
_atom_site_label
_atom_site_type_symbol
_atom_type_description
_atom_site_fract_x
_atom_site_fract_y
_atom_site_fract_z
_atom_type_partial_charge
C1    C     C_R   0.500092 0.339800 0.499802 0.558872
C2    C     C_3   0.547212 0.048043 0.416673 -0.232553
C3    C     C_3   0.546747 0.950662 0.416604 -0.224988
C4    C     C_R   0.339372 0.499957 0.499696 0.551271
C5    C     C_1   0.499769 0.749771 0.500741 -0.027441
C6    C     C_3   0.500081 0.082740 0.501369 0.074571
C7    C     C_3   0.544420 0.951129 0.588179 -0.194148
C8    C     C_3   0.499702 0.917253 0.501282 0.027265
C9    C     C_3   0.408192 0.951062 0.499492 -0.200670
C10   C     C_3   0.408002 0.048659 0.496763 -0.037319
C11   C     C_1   0.499677 0.825219 0.501038 -0.072483
C12   C     C_3   0.082522 0.499697 0.499527 0.049672
C13   C     C_1   0.500219 0.174849 0.499963 -0.002912
C14   C     C_1   0.500205 0.250286 0.499446 0.018234
C15   C     C_3   0.524190 0.587226 0.054829 -0.215204
C16   C     C_R   0.499922 0.660217 0.500209 0.546923
C17   C     C_3   0.411218 0.477138 0.051599 -0.216139
C18   C     C_3   0.412068 0.477956 0.945001 -0.215158
C19   C     C_3   0.499230 0.499368 0.091841 0.030367
C20   C     C_3   0.525174 0.587910 0.948233 -0.216431
C21   C     C_3   0.500740 0.500598 0.908153 0.028194
C22   C     C_3   0.564029 0.435149 0.946854 -0.213938
C23   C     C_3   0.972557 0.568888 0.543864 -0.100840
C24   C     C_3   0.563229 0.434509 0.053456 -0.216018
C25   C     C_1   0.501467 0.501195 0.804951 0.113875
C26   C     C_1   0.498506 0.498791 0.195047 0.107545
C27   C     C_R   0.660630 0.499966 0.500305 0.551105
C28   C     C_3   0.972335 0.430827 0.542992 -0.093430
C29   C     C_3   0.027445 0.430775 0.456198 -0.095506
C30   C     C_1   0.249676 0.499816 0.499149 -0.022242
C31   C     C_1   0.750326 0.499980 0.500866 -0.022345
C32   C     C_3   0.028946 0.499739 0.586312 -0.097696
C33   C     C_3   0.917478 0.499966 0.500533 0.048569
C34   C     C_3   0.027663 0.568835 0.457070 -0.101523
C35   C     C_3   0.971056 0.499924 0.413751 -0.101230
C36   C     C_1   0.174149 0.499711 0.499135 -0.052426
C37   C     C_1   0.825853 0.499998 0.500904 -0.052841
C38   C     C_3   0.543752 0.048752 0.589388 -0.007684
Cu1   Cu    Cu3+1 0.499890 0.499910 0.589920 1.003910
Cu2   Cu    Cu3+1 0.500110 0.500090 0.410080 0.984421
H1    H     H_    0.051258 0.374064 0.420223 0.119062
H2    H     H_    0.480517 0.636513 0.922863 0.118377
H3    H     H_    0.948196 0.374223 0.578290 0.125618
H4    H     H_    0.478961 0.635416 0.079877 0.117138
H5    H     H_    0.391587 0.413878 0.075592 0.119822
H6    H     H_    0.363638 0.522963 0.076733 0.117352
H7    H     H_    0.364975 0.524266 0.919713 0.118074
H8    H     H_    0.392675 0.415126 0.918568 0.125550
H9    H     H_    0.627484 0.449077 0.079843 0.118302
H10   H     H_    0.546822 0.370390 0.077616 0.120052
H11   H     H_    0.628690 0.449869 0.922815 0.120692
H12   H     H_    0.613279 0.071170 0.415698 0.163053
H13   H     H_    0.587569 0.605030 0.081379 0.117091
H14   H     H_    0.589059 0.605870 0.924360 0.118089
H15   H     H_    0.945924 0.500036 0.342920 0.110825
H16   H     H_    0.547851 0.371367 0.920585 0.128133
H17   H     H_    0.051803 0.625444 0.421781 0.111506
H18   H     H_    0.948754 0.625606 0.579836 0.113638
H19   H     H_    0.054074 0.499631 0.657141 0.114454
H20   H     H_    0.610133 0.926996 0.590642 0.157746
H21   H     H_    0.516458 0.071085 0.353094 0.108053
H22   H     H_    0.612740 0.927011 0.416463 0.137797
H23   H     H_    0.515653 0.927201 0.353153 0.121212
H24   H     H_    0.378698 0.068904 0.431265 0.135750
H25   H     H_    0.374104 0.928193 0.560579 0.159156
H26   H     H_    0.508161 0.070433 0.650166 0.172912
H27   H     H_    0.512078 0.927338 0.650065 0.121801
H28   H     H_    0.374147 0.926039 0.438553 0.115129
I1    I     I_    0.326826 0.099432 0.601363 -0.441980
I2    I     I_    0.669625 0.097294 0.610588 -0.441140
N1    N     N_1   0.501700 0.501390 0.724970 -0.190470
N2    N     N_1   0.498280 0.498620 0.275030 -0.194012
O1    O     O_R   0.499910 0.379360 0.575970 -0.476270
O2    O     O_R   0.500090 0.379510 0.424100 -0.496598
O3    O     O_R   0.378990 0.499920 0.575920 -0.488950
O4    O     O_R   0.379170 0.500070 0.424050 -0.491785
O5    O     O_R   0.499910 0.620490 0.575900 -0.492732
O6    O     O_R   0.500090 0.620640 0.424030 -0.493193
O7    O     O_R   0.620830 0.499930 0.575950 -0.488430
O8    O     O_R   0.621010 0.500080 0.424080 -0.492454

loop_
_geom_bond_atom_site_label_1
_geom_bond_atom_site_label_2
_ccdc_geom_bond_type
C23   H18   S    
C38   I2    S    
C12   C29   S    
C18   C21   S    
C26   N2    T    
C18   H7    S    
C7    C8    S    
C15   C19   S    
C1    O2    A    
C15   H13   S    
C22   C24   S    
C28   C29   S    
C17   H5    S    
C15   H4    S    
C5    C11   T    
C27   O7    A    
C34   C35   S    
C19   C26   S    
C5    C16   S    
C17   C19   S    
C38   H26   S    
C8    C9    S    
C4    O3    A    
C34   H17   S    
Cu2   O8    S    
C25   N1    T    
Cu1   O3    S    
C12   C36   S    
C9    C10   S    
C2    H21   S    
C13   C14   T    
C12   C32   S    
C2    C6    S    
C24   H10   S    
C15   C20   S    
C27   C31   S    
C28   C32   S    
C17   H6    S    
C20   H14   S    
C3    C8    S    
Cu1   Cu2   S    
C22   H16   S    
C23   C33   S    
C35   H15   S    
C33   C37   S    
C31   C37   T    
Cu1   O7    S    
C23   C34   S    
C6    C38   S    
C17   C18   S    
C2    H12   S    
C28   C33   S    
C27   O8    A    
Cu2   O6    S    
C12   C34   S    
Cu1   O5    S    
C7    H20   S    
C3    H22   S    
C24   H9    S    
C21   C25   S    
Cu2   N2    S    
C29   H1    S    
C10   H24   S    
C18   H8    S    
C6    C10   S    
C20   H2    S    
C3    H23   S    
C29   C35   S    
C28   H3    S    
C30   C36   T    
C1    O1    A    
C23   C32   S    
C2    C3    S    
C9    H28   S    
C6    C13   S    
C8    C11   S    
C33   C35   S    
C7    C38   S    
Cu2   O2    S    
C19   C24   S    
C16   O6    A    
Cu1   O1    S    
C9    H25   S    
C4    O4    A    
C7    H27   S    
C10   I1    S    
Cu2   O4    S    
C20   C21   S    
Cu1   N1    S    
C16   O5    A    
C1    C14   S    
C32   H19   S    
C21   C22   S    
C4    C30   S    
C22   H11   S    
