data_mof_unit_pretest_235.cif
_audit_creation_date              2012-12-10T16:46:48-0500
_audit_creation_method            fapswitch 2.2
_symmetry_space_group_name_H-M    P1
_symmetry_Int_Tables_number       1
_space_group_crystal_system       triclinic
_cell_length_a                    15.858254
_cell_length_b                    8.70597
_cell_length_c                    7.440667
_cell_angle_alpha                 102.944089
_cell_angle_beta                  93.958154
_cell_angle_gamma                 92.222374
_cell_volume                      997.222211877

loop_
_atom_site_label
_atom_site_type_symbol
_atom_type_description
_atom_site_fract_x
_atom_site_fract_y
_atom_site_fract_z
_atom_type_partial_charge
C1    C     C_R   0.500530 0.200153 0.453768 0.906392
C2    C     C_3   0.953013 0.448521 0.666057 -0.398480
C3    C     C_3   0.917022 0.507170 0.495362 0.201051
C4    C     C_3   0.954938 0.679186 0.513253 -0.166690
C5    C     C_3   0.053732 0.679228 0.514345 -0.202270
C6    C     C_1   0.824605 0.503174 0.491636 -0.072611
C7    C     C_1   0.175538 0.505089 0.509550 -0.084137
C8    C     C_1   0.250993 0.502464 0.508525 -0.149978
C9    C     C_2   0.499675 0.032567 0.431336 -0.397646
C10   C     C_2   0.526050 0.966690 0.570257 -0.212765
C11   C     C_R   0.340340 0.500032 0.502778 0.819074
C12   C     C_R   0.507855 0.800067 0.546327 0.806188
C13   C     C_R   0.659649 0.500040 0.497241 0.844659
C14   C     C_3   0.050765 0.447410 0.671412 -0.372586
C15   C     C_3   0.043085 0.399464 0.324377 -0.384742
C16   C     C_3   0.945343 0.394432 0.320281 -0.348425
C17   C     C_1   0.749048 0.501057 0.492000 -0.111547
C18   C     C_3   0.083237 0.508884 0.506858 0.244164
Cu1   Cu    Cu3+1 0.509300 0.517380 0.684380 1.002012
Cu2   Cu    Cu3+1 0.490700 0.482620 0.315620 0.991452
H1    H     H_    0.926234 0.327331 0.660943 0.198290
H2    H     H_    0.079059 0.521559 0.805282 0.186239
H3    H     H_    0.934332 0.526106 0.795815 0.193966
H4    H     H_    0.468772 0.962136 0.302514 0.187277
H5    H     H_    0.435148 0.376693 0.948569 0.230981
H6    H     H_    0.564932 0.623176 0.051389 0.238872
H7    H     H_    0.070497 0.325000 0.664355 0.180507
H8    H     H_    0.063591 0.442402 0.203244 0.185454
H9    H     H_    0.064972 0.277713 0.310957 0.180642
H10   H     H_    0.921146 0.271544 0.314811 0.188680
H11   H     H_    0.918076 0.425085 0.192177 0.205891
H12   H     H_    0.075317 0.717030 0.390849 0.157117
H13   H     H_    0.937226 0.749696 0.648791 0.132180
N1    N     N_2   0.476670 0.456430 0.038530 -0.205877
N2    N     N_2   0.523330 0.543570 0.961470 -0.205483
O1    O     O_R   0.506050 0.286130 0.619770 -0.577886
O2    O     O_R   0.490330 0.256780 0.308370 -0.560837
O3    O     O_R   0.387300 0.514690 0.655770 -0.585226
O4    O     O_R   0.371580 0.485340 0.344370 -0.577487
O5    O     O_R   0.509670 0.743220 0.691630 -0.551999
O6    O     O_R   0.493950 0.713870 0.380230 -0.589880
O7    O     O_R   0.628420 0.514660 0.655630 -0.565492
O8    O     O_R   0.612700 0.485310 0.344230 -0.585863
C19   C     C_2   0.917685 0.758071 0.365698 0.829687
O9    O     O_2   0.872198 0.868501 0.409169 -0.593555
O10   O     O_R   0.936182 0.707165 0.181415 -0.794006
H14   H     H_    0.907758 0.770010 0.097298 0.332627
C20   C     C_2   0.579832 0.052270 0.738452 0.900382
O11   O     O_2   0.565304 0.032437 0.891222 -0.579687
O12   O     O_R   0.648262 0.152593 0.720379 -0.741151
H15   H     H_    0.679873 0.203875 0.843686 0.333040
C21   C     C_1   0.093840 0.795131 0.677305 0.218944
N3    N     N_1   0.125186 0.885806 0.804809 -0.279465

loop_
_geom_bond_atom_site_label_1
_geom_bond_atom_site_label_2
_ccdc_geom_bond_type
C12   O5    A    
C15   C18   S    
C9    H4    S    
C12   O6    A    
Cu1   O3    S    
C1    O2    A    
C14   H7    S    
C11   O3    A    
C9    C10   D    
C14   C18   S    
Cu1   Cu2   S    
Cu1   O7    S    
C13   C17   S    
H5    N1    S    
C5    H12   S    
Cu2   N1    S    
C7    C18   S    
C2    H1    S    
C20   O12   S    
O12   H15   S    
C7    C8    T    
C5    C21   S    
Cu1   N2    S    
C19   O9    D    
C16   H11   S    
C11   O4    A    
Cu2   O2    S    
C14   H2    S    
C15   H8    S    
C10   C12   S    
C8    C11   S    
Cu2   O6    S    
C20   O11   D    
C19   O10   S    
C15   H9    S    
C2    C3    S    
Cu1   O1    S    
C10   C20   S    
C2    C14   S    
Cu1   O5    S    
C16   H10   S    
C3    C4    S    
H6    N2    S    
C13   O8    A    
Cu2   O8    S    
C1    C9    S    
C21   N3    T    
N1    N2    D    
C3    C6    S    
C2    H3    S    
Cu2   O4    S    
C6    C17   T    
C4    H13   S    
C13   O7    A    
C5    C18   S    
C4    C19   S    
O10   H14   S    
C3    C16   S    
C15   C16   S    
C1    O1    A    
C4    C5    S    
