data_mof_unit_pretest_25.cif
_audit_creation_date              2012-12-11T14:42:09-0500
_audit_creation_method            fapswitch 2.2
_symmetry_space_group_name_H-M    P1
_symmetry_Int_Tables_number       1
_space_group_crystal_system       triclinic
_cell_length_a                    19.187133
_cell_length_b                    10.989489
_cell_length_c                    18.937999
_cell_angle_alpha                 89.824333
_cell_angle_beta                  90.147856
_cell_angle_gamma                 89.738219
_cell_volume                      3993.13173355

loop_
_atom_site_label
_atom_site_type_symbol
_atom_type_description
_atom_site_fract_x
_atom_site_fract_y
_atom_site_fract_z
_atom_type_partial_charge
C1    C     C_R   0.726976 0.956717 0.853390 0.533816
C2    C     C_R   0.272939 0.956165 0.146631 0.539472
C3    C     C_R   0.226982 0.456706 0.853384 0.534339
C4    C     C_R   0.772945 0.456185 0.146620 0.538872
C5    C     C_R   0.688920 0.440887 0.043942 -0.003057
C6    C     C_R   0.310432 0.445162 0.956620 0.007350
C7    C     C_R   0.188876 0.940722 0.043994 -0.003109
C8    C     C_R   0.810401 0.945241 0.956641 0.007347
C9    C     C_R   0.755261 0.421028 0.074681 0.015455
C10   C     C_R   0.244333 0.424089 0.925629 0.014410
C11   C     C_R   0.255231 0.920929 0.074714 0.015438
C12   C     C_R   0.744313 0.924124 0.925642 0.014432
C13   C     C_R   0.810948 0.387261 0.032426 -0.124246
C14   C     C_R   0.188467 0.390423 0.967239 -0.150598
C15   C     C_R   0.310911 0.887161 0.032452 -0.124182
C16   C     C_R   0.688448 0.890406 0.967243 -0.150535
C17   C     C_R   0.802057 0.362056 0.963206 -0.093868
C18   C     C_R   0.198050 0.362568 0.036258 -0.091912
C19   C     C_R   0.302017 0.861951 0.963235 -0.093994
C20   C     C_R   0.698035 0.862548 0.036263 -0.091828
C21   C     C_R   0.740770 0.394756 0.929067 0.052966
C22   C     C_R   0.258678 0.396458 0.070982 0.023510
C23   C     C_R   0.240720 0.894609 0.929107 0.052921
C24   C     C_R   0.758653 0.896493 0.070994 0.023317
C25   C     C_R   0.538062 0.270821 0.526112 -0.125703
C26   C     C_R   0.530916 0.265660 0.454131 -0.133477
C27   C     C_R   0.969226 0.767229 0.545531 -0.134042
C28   C     C_R   0.961749 0.771555 0.473558 -0.124787
C29   C     C_R   0.501492 0.162787 0.423571 0.035337
C30   C     C_R   0.518315 0.171398 0.568249 0.036721
C31   C     C_R   0.980734 0.670835 0.432109 0.039107
C32   C     C_R   0.998021 0.663706 0.576762 0.033700
C33   C     C_R   0.486481 0.059412 0.464727 -0.129363
C34   C     C_R   0.495165 0.063719 0.537304 -0.136784
C35   C     C_R   0.002981 0.562630 0.463836 -0.137693
C36   C     C_R   0.011845 0.559017 0.536408 -0.132203
C37   C     C_R   0.798241 0.329659 0.531952 -0.125255
C38   C     C_R   0.203707 0.325814 0.469047 -0.132199
C39   C     C_R   0.299842 0.833581 0.532683 -0.134206
C40   C     C_R   0.704020 0.825214 0.469180 -0.124343
C41   C     C_R   0.800905 0.340292 0.459663 -0.130096
C42   C     C_R   0.200972 0.337739 0.541289 -0.137066
C43   C     C_R   0.302660 0.843792 0.460423 -0.138397
C44   C     C_R   0.701378 0.837041 0.541448 -0.128973
C45   C     C_R   0.564355 0.181824 0.856430 0.597704
C46   C     C_R   0.467721 0.178890 0.148319 0.586762
C47   C     C_R   0.064348 0.681823 0.856432 0.596960
C48   C     C_R   0.967696 0.678895 0.148303 0.589307
C49   C     C_R   0.754610 0.418107 0.424250 0.033832
C50   C     C_R   0.245658 0.418494 0.575814 0.034380
C51   C     C_R   0.255148 0.918702 0.424505 0.034177
C52   C     C_R   0.745847 0.918211 0.575903 0.034526
C53   C     C_R   0.701974 0.478522 0.462191 -0.140538
C54   C     C_R   0.296863 0.480773 0.537085 -0.129350
C55   C     C_R   0.201333 0.976681 0.461978 -0.131817
C56   C     C_R   0.796814 0.980905 0.537084 -0.139279
C57   C     C_R   0.697953 0.464834 0.535315 -0.145764
C58   C     C_R   0.301126 0.465610 0.464102 -0.132781
C59   C     C_R   0.196917 0.962676 0.535065 -0.133438
C60   C     C_R   0.800796 0.966250 0.464048 -0.145961
C61   C     C_R   0.746856 0.391438 0.570691 0.036550
C62   C     C_R   0.253468 0.389729 0.429528 0.033936
C63   C     C_R   0.247001 0.892355 0.570921 0.034882
C64   C     C_R   0.753442 0.889724 0.429559 0.035549
C65   C     C_R   0.735649 0.357420 0.855147 0.541182
C66   C     C_R   0.264293 0.357368 0.144800 0.562245
C67   C     C_R   0.235630 0.857361 0.855167 0.540734
C68   C     C_R   0.764286 0.857379 0.144805 0.562657
C69   C     C_R   0.727493 0.956282 0.647233 0.550084
C70   C     C_R   0.272645 0.956117 0.352851 0.538855
C71   C     C_R   0.227436 0.456394 0.647191 0.551278
C72   C     C_R   0.772535 0.455949 0.352766 0.537708
C73   C     C_R   0.533964 0.177121 0.642505 0.572424
C74   C     C_R   0.470600 0.175217 0.354592 0.552193
C75   C     C_R   0.029290 0.675671 0.645523 0.574797
C76   C     C_R   0.965705 0.676758 0.357685 0.552359
C77   C     C_R   0.738271 0.358031 0.644736 0.557551
C78   C     C_R   0.261846 0.357074 0.355410 0.555984
C79   C     C_R   0.238305 0.858240 0.644819 0.558793
C80   C     C_R   0.761834 0.857107 0.355414 0.554688
C81   C     C_2   0.551250 0.168450 0.931597 -0.119467
C82   C     C_2   0.486096 0.179792 0.073932 -0.095961
C83   C     C_2   0.051213 0.668445 0.931589 -0.118593
C84   C     C_2   0.986005 0.679811 0.073898 -0.096590
C85   C     C_2   0.492154 0.082092 0.032757 0.227938
C86   C     C_2   0.496096 0.106659 0.956387 0.254499
C87   C     C_2   0.992063 0.582119 0.032716 0.227553
C88   C     C_2   0.996027 0.606712 0.956350 0.254983
C89   C     C_R   0.683985 0.443167 0.969103 -0.006699
C90   C     C_R   0.315060 0.446741 0.031419 -0.001869
C91   C     C_R   0.183917 0.942940 0.969156 -0.006697
C92   C     C_R   0.815018 0.946840 0.031440 -0.001974
Cr1   Cr    Cr6+3 0.769270 0.163730 0.750710 0.975575
Cr2   Cr    Cr6+3 0.230730 0.163730 0.249290 1.002000
Cr3   Cr    Cr6+3 0.269270 0.663730 0.750710 0.977210
Cr4   Cr    Cr6+3 0.730730 0.663730 0.249290 1.000667
Cr5   Cr    Cr6+3 0.612620 0.009790 0.748780 1.032310
Cr6   Cr    Cr6+3 0.387380 0.009790 0.251220 1.070402
Cr7   Cr    Cr6+3 0.112620 0.509790 0.748780 1.029475
Cr8   Cr    Cr6+3 0.887380 0.509790 0.251220 1.072986
Cr9   Cr    Cr6+3 0.614160 0.322500 0.747710 0.987027
Cr10  Cr    Cr6+3 0.385840 0.322500 0.252290 0.979669
Cr11  Cr    Cr6+3 0.114160 0.822500 0.747710 0.989208
Cr12  Cr    Cr6+3 0.885840 0.822500 0.252290 0.976342
H1    H     H_    0.841912 0.291984 0.432047 0.126511
H2    H     H_    0.161153 0.287900 0.569559 0.125450
H3    H     H_    0.344680 0.797457 0.433247 0.124649
H4    H     H_    0.661777 0.786824 0.569805 0.127322
H5    H     H_    0.665677 0.539265 0.435837 0.116162
H6    H     H_    0.331711 0.544226 0.562634 0.122394
H7    H     H_    0.164249 0.035505 0.435276 0.119346
H8    H     H_    0.831668 0.044322 0.562626 0.118049
H9    H     H_    0.656899 0.511027 0.563979 0.111465
H10   H     H_    0.341169 0.513117 0.434873 0.119854
H11   H     H_    0.154625 0.006158 0.563302 0.120385
H12   H     H_    0.840482 0.014472 0.434723 0.111384
H13   H     H_    0.482590 0.268550 0.048375 0.027464
H14   H     H_    0.592662 0.196218 0.967279 0.018621
H15   H     H_    0.982479 0.768573 0.048346 0.027219
H16   H     H_    0.092624 0.696151 0.967290 0.018715
H17   H     H_    0.862773 0.378462 0.052330 0.200686
H18   H     H_    0.137286 0.377993 0.945079 0.213893
H19   H     H_    0.362745 0.878440 0.052339 0.200737
H20   H     H_    0.637281 0.877876 0.945069 0.213855
H21   H     H_    0.845975 0.323237 0.936019 0.171679
H22   H     H_    0.156760 0.314126 0.062140 0.219100
H23   H     H_    0.345946 0.823206 0.936035 0.171665
H24   H     H_    0.656764 0.814040 0.062135 0.219120
H25   H     H_    0.559413 0.353127 0.548593 0.135649
H26   H     H_    0.543824 0.345323 0.422976 0.124993
H27   H     H_    0.957109 0.847843 0.576073 0.127330
H28   H     H_    0.940933 0.854441 0.450546 0.137550
H29   H     H_    0.463662 0.978689 0.441699 0.133635
H30   H     H_    0.482411 0.984872 0.569154 0.122032
H31   H     H_    0.015042 0.482871 0.432594 0.123506
H32   H     H_    0.033999 0.477605 0.559995 0.134046
H33   H     H_    0.835964 0.269995 0.557084 0.127940
H34   H     H_    0.167348 0.263705 0.444555 0.128667
H35   H     H_    0.338495 0.776165 0.558141 0.127447
H36   H     H_    0.667786 0.762885 0.444721 0.128811
O1    O     O_R   0.784320 0.290430 0.830510 -0.535197
O2    O     O_R   0.215680 0.290430 0.169490 -0.509525
O3    O     O_R   0.284320 0.790430 0.830510 -0.535781
O4    O     O_R   0.715680 0.790430 0.169490 -0.509043
O5    O     O_R   0.554640 0.080370 0.673500 -0.494862
O6    O     O_R   0.445360 0.080370 0.326500 -0.504929
O7    O     O_R   0.054640 0.580370 0.673500 -0.501278
O8    O     O_R   0.945360 0.580370 0.326500 -0.499285
O9    O     O_R   0.543920 0.282180 0.666790 -0.526193
O10   O     O_R   0.456080 0.282180 0.333210 -0.530432
O11   O     O_R   0.043920 0.782180 0.666790 -0.522134
O12   O     O_R   0.956080 0.782180 0.333210 -0.537313
O13   O     O_R   0.679040 0.374160 0.674430 -0.508027
O14   O     O_R   0.320960 0.374160 0.325570 -0.505193
O15   O     O_R   0.179040 0.874160 0.674430 -0.501997
O16   O     O_R   0.820960 0.874160 0.325570 -0.511897
O17   O     O_3   0.665350 0.165340 0.749070 -0.281930
O18   O     O_3   0.334650 0.165340 0.250930 -0.258404
O19   O     O_3   0.165350 0.665340 0.749070 -0.280070
O20   O     O_3   0.834650 0.665340 0.250930 -0.260106
O21   O     O_R   0.762640 0.040960 0.825200 -0.516277
O22   O     O_R   0.237360 0.040960 0.174800 -0.514318
O23   O     O_R   0.262640 0.540960 0.825200 -0.516360
O24   O     O_R   0.737360 0.540960 0.174800 -0.514210
O25   O     O_R   0.667400 0.923970 0.829950 -0.547037
O26   O     O_R   0.332600 0.923970 0.170050 -0.501748
O27   O     O_R   0.167400 0.423970 0.829950 -0.546537
O28   O     O_R   0.832600 0.423970 0.170050 -0.502297
O29   O     O_R   0.553960 0.081340 0.821780 -0.421420
O30   O     O_R   0.446040 0.081340 0.178220 -0.406160
O31   O     O_R   0.053960 0.581340 0.821780 -0.422702
O32   O     O_R   0.946040 0.581340 0.178220 -0.405210
O33   O     O_R   0.543180 0.283240 0.826740 -0.511251
O34   O     O_R   0.456820 0.283240 0.173260 -0.571647
O35   O     O_R   0.043180 0.783240 0.826740 -0.513751
O36   O     O_R   0.956820 0.783240 0.173260 -0.569281
O37   O     O_R   0.678360 0.375140 0.822710 -0.536393
O38   O     O_R   0.321640 0.375140 0.177290 -0.517239
O39   O     O_R   0.178360 0.875140 0.822710 -0.536870
O40   O     O_R   0.821640 0.875140 0.177290 -0.516667
O41   O     O_R   0.785050 0.289380 0.670560 -0.524695
O42   O     O_R   0.214950 0.289380 0.329440 -0.521168
O43   O     O_R   0.285050 0.789380 0.670560 -0.526348
O44   O     O_R   0.714950 0.789380 0.329440 -0.519365
O45   O     O_R   0.763320 0.039990 0.676930 -0.515054
O46   O     O_R   0.236680 0.039990 0.323070 -0.519852
O47   O     O_R   0.263320 0.539990 0.676930 -0.513085
O48   O     O_R   0.736680 0.539990 0.323070 -0.521555
O49   O     O_R   0.668130 0.922920 0.670000 -0.528312
O50   O     O_R   0.331870 0.922920 0.330000 -0.535105
O51   O     O_R   0.168130 0.422920 0.670000 -0.531981
O52   O     O_R   0.831870 0.422920 0.330000 -0.531322
S1    S     S_3+6 0.516959 0.938035 0.067255 -0.038771
O53   O     O_2   0.581651 0.958507 0.110132 -0.305934
O54   O     O_2   0.464159 0.883707 0.115859 -0.304424
O55   O     O_3   0.531179 0.838028 0.001984 -0.591241
H37   H     H_    0.484224 0.816094 0.984448 0.355529
S2    S     S_3+6 0.420672 0.083509 0.903884 -0.014633
O56   O     O_2   0.357112 0.097374 0.949158 -0.323742
O57   O     O_2   0.415839 0.174472 0.844688 -0.298039
O58   O     O_3   0.425465 0.943405 0.868922 -0.553148
H38   H     H_    0.396410 0.946982 0.825650 0.371981
S3    S     S_3+6 0.016940 0.438095 0.067204 -0.038861
O59   O     O_2   0.081647 0.458654 0.110043 -0.305735
O60   O     O_2   0.964186 0.383716 0.115843 -0.304684
O61   O     O_3   0.031160 0.338099 0.001927 -0.591155
H39   H     H_    0.984204 0.316165 0.984390 0.355521
S4    S     S_3+6 0.920620 0.583621 0.903807 -0.015089
O62   O     O_2   0.857039 0.597544 0.949047 -0.323533
O63   O     O_2   0.915839 0.674578 0.844602 -0.300378
O64   O     O_3   0.925390 0.443506 0.868851 -0.553009
H40   H     H_    0.896452 0.447155 0.825510 0.372117
C93   C     C_3   0.622111 0.504602 0.933433 -0.252376
C94   C     C_3   0.646775 0.611084 0.887183 -0.255312
C95   C     C_3   0.589292 0.658380 0.838980 -0.429321
H41   H     H_    0.571400 0.583936 0.804191 0.142238
H42   H     H_    0.545644 0.695601 0.870660 0.175385
H43   H     H_    0.609541 0.731070 0.804227 0.181146
H44   H     H_    0.664599 0.683063 0.922566 0.177122
H45   H     H_    0.692214 0.587761 0.853859 0.195847
H46   H     H_    0.591664 0.437877 0.903175 0.182217
H47   H     H_    0.584966 0.542725 0.972127 0.133781
C96   C     C_3   0.377324 0.504439 0.067783 -0.251186
C97   C     C_3   0.353684 0.608214 0.116741 -0.268239
C98   C     C_3   0.406285 0.634305 0.174757 -0.405566
H48   H     H_    0.413968 0.552835 0.208678 0.156568
H49   H     H_    0.456193 0.661545 0.150693 0.188954
H50   H     H_    0.387150 0.709817 0.208395 0.175547
H51   H     H_    0.347071 0.689363 0.084113 0.159376
H52   H     H_    0.302417 0.591684 0.141784 0.173798
H53   H     H_    0.407630 0.434344 0.096036 0.197189
H54   H     H_    0.414615 0.543806 0.029817 0.114179
C99   C     C_3   0.122022 0.004318 0.933491 -0.252391
C100  C     C_3   0.146662 0.110994 0.887391 -0.255351
C101  C     C_3   0.089300 0.158074 0.838982 -0.429380
H55   H     H_    0.071623 0.083599 0.804118 0.142171
H56   H     H_    0.045513 0.195124 0.870501 0.175227
H57   H     H_    0.109571 0.230876 0.804333 0.181211
H58   H     H_    0.164168 0.183010 0.922896 0.177117
H59   H     H_    0.192274 0.087955 0.854253 0.195885
H60   H     H_    0.091664 0.937624 0.903135 0.182511
H61   H     H_    0.084782 0.042204 0.972163 0.133560
C102  C     C_3   0.877258 0.004599 0.067810 -0.251150
C103  C     C_3   0.853578 0.108277 0.116818 -0.268199
C104  C     C_3   0.906216 0.134413 0.174792 -0.405604
H62   H     H_    0.913917 0.052961 0.208726 0.156791
H63   H     H_    0.956110 0.161621 0.150681 0.188908
H64   H     H_    0.887103 0.209948 0.208425 0.175402
H65   H     H_    0.846866 0.189452 0.084224 0.159330
H66   H     H_    0.802342 0.091624 0.141903 0.173715
H67   H     H_    0.907609 0.934515 0.096031 0.196975
H68   H     H_    0.914508 0.044078 0.029841 0.114221
C105  C     C_3   0.623958 0.433259 0.089645 -0.253993
C106  C     C_3   0.597723 0.557113 0.116684 -0.256907
C107  C     C_3   0.576810 0.550646 0.194560 -0.410365
H69   H     H_    0.561626 0.642509 0.213450 0.146933
H70   H     H_    0.532509 0.487285 0.201280 0.148539
H71   H     H_    0.620404 0.517578 0.228078 0.180130
H72   H     H_    0.637948 0.627726 0.109926 0.216172
H73   H     H_    0.551756 0.586806 0.085247 0.152415
H74   H     H_    0.581556 0.388751 0.059530 0.115890
H75   H     H_    0.634795 0.369888 0.134336 0.149943
C108  C     C_3   0.375579 0.439780 0.910974 -0.215674
C109  C     C_3   0.401923 0.564982 0.886691 -0.294489
C110  C     C_3   0.424597 0.563144 0.809309 -0.405805
H76   H     H_    0.444566 0.653973 0.793807 0.130920
H77   H     H_    0.465642 0.493150 0.801502 0.164793
H78   H     H_    0.380508 0.540929 0.773848 0.191906
H79   H     H_    0.360963 0.634743 0.893453 0.204938
H80   H     H_    0.447178 0.592502 0.919441 0.127079
H81   H     H_    0.418016 0.390721 0.939492 0.151571
H82   H     H_    0.363969 0.382073 0.864413 0.208877
C111  C     C_3   0.123935 0.933271 0.089739 -0.253966
C112  C     C_3   0.097729 0.057239 0.116635 -0.257797
C113  C     C_3   0.076792 0.051044 0.194507 -0.408707
H83   H     H_    0.061609 0.142976 0.213286 0.146649
H84   H     H_    0.032486 0.987709 0.201281 0.149776
H85   H     H_    0.120375 0.018086 0.228074 0.181710
H86   H     H_    0.137985 0.127777 0.109820 0.216066
H87   H     H_    0.051775 0.086890 0.085166 0.152471
H88   H     H_    0.081517 0.888648 0.059707 0.115986
H89   H     H_    0.134793 0.870071 0.134505 0.150718
C114  C     C_3   0.875557 0.939800 0.911012 -0.215671
C115  C     C_3   0.901904 0.064963 0.886673 -0.293686
C116  C     C_3   0.924599 0.063015 0.809295 -0.407400
H90   H     H_    0.944508 0.153852 0.793732 0.131371
H91   H     H_    0.965701 0.993107 0.801551 0.163458
H92   H     H_    0.880537 0.040632 0.773836 0.190534
H93   H     H_    0.860943 0.134736 0.893394 0.205063
H94   H     H_    0.947142 0.092529 0.919433 0.127055
H95   H     H_    0.917991 0.890783 0.939559 0.151589
H96   H     H_    0.863953 0.882032 0.864476 0.208564

loop_
_geom_bond_atom_site_label_1
_geom_bond_atom_site_label_2
_ccdc_geom_bond_type
C105  H75   S    
C58   C62   A    
C87   C88   S    
C107  H70   S    
Cr3   O3    S    
C109  H79   S    
C14   H18   S    
C23   C91   A    
C55   C59   A    
Cr8   O32   S    
C101  H56   S    
O58   H38   S    
C14   C18   A    
Cr9   O33   S    
C35   C36   A    
C84   C87   D    
Cr6   O30   S    
Cr6   O50   S    
Cr3   O43   S    
C97   C98   S    
C2    O22   A    
C32   C75   S    
C13   H17   S    
C72   O52   A    
Cr3   O47   S    
C108  C109  S    
Cr12  O36   S    
C21   C89   A    
C85   C86   S    
C7    C11   A    
S3    O60   D    
C70   O50   A    
C50   C54   A    
C15   H19   S    
C23   C67   S    
C112  H87   S    
C111  H89   S    
C32   C36   A    
C115  C116  S    
C113  H84   S    
Cr12  O20   S    
C38   C42   A    
C116  H92   S    
Cr7   O19   S    
C94   H44   S    
C95   H42   S    
C54   C58   A    
C105  C106  S    
C92   C102  S    
C49   C53   A    
Cr7   O31   S    
C34   H30   S    
C105  H74   S    
C102  C103  S    
C29   C33   A    
C98   H50   S    
C27   H27   S    
C103  C104  S    
C54   H6    S    
C112  C113  S    
C5    C105  S    
C57   C61   A    
C97   H52   S    
C9    C13   A    
C22   C66   S    
C52   C69   S    
C77   O13   A    
C46   C82   S    
C52   C56   A    
C11   C15   A    
C41   C49   A    
C48   O32   A    
C12   C16   A    
C61   C77   S    
C109  C110  S    
S1    O54   D    
C49   C72   S    
C94   C95   S    
C77   O41   A    
C101  H55   S    
C4    O24   A    
S2    O57   D    
C48   C84   S    
S2    O56   D    
C8    C92   A    
C51   C70   S    
Cr9   O13   S    
C99   C100  S    
C2    O26   A    
C51   C55   A    
C81   C86   D    
C26   H26   S    
C8    C12   A    
C21   C65   S    
C44   C52   A    
C108  H81   S    
C83   C88   D    
C107  H71   S    
C115  H94   S    
Cr2   O18   S    
C37   H33   S    
C104  H62   S    
C64   C80   S    
Cr10  O38   S    
Cr10  O18   S    
C67   O3    A    
Cr8   O52   S    
C1    C12   S    
Cr1   O41   S    
C88   S4    S    
C2    C11   S    
C36   H32   S    
C87   S3    S    
C96   H53   S    
C80   O16   A    
Cr7   O27   S    
C44   H4    S    
C38   H34   S    
C62   C78   S    
S3    O61   S    
C39   H35   S    
C102  H67   S    
C103  H65   S    
C30   C34   A    
C3    O27   A    
C112  H86   S    
Cr2   O2    S    
Cr6   O18   S    
C82   H13   S    
C113  H85   S    
C66   O38   A    
C96   C97   S    
C10   C14   A    
C95   H43   S    
C93   H46   S    
C8    C114  S    
C53   C57   A    
O61   H39   S    
C78   O14   A    
C57   H9    S    
C29   C74   S    
Cr6   O6    S    
S4    O64   S    
C75   O7    A    
C25   C26   A    
C93   C94   S    
C24   C68   S    
C79   O15   A    
C81   H14   S    
C68   O40   A    
C17   C21   A    
Cr4   O24   S    
C76   O8    A    
C73   O5    A    
C28   H28   S    
Cr5   O17   S    
C83   H16   S    
Cr12  O40   S    
C15   C19   A    
C50   C71   S    
C17   H21   S    
C5    C9    A    
C116  H90   S    
C45   O33   A    
Cr4   O4    S    
C65   O1    A    
C93   H47   S    
Cr8   O20   S    
C37   C61   A    
O64   H40   S    
C59   H11   S    
C1    O25   A    
C16   C20   A    
S1    O55   S    
C7    C91   A    
Cr5   O49   S    
S2    O58   S    
Cr11  O35   S    
C33   C34   A    
C22   C90   A    
C19   H23   S    
Cr10  O10   S    
C38   C62   A    
C43   H3    S    
Cr12  O16   S    
Cr1   O17   S    
C110  H77   S    
S4    O62   D    
Cr6   O26   S    
C46   O30   A    
C41   H1    S    
C86   S2    S    
C66   O2    A    
Cr11  O15   S    
C108  H82   S    
Cr4   O20   S    
C113  H83   S    
C42   C50   A    
Cr1   O21   S    
C47   C83   S    
C104  H63   S    
C72   O48   A    
C114  C115  S    
C24   C92   A    
C101  H57   S    
Cr3   O19   S    
C60   H12   S    
C100  C101  S    
C35   H31   S    
C107  H69   S    
C69   O45   A    
C27   C28   A    
Cr1   O1    S    
C96   H54   S    
C19   C23   A    
Cr11  O19   S    
C89   C93   S    
C110  H76   S    
C53   H5    S    
C25   C30   A    
C30   C73   S    
Cr7   O7    S    
C109  H80   S    
C102  H68   S    
C55   H7    S    
C27   C32   A    
Cr4   O44   S    
C4    O28   A    
Cr5   O5    S    
C74   O6    A    
C28   C31   A    
C45   C81   S    
Cr2   O46   S    
C80   O44   A    
C71   O47   A    
O55   H37   S    
C69   O49   A    
C45   O29   A    
C71   O51   A    
C115  H93   S    
C106  H73   S    
C47   O31   A    
C20   H24   S    
C63   C79   S    
Cr11  O11   S    
C114  H96   S    
Cr10  O34   S    
C82   C85   D    
C39   C63   A    
C91   C99   S    
C59   C63   A    
C40   C64   A    
C100  H59   S    
Cr8   O28   S    
Cr3   O23   S    
C60   C64   A    
C114  H95   S    
C3    O23   A    
Cr12  O12   S    
C106  C107  S    
C18   C22   A    
C16   H20   S    
Cr5   O29   S    
C111  H88   S    
C90   C96   S    
C116  H91   S    
C3    C10   S    
C6    C90   A    
Cr10  O14   S    
C18   H22   S    
C6    C108  S    
Cr7   O51   S    
C43   C51   A    
C31   C76   S    
C7    C111  S    
C65   O37   A    
C106  H72   S    
Cr8   O8    S    
C84   H15   S    
Cr5   O25   S    
C40   H36   S    
C31   C35   A    
Cr9   O9    S    
C98   H49   S    
C79   O43   A    
C68   O4    A    
Cr11  O39   S    
C100  H58   S    
C85   S1    S    
C95   H41   S    
C37   C41   A    
C20   C24   A    
C110  H78   S    
C5    C89   A    
C67   O39   A    
Cr9   O37   S    
C6    C10   A    
C70   O46   A    
C103  H66   S    
C1    O21   A    
C13   C17   A    
C42   H2    S    
C33   H29   S    
C99   H61   S    
C40   C44   A    
C56   C60   A    
C39   C43   A    
C26   C29   A    
S4    O63   D    
S1    O53   D    
C73   O9    A    
C104  H64   S    
C46   O34   A    
C75   O11   A    
C58   H10   S    
C47   O35   A    
C76   O12   A    
C74   O10   A    
C94   H45   S    
C25   H25   S    
Cr2   O42   S    
S3    O59   D    
C78   O42   A    
C4    C9    S    
C97   H51   S    
Cr4   O48   S    
C56   H8    S    
Cr9   O17   S    
Cr2   O22   S    
C99   H60   S    
Cr1   O45   S    
C48   O36   A    
C98   H48   S    
C111  C112  S    
