data_mof_unit_pretest_541.cif
_audit_creation_date              2012-12-10T19:48:41-0500
_audit_creation_method            fapswitch 2.2
_symmetry_space_group_name_H-M    P1
_symmetry_Int_Tables_number       1
_space_group_crystal_system       triclinic
_cell_length_a                    13.231182
_cell_length_b                    14.131594
_cell_length_c                    14.958488
_cell_angle_alpha                 89.136785
_cell_angle_beta                  90.342877
_cell_angle_gamma                 70.975994
_cell_volume                      2643.6668254

loop_
_atom_site_label
_atom_site_type_symbol
_atom_type_description
_atom_site_fract_x
_atom_site_fract_y
_atom_site_fract_z
_atom_type_partial_charge
C1    C     C_R   0.495483 0.501012 0.673323 0.952123
C2    C     C_R   0.981747 0.458536 0.471556 -0.053442
C3    C     C_R   0.871012 0.483069 0.455539 -0.030714
C4    C     C_R   0.027754 0.535288 0.459685 0.042892
C5    C     C_R   0.962519 0.636431 0.451944 0.157369
C6    C     C_R   0.856292 0.657722 0.426486 -0.265793
C7    C     C_R   0.814239 0.579788 0.419970 -0.152540
C8    C     C_R   0.136642 0.514797 0.450401 -0.005882
C9    C     C_R   0.116674 0.687142 0.483495 -0.221054
C10   C     C_R   0.819804 0.412145 0.478601 -0.238465
C11   C     C_R   0.474325 0.430243 0.916425 0.439054
C12   C     C_R   0.703540 0.445566 0.492454 0.916357
C13   C     C_R   0.484584 0.421819 0.824027 -0.211568
C14   C     C_R   0.478114 0.507468 0.770585 -0.352481
C15   C     C_R   0.450915 0.602702 0.811431 0.358931
C16   C     C_R   0.426563 0.611535 0.902090 0.296416
C17   C     C_R   0.442881 0.525206 0.954783 -0.210472
C18   C     C_R   0.512523 0.574411 0.091081 -0.193334
C19   C     C_R   0.531336 0.564258 0.182027 -0.233527
C20   C     C_R   0.481456 0.509389 0.233022 -0.092172
C21   C     C_R   0.407857 0.469758 0.194675 -0.307787
C22   C     C_R   0.383690 0.484261 0.104240 0.552279
C23   C     C_R   0.498401 0.501273 0.327780 0.876980
C24   C     C_R   0.440983 0.532626 0.051445 0.069516
C25   C     C_R   0.591511 0.868118 0.517593 -0.338271
C26   C     C_R   0.590992 0.768978 0.518994 -0.011175
C27   C     C_R   0.406784 0.822986 0.482538 -0.049689
C28   C     C_R   0.402549 0.923911 0.482830 -0.047184
C29   C     C_R   0.497095 0.947769 0.498665 0.124405
C30   C     C_R   0.457305 0.120267 0.424773 0.417273
C31   C     C_R   0.456592 0.220008 0.428864 -0.069014
C32   C     C_R   0.550574 0.186937 0.566254 0.017410
C33   C     C_R   0.548805 0.088065 0.567636 -0.360261
C34   C     C_R   0.296604 0.554671 0.494261 0.877413
C35   C     C_R   0.499133 0.053775 0.497565 0.010036
C36   C     C_R   0.007320 0.712786 0.464421 -0.215575
C37   C     C_R   0.182091 0.586915 0.476341 -0.145634
C38   C     C_R   0.881805 0.311629 0.497439 0.396875
C39   C     C_R   0.991450 0.287959 0.512452 -0.348184
C40   C     C_R   0.040344 0.361418 0.506275 0.434051
H1    H     H_    0.150428 0.745206 0.499382 0.164591
H2    H     H_    0.557987 0.610378 0.050986 0.173798
H3    H     H_    0.587414 0.596057 0.212144 0.155517
H4    H     H_    0.367739 0.429096 0.235175 0.178519
H5    H     H_    0.665654 0.882408 0.531267 0.150165
H6    H     H_    0.663760 0.709388 0.536089 0.151316
H7    H     H_    0.334783 0.804705 0.469687 0.129752
H8    H     H_    0.807029 0.733517 0.409046 0.142357
H9    H     H_    0.425161 0.270465 0.373141 0.162685
H10   H     H_    0.594817 0.210852 0.616859 0.171794
H11   H     H_    0.586770 0.038513 0.622825 0.173530
H12   H     H_    0.957864 0.790841 0.462079 0.139924
H13   H     H_    0.037914 0.213531 0.535885 0.184348
H14   H     H_    0.735677 0.597615 0.389880 0.171762
N1    N     N_R   0.500000 0.747530 0.500020 -0.087408
N2    N     N_R   0.499940 0.252470 0.500020 -0.120940
O1    O     O_R   0.499990 0.420530 0.630930 -0.628108
O2    O     O_R   0.499990 0.579480 0.630940 -0.566234
O3    O     O_R   0.653620 0.381060 0.499970 -0.553150
O4    O     O_R   0.653620 0.540010 0.499980 -0.653064
O5    O     O_R   0.500010 0.420520 0.369060 -0.638754
O6    O     O_R   0.500010 0.579470 0.369070 -0.622624
O7    O     O_R   0.346380 0.459990 0.500020 -0.608042
O8    O     O_R   0.346380 0.618940 0.500030 -0.621822
Zn1   Zn    Zn3+2 0.500000 0.393860 0.499990 0.960542
Zn2   Zn    Zn3+2 0.500000 0.606140 0.500010 0.948122
C41   C     C_1   0.499277 0.323857 0.788603 0.295606
N3    N     N_1   0.509644 0.244269 0.763670 -0.239838
O9    O     O_3   0.436108 0.689843 0.761807 -0.572392
C42   C     C_3   0.525884 0.722218 0.773181 0.172645
H15   H     H_    0.592063 0.678319 0.729850 0.132393
H16   H     H_    0.556023 0.714698 0.843591 0.140616
C43   C     C_3   0.494826 0.832210 0.745911 -0.800182
H17   H     H_    0.434531 0.878234 0.792777 0.254122
H18   H     H_    0.566382 0.856854 0.747496 0.194538
H19   H     H_    0.460108 0.843957 0.677356 0.265775
O10   O     O_3   0.398451 0.704809 0.940805 -0.599873
C44   C     C_3   0.286201 0.748136 0.938071 0.150842
H20   H     H_    0.249006 0.707350 0.984543 0.103700
H21   H     H_    0.253414 0.748364 0.869176 0.155803
C45   C     C_3   0.256049 0.855989 0.968194 -0.813502
H22   H     H_    0.291250 0.899288 0.922600 0.256386
H23   H     H_    0.167717 0.890857 0.967152 0.198133
H24   H     H_    0.286278 0.858403 0.037279 0.256698
O11   O     O_3   0.314096 0.439978 0.067826 -0.564886
C46   C     C_3   0.219102 0.514772 0.039411 0.088820
H25   H     H_    0.231441 0.547262 0.973962 0.129656
H26   H     H_    0.190590 0.575514 0.089251 0.115559
C47   C     C_3   0.131946 0.467591 0.026915 -0.802370
H27   H     H_    0.116947 0.434576 0.091307 0.258682
H28   H     H_    0.056869 0.525431 0.003717 0.192382
H29   H     H_    0.156665 0.407904 0.976298 0.260812
C48   C     C_1   0.299858 0.000693 0.471436 0.216809
N4    N     N_1   0.217497 0.062223 0.462299 -0.198255
O12   O     O_3   0.416840 0.088679 0.349786 -0.601081
C49   C     C_3   0.497236 0.062762 0.284377 0.076479
H30   H     H_    0.569908 0.002811 0.309987 0.135910
H31   H     H_    0.519333 0.129269 0.263021 0.134743
C50   C     C_3   0.455530 0.023506 0.202836 -0.770993
H32   H     H_    0.434072 0.956187 0.221689 0.252308
H33   H     H_    0.518100 0.002982 0.150800 0.198953
H34   H     H_    0.383680 0.082031 0.174975 0.266672
C51   C     C_1   0.192132 0.434942 0.390737 0.267349
N5    N     N_1   0.233665 0.371664 0.342025 -0.208524
O13   O     O_3   0.833207 0.239599 0.512410 -0.586016
C52   C     C_3   0.867986 0.163914 0.447985 0.135000
H35   H     H_    0.949578 0.112841 0.465364 0.144718
H36   H     H_    0.868228 0.195838 0.379294 0.130432
C53   C     C_3   0.792495 0.102567 0.446817 -0.843567
H37   H     H_    0.711337 0.150633 0.425228 0.256085
H38   H     H_    0.821650 0.040264 0.399151 0.194706
H39   H     H_    0.788319 0.070742 0.514505 0.256542
O14   O     O_3   0.144892 0.337154 0.536515 -0.591493
C54   C     C_3   0.144394 0.351922 0.629691 0.072542
H40   H     H_    0.100084 0.308131 0.665439 0.138751
H41   H     H_    0.107566 0.432806 0.644812 0.136986
C55   C     C_3   0.258865 0.316575 0.665149 -0.748393
H42   H     H_    0.304698 0.361530 0.634408 0.276286
H43   H     H_    0.259147 0.325408 0.738783 0.200603
H44   H     H_    0.298321 0.236447 0.649411 0.260986
O15   O     O_3   0.490250 0.345172 0.969474 -0.553641
C56   C     C_3   0.598999 0.307073 0.995572 0.108481
H45   H     H_    0.627297 0.365913 0.025389 0.126782
H46   H     H_    0.649624 0.274785 0.937209 0.132579
C57   C     C_3   0.612804 0.224742 0.065840 -0.803439
H47   H     H_    0.586919 0.163741 0.038133 0.258355
H48   H     H_    0.698119 0.193510 0.086664 0.193477
H49   H     H_    0.563976 0.255534 0.125354 0.259012

loop_
_geom_bond_atom_site_label_1
_geom_bond_atom_site_label_2
_ccdc_geom_bond_type
O7    Zn1   S    
C48   N4    T    
C34   C37   S    
C43   H17   S    
C19   C20   A    
C4    C8    A    
C26   N1    A    
C45   H24   S    
C54   H40   S    
C39   H13   S    
O10   C44   S    
C6    H8    S    
C30   C35   A    
C18   C24   A    
C28   C29   A    
C18   C19   A    
C3    C7    A    
C55   H43   S    
C30   C31   A    
C44   H21   S    
C5    C36   A    
C52   H35   S    
N2    Zn1   S    
C49   C50   S    
C16   O10   S    
C22   O11   S    
C18   H2    S    
C12   O3    A    
O2    Zn2   S    
C23   O6    A    
O12   C49   S    
C16   C17   A    
C49   H31   S    
C9    C36   A    
C42   H15   S    
C31   N2    A    
C47   H28   S    
C36   H12   S    
O4    Zn2   S    
C21   C22   A    
C43   H18   S    
C11   O15   S    
C1    O2    A    
C31   H9    S    
C9    C37   A    
C45   H23   S    
C19   H3    S    
C45   H22   S    
C25   C29   A    
C38   C39   A    
C15   O9    S    
C17   C24   S    
O6    Zn2   S    
C46   H26   S    
C41   N3    T    
C53   H39   S    
C39   C40   A    
C44   H20   S    
C25   C26   A    
O11   C46   S    
C28   C48   S    
O8    Zn2   S    
C2    C4    A    
C30   O12   S    
C1    O1    A    
C57   H49   S    
C21   H4    S    
C40   O14   S    
C20   C23   S    
C49   H30   S    
C42   C43   S    
C34   O8    A    
C47   H29   S    
C32   H10   S    
O15   C56   S    
C10   C12   S    
C50   H33   S    
C57   H47   S    
C43   H19   S    
C22   C24   A    
C55   H44   S    
C8    C37   A    
C56   H46   S    
C25   H5    S    
C27   C28   A    
N1    Zn2   S    
O14   C54   S    
C13   C41   S    
C27   H7    S    
C11   C17   A    
C46   H25   S    
O1    Zn1   S    
C4    C5    A    
C46   C47   S    
C54   H41   S    
C6    C7    A    
C33   H11   S    
O13   C52   S    
C29   C35   S    
C9    H1    S    
C50   H32   S    
C10   C38   A    
C32   C33   A    
C38   O13   S    
C53   H38   S    
C2    C3    A    
C56   H45   S    
C3    C10   A    
C55   H42   S    
O3    Zn1   S    
C11   C13   A    
C44   C45   S    
C5    C6    A    
C52   H36   S    
C56   C57   S    
C34   O7    A    
C33   C35   A    
C27   N1    A    
O5    Zn1   S    
O9    C42   S    
C8    C51   S    
C54   C55   S    
C26   H6    S    
C12   O4    A    
C2    C40   A    
C23   O5    A    
C50   H34   S    
C20   C21   A    
C53   H37   S    
C51   N5    T    
C57   H48   S    
C14   C15   A    
C42   H16   S    
C1    C14   S    
C7    H14   S    
C47   H27   S    
C13   C14   A    
C32   N2    A    
C15   C16   A    
C52   C53   S    
