data_mof_unit_pretest_76.cif
_audit_creation_date              2012-12-10T17:29:23-0500
_audit_creation_method            fapswitch 2.2
_symmetry_space_group_name_H-M    P1
_symmetry_Int_Tables_number       1
_space_group_crystal_system       triclinic
_cell_length_a                    12.033956
_cell_length_b                    12.902936
_cell_length_c                    13.368367
_cell_angle_alpha                 87.196717
_cell_angle_beta                  111.85402
_cell_angle_gamma                 93.546206
_cell_volume                      1922.13840102

loop_
_atom_site_label
_atom_site_type_symbol
_atom_type_description
_atom_site_fract_x
_atom_site_fract_y
_atom_site_fract_z
_atom_type_partial_charge
C1    C     C_R   0.477808 0.300199 0.498480 0.962473
C2    C     C_R   0.602142 0.512919 0.823663 -0.227613
C3    C     C_R   0.534355 0.812532 0.505075 -0.421821
C4    C     C_R   0.565094 0.504539 0.706676 0.932380
C5    C     C_R   0.463626 0.190400 0.489458 -0.304381
C6    C     C_R   0.352568 0.042010 0.394725 0.704564
C7    C     C_R   0.360831 0.147191 0.411615 -0.422698
C8    C     C_R   0.561990 0.131110 0.546370 0.701307
C9    C     C_R   0.555818 0.025885 0.528243 -0.350821
C10   C     C_R   0.445904 0.979453 0.459454 -0.254147
C11   C     C_R   0.431116 0.871503 0.459854 0.446646
C12   C     C_R   0.542813 0.503241 0.979226 0.021688
C13   C     C_R   0.646744 0.860383 0.561693 0.464664
C14   C     C_R   0.656424 0.966129 0.577484 0.628928
C15   C     C_R   0.011063 0.597934 0.399476 -0.219332
C16   C     C_R   0.521944 0.700649 0.501286 0.967235
C17   C     C_R   0.130277 0.588939 0.408726 -0.093600
C18   C     C_R   0.155341 0.454590 0.542175 0.686739
C19   C     C_R   0.038874 0.468691 0.543333 -0.205965
C20   C     C_R   0.963993 0.537064 0.466077 -0.188716
C21   C     C_R   0.843707 0.542749 0.457284 0.630506
C22   C     C_R   0.872153 0.421988 0.602697 0.545905
C23   C     C_R   0.517099 0.531747 0.870227 -0.150526
C24   C     C_R   0.996194 0.416105 0.619261 0.314955
C25   C     C_R   0.435231 0.506799 0.292922 0.927024
C26   C     C_R   0.244541 0.530608 0.997029 -0.241495
C27   C     C_R   0.396626 0.516206 0.176135 -0.322443
C28   C     C_R   0.718108 0.486605 0.890177 0.630228
C29   C     C_R   0.742941 0.458051 0.996931 -0.413926
C30   C     C_R   0.653552 0.458017 0.041206 0.481974
C31   C     C_3   0.041982 0.291158 0.765042 0.137434
C32   C     C_3   0.029854 0.327105 0.867893 -0.265004
C33   C     C_3   0.955408 0.248763 0.909047 -0.757096
C34   C     C_R   0.454248 0.517769 0.022201 -0.077001
C35   C     C_3   0.193413 0.282770 0.535845 0.106775
C36   C     C_3   0.083053 0.216760 0.535931 -0.424570
C37   C     C_3   0.070113 0.115543 0.477320 -0.886209
C38   C     C_3   0.594640 0.684715 0.176225 0.148127
C39   C     C_3   0.695413 0.723171 0.138088 -0.334891
C40   C     C_3   0.708723 0.841523 0.135870 -0.898218
C41   C     C_3   0.779583 0.406636 0.215558 0.188455
C42   C     C_3   0.847567 0.309440 0.216021 -0.440008
C43   C     C_3   0.981839 0.335071 0.251657 -0.904979
C44   C     C_3   0.245393 0.844191 0.476367 0.193752
C45   C     C_R   0.334657 0.534658 0.953978 -0.146914
C46   C     C_3   0.285995 0.791122 0.588696 -0.474281
C47   C     C_3   0.210134 0.822057 0.650984 -0.806956
C48   C     C_R   0.311193 0.565787 0.847465 0.695834
C49   C     C_R   0.405112 0.575287 0.810597 -0.202811
C50   C     C_R   0.484849 0.530660 0.131743 0.449146
C51   C     C_R   0.274803 0.514211 0.107706 0.559576
F1    F     F_    0.186002 0.504175 0.147549 -0.658040
F2    F     F_    0.745497 0.803886 0.608989 -0.586409
F3    F     F_    0.254242 0.001954 0.314772 -0.646153
F4    F     F_    0.764709 0.009638 0.638988 -0.578557
F5    F     F_    0.662479 0.176370 0.619967 -0.588294
F6    F     F_    0.772448 0.612100 0.387496 -0.642235
F7    F     F_    0.824789 0.375405 0.671586 -0.589326
F8    F     F_    0.200615 0.595308 0.782079 -0.665830
F9    F     F_    0.805413 0.479203 0.850161 -0.620108
H1    H     H_    0.288720 0.195265 0.362106 0.198350
H2    H     H_    0.988308 0.403402 0.852819 0.312244
H3    H     H_    0.862730 0.239809 0.848464 0.326192
H4    H     H_    0.950935 0.276588 0.984729 0.250955
H5    H     H_    0.996970 0.172143 0.925914 0.250423
H6    H     H_    0.271276 0.232657 0.570463 0.191696
H7    H     H_    0.183178 0.302331 0.451059 0.140166
H8    H     H_    0.093224 0.195814 0.619732 0.247690
H9    H     H_    0.000363 0.259828 0.495517 0.206525
H10   H     H_    0.063762 0.131125 0.393096 0.274456
H11   H     H_    0.987753 0.070804 0.476009 0.287450
H12   H     H_    0.956552 0.652878 0.340797 0.192109
H13   H     H_    0.148438 0.067932 0.520149 0.249996
H14   H     H_    0.609321 0.719339 0.254881 0.208171
H15   H     H_    0.508311 0.714245 0.117577 0.090061
H16   H     H_    0.781246 0.691348 0.192664 0.247256
H17   H     H_    0.675907 0.695097 0.055759 0.209242
H18   H     H_    0.624225 0.875040 0.080243 0.263926
H19   H     H_    0.781977 0.866735 0.107241 0.279159
H20   H     H_    0.731252 0.871372 0.218003 0.271991
H21   H     H_    0.769704 0.408048 0.294637 0.161167
H22   H     H_    0.830642 0.480476 0.209846 0.146436
H23   H     H_    0.165438 0.636829 0.357618 0.212421
H24   H     H_    0.831227 0.249135 0.271944 0.226672
H25   H     H_    0.815087 0.275594 0.134695 0.251203
H26   H     H_    0.001447 0.389970 0.193184 0.306507
H27   H     H_    0.029952 0.263235 0.256785 0.269500
H28   H     H_    0.014551 0.371452 0.331341 0.247794
H29   H     H_    0.152166 0.815806 0.429667 0.165710
H30   H     H_    0.240086 0.928262 0.485087 0.139042
H31   H     H_    0.276386 0.705863 0.580453 0.262762
H32   H     H_    0.381327 0.813323 0.635789 0.212465
H33   H     H_    0.215179 0.907728 0.658544 0.245364
H34   H     H_    0.151681 0.540264 0.945727 0.234848
H35   H     H_    0.244398 0.786253 0.733297 0.295578
H36   H     H_    0.115175 0.794922 0.609274 0.296452
H37   H     H_    0.830173 0.428880 0.041389 0.194814
H38   H     H_    0.387953 0.616578 0.734907 0.172669
H39   H     H_    0.112635 0.233322 0.791078 0.136265
H40   H     H_    0.960742 0.247925 0.710701 0.199038
H41   H     H_    0.120569 0.337326 0.931493 0.197492
N1    N     N_R   0.798200 0.480260 0.519790 -0.210879
N2    N     N_R   0.201820 0.519740 0.480210 -0.172099
O1    O     O_R   0.579910 0.341070 0.505280 -0.546878
O2    O     O_3   0.219789 0.371994 0.600933 -0.584139
O3    O     O_3   0.596448 0.574975 0.191262 -0.576252
O4    O     O_3   0.662891 0.401001 0.135340 -0.609271
O5    O     O_3   0.317518 0.822358 0.416691 -0.566747
O6    O     O_R   0.388440 0.353740 0.492580 -0.651769
O7    O     O_R   0.643280 0.490550 0.663120 -0.487205
O8    O     O_R   0.451810 0.503220 0.650420 -0.627917
O9    O     O_R   0.611560 0.646260 0.507420 -0.533312
O10   O     O_R   0.420090 0.658930 0.494720 -0.625285
O11   O     O_R   0.548190 0.496780 0.349580 -0.560933
O12   O     O_R   0.356720 0.509450 0.336880 -0.575834
O13   O     O_3   0.082354 0.375365 0.713367 -0.573112
Zn1   Zn    Zn3+2 0.627850 0.491540 0.508480 1.130502
Zn2   Zn    Zn3+2 0.372150 0.508460 0.491520 0.983928

loop_
_geom_bond_atom_site_label_1
_geom_bond_atom_site_label_2
_ccdc_geom_bond_type
C26   H34   S    
C30   O4    S    
C41   C42   S    
C35   C36   S    
C16   O10   A    
C8    F5    S    
C33   H5    S    
C15   H12   S    
C12   C23   A    
O8    Zn2   S    
C1    C5    S    
C43   H28   S    
C39   H17   S    
C36   C37   S    
C25   O12   A    
C38   C39   S    
C23   C49   A    
C46   H32   S    
C18   C19   A    
C7    H1    S    
C37   H13   S    
C26   C45   A    
C1    O6    A    
C49   H38   S    
C19   C20   A    
C27   C51   A    
C8    C9    A    
C47   H36   S    
C40   H20   S    
C31   H39   S    
C9    C10   A    
C3    C13   A    
C27   C50   A    
C28   F9    S    
C14   F4    S    
C13   C14   A    
C6    F3    S    
O7    Zn1   S    
C44   C46   S    
O6    Zn2   S    
C13   F2    S    
C38   H15   S    
C44   O5    S    
C15   C20   A    
C34   C50   A    
C51   F1    S    
C42   H24   S    
C39   C40   S    
C34   C45   A    
C46   H31   S    
C35   H6    S    
C31   H40   S    
C17   H23   S    
C38   O3    S    
C2    C4    S    
C9    C14   A    
C21   F6    S    
C29   C30   A    
C35   O2    S    
C31   C32   S    
C35   H7    S    
C33   H3    S    
O12   Zn2   S    
C41   H21   S    
C47   H33   S    
C40   H19   S    
C42   H25   S    
C39   H16   S    
C1    O1    A    
C22   F7    S    
N1    Zn1   S    
C21   N1    A    
C48   C49   A    
C4    O8    A    
C24   O13   S    
C37   H11   S    
C40   H18   S    
N2    Zn2   S    
C42   C43   S    
C12   C34   A    
C31   O13   S    
C11   O5    S    
C44   H30   S    
C36   H9    S    
C16   O9    A    
C48   F8    S    
C5    C7    A    
O1    Zn1   S    
C38   H14   S    
C45   C48   A    
C15   C17   A    
C4    O7    A    
C46   C47   S    
C28   C29   A    
C41   O4    S    
C12   C30   A    
C43   H26   S    
C6    C10   A    
C5    C8    A    
C36   H8    S    
C6    C7    A    
C25   C27   S    
C22   N1    A    
C29   H37   S    
C43   H27   S    
C32   C33   S    
C19   C24   A    
C17   N2    A    
C18   O2    S    
C32   H2    S    
C26   C51   A    
O9    Zn1   S    
C33   H4    S    
C41   H22   S    
C22   C24   A    
C18   N2    A    
O11   Zn1   S    
C3    C11   A    
C10   C11   A    
C3    C16   S    
O10   Zn2   S    
C20   C21   A    
C2    C23   A    
C50   O3    S    
C47   H35   S    
C32   H41   S    
C2    C28   A    
C25   O11   A    
C37   H10   S    
C44   H29   S    
