data_mof_unit_pretest_414.cif
_audit_creation_date              2012-12-11T14:41:01-0500
_audit_creation_method            fapswitch 2.2
_symmetry_space_group_name_H-M    P1
_symmetry_Int_Tables_number       1
_space_group_crystal_system       triclinic
_cell_length_a                    6.94033
_cell_length_b                    17.285208
_cell_length_c                    19.51268
_cell_angle_alpha                 89.887609
_cell_angle_beta                  90.449934
_cell_angle_gamma                 90.739303
_cell_volume                      2340.56849946

loop_
_atom_site_label
_atom_site_type_symbol
_atom_type_description
_atom_site_fract_x
_atom_site_fract_y
_atom_site_fract_z
_atom_type_partial_charge
O1    O     O_R   0.377350 0.828520 0.186660 -0.536486
O2    O     O_R   0.622650 0.171480 0.813340 -0.531918
O3    O     O_R   0.122650 0.171480 0.686660 -0.543556
O4    O     O_R   0.877350 0.828520 0.313340 -0.541115
O5    O     O_R   0.877350 0.671480 0.313340 -0.544750
O6    O     O_R   0.122650 0.328520 0.686660 -0.532931
O7    O     O_R   0.622650 0.328520 0.813340 -0.543811
O8    O     O_R   0.377350 0.671480 0.186660 -0.532848
O9    O     O_R   0.707090 0.671930 0.178410 -0.540856
O10   O     O_R   0.292910 0.328070 0.821590 -0.529114
O11   O     O_R   0.792910 0.328070 0.678410 -0.542709
O12   O     O_R   0.207090 0.671930 0.321590 -0.530399
O13   O     O_R   0.207090 0.828070 0.321590 -0.539364
O14   O     O_R   0.792910 0.171930 0.678410 -0.529403
O15   O     O_R   0.292910 0.171930 0.821590 -0.542597
O16   O     O_R   0.707090 0.828070 0.178410 -0.532374
C1    C     C_R   0.539840 0.642522 0.163929 0.697592
C2    C     C_R   0.462044 0.355539 0.837969 0.716096
C3    C     C_R   0.959418 0.358075 0.664531 0.700765
C4    C     C_R   0.038857 0.644426 0.338039 0.712750
C5    C     C_R   0.042493 0.855971 0.337981 0.716149
C6    C     C_R   0.958641 0.144152 0.662288 0.718926
C7    C     C_R   0.458361 0.142583 0.836309 0.695068
C8    C     C_R   0.540191 0.856851 0.163137 0.712526
O17   O     O_3   0.543850 0.750000 0.294270 -0.372568
O18   O     O_3   0.456150 0.250000 0.705730 -0.368722
O19   O     O_3   0.956150 0.250000 0.794270 -0.367341
O20   O     O_3   0.043850 0.750000 0.205730 -0.363927
V1    V     V_3+5 0.818700 0.750000 0.241790 1.375965
V2    V     V_3+5 0.181300 0.250000 0.758210 1.371154
V3    V     V_3+5 0.681300 0.250000 0.741790 1.370508
V4    V     V_3+5 0.318700 0.750000 0.258210 1.375438
C9    C     C_R   0.955994 0.423888 0.613601 -0.135126
C10   C     C_R   0.036930 0.579706 0.389966 -0.128744
C11   C     C_R   0.542714 0.577021 0.112807 -0.132220
C12   C     C_R   0.465987 0.420970 0.889070 -0.130159
C13   C     C_R   0.451520 0.077899 0.888506 -0.127644
C14   C     C_R   0.537740 0.922501 0.111924 -0.130503
C15   C     C_R   0.051190 0.919743 0.391106 -0.122113
C16   C     C_R   0.952987 0.080401 0.609676 -0.129615
C17   C     C_R   0.182927 0.463410 0.441780 0.144155
C18   C     C_R   0.808236 0.540504 0.561906 0.155866
C19   C     C_R   0.323654 0.538876 0.938261 0.144143
C20   C     C_R   0.694504 0.461283 0.061997 0.154894
C21   C     C_R   0.645662 0.049992 0.067488 0.150227
C22   C     C_R   0.299084 0.960750 0.940319 0.148932
C23   C     C_R   0.790056 0.967884 0.554254 0.135912
C24   C     C_R   0.198845 0.036303 0.444092 0.116355
C25   C     C_R   0.170493 0.518309 0.387022 0.102082
C26   C     C_R   0.825178 0.487273 0.618090 0.119730
C27   C     C_R   0.333862 0.482818 0.884575 0.100310
C28   C     C_R   0.673137 0.513600 0.118380 0.123468
C29   C     C_R   0.658312 0.989745 0.117908 0.106710
C30   C     C_R   0.319364 0.013582 0.883684 0.116439
C31   C     C_R   0.809014 0.020880 0.610403 0.099469
C32   C     C_R   0.207175 0.974990 0.395673 0.109886
C33   C     C_R   0.913169 0.583571 0.445942 -0.283602
C34   C     C_R   0.070325 0.417597 0.555393 -0.275564
C35   C     C_R   0.590071 0.417546 0.945705 -0.281744
C36   C     C_R   0.432683 0.584364 0.053006 -0.275267
C37   C     C_R   0.415077 0.916074 0.054792 -0.260104
C38   C     C_R   0.558046 0.087536 0.948859 -0.270264
C39   C     C_R   0.079620 0.083907 0.554708 -0.284161
C40   C     C_R   0.909557 0.921483 0.441761 -0.288306
C41   C     C_R   0.925613 0.531623 0.502479 0.056485
C42   C     C_R   0.060395 0.470577 0.499908 0.056548
C43   C     C_R   0.577751 0.469940 0.001712 0.057693
C44   C     C_R   0.443864 0.531367 0.997684 0.059591
C45   C     C_R   0.417363 0.970659 0.000137 0.063381
C46   C     C_R   0.541131 0.036283 0.005415 0.061024
C47   C     C_R   0.067047 0.031358 0.499144 0.055462
C48   C     C_R   0.921284 0.973078 0.498470 0.066900
H1    H     H_    0.162280 0.367853 0.553647 0.148360
H2    H     H_    0.810893 0.629938 0.444639 0.149922
H3    H     H_    0.342585 0.634617 0.050186 0.145246
H4    H     H_    0.691294 0.370845 0.945509 0.148297
H5    H     H_    0.652297 0.137568 0.950837 0.141654
H6    H     H_    0.325384 0.864757 0.052662 0.141321
H7    H     H_    0.797679 0.877809 0.438063 0.147293
H8    H     H_    0.188766 0.128989 0.556318 0.160126
C49   C     C_3   0.705540 0.499908 0.682630 -0.357904
C50   C     C_3   0.790932 0.564510 0.727740 -0.802465
H9    H     H_    0.949161 0.559222 0.730295 0.238076
H10   H     H_    0.760808 0.623380 0.708786 0.218643
H11   H     H_    0.729400 0.560392 0.779980 0.222905
H12   H     H_    0.553143 0.512024 0.669374 0.175629
H13   H     H_    0.694332 0.447898 0.714907 0.183413
C51   C     C_3   0.297960 0.511433 0.324580 -0.372849
C52   C     C_3   0.492626 0.552703 0.336093 -0.657232
H14   H     H_    0.480647 0.603778 0.369946 0.233020
H15   H     H_    0.601046 0.513585 0.358664 0.190947
H16   H     H_    0.547143 0.574046 0.286724 0.214050
H17   H     H_    0.317229 0.450025 0.310672 0.171695
H18   H     H_    0.226044 0.535729 0.278416 0.162646
C53   C     C_3   0.785972 0.499428 0.184746 -0.358964
C54   C     C_3   0.695941 0.433045 0.226221 -0.800660
H19   H     H_    0.538846 0.441372 0.229707 0.236782
H20   H     H_    0.716700 0.375547 0.202976 0.218927
H21   H     H_    0.760747 0.431712 0.278400 0.223889
H22   H     H_    0.940052 0.488358 0.174311 0.174310
H23   H     H_    0.792369 0.550297 0.218403 0.182027
C55   C     C_3   0.203018 0.488133 0.822168 -0.370630
C56   C     C_3   0.007755 0.448640 0.836062 -0.660649
H24   H     H_    0.022044 0.397004 0.869403 0.234040
H25   H     H_    0.906243 0.488422 0.860919 0.190791
H26   H     H_    0.943385 0.428704 0.787393 0.215021
H27   H     H_    0.186269 0.549038 0.805964 0.169700
H28   H     H_    0.270065 0.461504 0.776605 0.164948
C57   C     C_3   0.205729 0.998791 0.817495 -0.359879
C58   C     C_3   0.293916 0.933031 0.776163 -0.799643
H29   H     H_    0.451433 0.942275 0.772740 0.234977
H30   H     H_    0.270547 0.875432 0.799629 0.221879
H31   H     H_    0.229715 0.931584 0.723879 0.223907
H32   H     H_    0.051189 0.987216 0.828105 0.174103
H33   H     H_    0.200854 0.049603 0.783649 0.181954
C59   C     C_3   0.802007 0.998596 0.176884 -0.369265
C60   C     C_3   0.009397 0.000241 0.150487 -0.763162
H34   H     H_    0.020403 0.021404 0.096965 0.231212
H35   H     H_    0.096780 0.040923 0.181732 0.213864
H36   H     H_    0.070944 0.941353 0.152894 0.233645
H37   H     H_    0.771444 0.052091 0.205987 0.164722
H38   H     H_    0.790089 0.952959 0.216361 0.186217
C61   C     C_3   0.386804 0.969210 0.351699 -0.341094
C62   C     C_3   0.346152 0.994541 0.278785 -0.774237
H39   H     H_    0.282775 0.053113 0.278082 0.212803
H40   H     H_    0.481464 0.996643 0.249906 0.202390
H41   H     H_    0.247307 0.952750 0.253724 0.241670
H42   H     H_    0.507164 0.005263 0.371615 0.186805
H43   H     H_    0.450009 0.910828 0.353791 0.195828
C63   C     C_3   0.679804 0.012912 0.672389 -0.374391
C64   C     C_3   0.489968 0.055952 0.661846 -0.652463
H44   H     H_    0.507545 0.107625 0.628705 0.232802
H45   H     H_    0.376753 0.018145 0.639123 0.191455
H46   H     H_    0.438507 0.076508 0.711683 0.214490
H47   H     H_    0.653077 0.951130 0.684465 0.172054
H48   H     H_    0.753989 0.034986 0.719205 0.162919
C65   C     C_3   0.332406 0.399185 0.439369 -0.355452
C66   C     C_3   0.243445 0.323807 0.412774 -0.793763
H49   H     H_    0.131803 0.301412 0.448323 0.225618
H50   H     H_    0.176581 0.332796 0.361534 0.227274
H51   H     H_    0.358399 0.280215 0.407782 0.224660
H52   H     H_    0.456689 0.413918 0.406879 0.190556
H53   H     H_    0.402860 0.390467 0.489936 0.173345
C67   C     C_3   0.659212 0.605148 0.563617 -0.377932
C68   C     C_3   0.476099 0.581145 0.525677 -0.779018
H54   H     H_    0.511606 0.552974 0.476795 0.240042
H55   H     H_    0.393200 0.539292 0.557394 0.230496
H56   H     H_    0.385451 0.632418 0.515419 0.224005
H57   H     H_    0.614088 0.622248 0.615043 0.197250
H58   H     H_    0.719663 0.659937 0.543168 0.169540
C69   C     C_3   0.181635 0.605667 0.932598 -0.354450
C70   C     C_3   0.280993 0.678541 0.905253 -0.787938
H59   H     H_    0.387003 0.701723 0.943083 0.225734
H60   H     H_    0.356549 0.665896 0.856642 0.228291
H61   H     H_    0.171050 0.723059 0.894548 0.214869
H62   H     H_    0.057398 0.592534 0.898944 0.189177
H63   H     H_    0.109265 0.617071 0.981904 0.172499
C71   C     C_3   0.850112 0.399005 0.064247 -0.382466
C72   C     C_3   0.031092 0.427062 0.028068 -0.769083
H64   H     H_    0.994204 0.451143 0.977294 0.238346
H65   H     H_    0.102436 0.473135 0.059027 0.230624
H66   H     H_    0.132774 0.378570 0.021638 0.224619
H67   H     H_    0.895818 0.381752 0.116010 0.194729
H68   H     H_    0.797634 0.343458 0.042646 0.169964
C73   C     C_3   0.734123 0.130491 0.081166 -0.365711
C74   C     C_3   0.576599 0.189873 0.093380 -0.777901
H69   H     H_    0.490140 0.199947 0.046224 0.229967
H70   H     H_    0.479369 0.169476 0.134821 0.230074
H71   H     H_    0.642846 0.245701 0.109618 0.209537
H72   H     H_    0.829961 0.133322 0.126392 0.198843
H73   H     H_    0.830422 0.149063 0.039029 0.164564
C75   C     C_3   0.147857 0.895037 0.938082 -0.381336
C76   C     C_3   0.974012 0.911883 0.982843 -0.750228
H74   H     H_    0.008992 0.902606 0.037516 0.237327
H75   H     H_    0.925264 0.972132 0.974534 0.231008
H76   H     H_    0.853198 0.871767 0.969464 0.219087
H77   H     H_    0.088336 0.883133 0.886825 0.194391
H78   H     H_    0.213439 0.839379 0.952790 0.170080
C77   C     C_3   0.629630 0.906301 0.553505 -0.351963
C78   C     C_3   0.704503 0.827485 0.576042 -0.790210
H79   H     H_    0.818273 0.806846 0.541165 0.225917
H80   H     H_    0.764778 0.830947 0.628850 0.226387
H81   H     H_    0.583574 0.784810 0.575736 0.218846
H82   H     H_    0.508019 0.920721 0.586817 0.190749
H83   H     H_    0.559155 0.902624 0.502385 0.168544
C79   C     C_3   0.318113 0.110310 0.433597 -0.369403
C80   C     C_3   0.506036 0.111369 0.475225 -0.780134
H84   H     H_    0.530281 0.169357 0.498387 0.220035
H85   H     H_    0.500749 0.067643 0.516572 0.240081
H86   H     H_    0.631027 0.098805 0.442113 0.223105
H87   H     H_    0.350554 0.120512 0.378762 0.187959
H88   H     H_    0.229545 0.160829 0.447264 0.174289

loop_
_geom_bond_atom_site_label_1
_geom_bond_atom_site_label_2
_ccdc_geom_bond_type
C75   H77   S    
C73   H73   S    
C65   H52   S    
C9    C34   A    
O7    C2    A    
C20   C71   S    
C38   H5    S    
C53   C54   S    
O14   V3    S    
C12   C35   A    
C68   H54   S    
C61   C62   S    
O5    C4    A    
C76   H74   S    
C78   H79   S    
C27   C55   S    
C15   C40   A    
O11   C3    A    
C73   C74   S    
C16   C39   A    
C59   H38   S    
C69   H63   S    
C23   C31   A    
O20   V1    S    
C60   H35   S    
C75   H78   S    
C54   H21   S    
C59   C60   S    
C38   C46   A    
C28   C53   S    
C79   H87   S    
C58   H29   S    
C80   H86   S    
C67   H58   S    
O13   V4    S    
C35   C43   A    
C34   C42   A    
C63   H47   S    
C19   C44   A    
C22   C45   A    
C54   H20   S    
C18   C41   A    
C23   C77   S    
C69   C70   S    
C72   H65   S    
C55   H28   S    
C52   H15   S    
C17   C65   S    
O4    V1    S    
O1    C8    A    
C29   C59   S    
C71   H68   S    
C14   C37   A    
C4    C10   S    
C20   C28   A    
O17   V4    S    
O15   C7    A    
C65   H53   S    
O11   V3    S    
O18   V3    S    
O16   C8    A    
O12   V4    S    
O19   V2    S    
C74   H70   S    
C25   C51   S    
O12   C4    A    
C45   C46   A    
C64   H46   S    
C17   C25   A    
C68   H55   S    
C78   H80   S    
C49   C50   S    
O5    V1    S    
C39   H8    S    
C76   H75   S    
O17   V1    S    
C51   H18   S    
O7    V3    S    
C59   H37   S    
C20   C43   A    
O19   V3    S    
C43   C44   A    
O8    V4    S    
C32   C61   S    
O20   V4    S    
C3    C9    S    
C60   H36   S    
C53   H22   S    
O16   V1    S    
C7    C13   S    
C34   H1    S    
O1    V4    S    
C30   C57   S    
C11   C36   A    
C33   H2    S    
O3    V2    S    
C24   C79   S    
C67   H57   S    
O6    C3    A    
C10   C33   A    
O10   V2    S    
C8    C14   S    
C72   H64   S    
C5    C15   S    
C70   H61   S    
C37   H6    S    
C31   C63   S    
C6    C16   S    
C54   H19   S    
C22   C30   A    
C72   H66   S    
O13   C5    A    
C55   H27   S    
C56   H25   S    
C15   C32   A    
C69   H62   S    
C51   C52   S    
C52   H16   S    
C58   H31   S    
C49   H13   S    
C12   C27   A    
C66   H50   S    
C71   H67   S    
C18   C26   A    
C62   H41   S    
C13   C30   A    
C57   H32   S    
O9    C1    A    
O6    V2    S    
C70   H60   S    
O18   V2    S    
C50   H10   S    
C18   C67   S    
C74   H69   S    
C40   H7    S    
C24   C47   A    
C64   H44   S    
C52   H14   S    
C11   C28   A    
C68   H56   S    
C19   C69   S    
C75   C76   S    
O15   V2    S    
C62   H40   S    
C77   H82   S    
C76   H76   S    
C37   C45   A    
C73   H72   S    
C24   C32   A    
C51   H17   S    
C10   C25   A    
C21   C46   A    
C63   H48   S    
C49   H12   S    
C33   C41   A    
C67   C68   S    
C64   H45   S    
C66   H51   S    
C16   C31   A    
C78   H81   S    
C17   C42   A    
C77   H83   S    
O9    V1    S    
C50   H11   S    
C65   C66   S    
C36   H3    S    
O8    C1    A    
O14   C6    A    
C63   C64   S    
C9    C26   A    
C47   C48   A    
C41   C42   A    
C57   C58   S    
O4    C5    A    
C19   C27   A    
C61   H42   S    
C71   C72   S    
C14   C29   A    
C2    C12   S    
O10   C2    A    
C35   H4    S    
C22   C75   S    
C56   H26   S    
O2    C7    A    
C40   C48   A    
C79   H88   S    
C55   C56   S    
C58   H30   S    
C23   C48   A    
C80   H85   S    
C66   H49   S    
C57   H33   S    
C21   C29   A    
C77   C78   S    
C80   H84   S    
C70   H59   S    
C36   C44   A    
C74   H71   S    
C50   H9    S    
C56   H24   S    
C13   C38   A    
O2    V3    S    
O3    C6    A    
C1    C11   S    
C79   C80   S    
C60   H34   S    
C21   C73   S    
C39   C47   A    
C61   H43   S    
C53   H23   S    
C26   C49   S    
C62   H39   S    
