data_mof_unit_pretest_1553.cif
_audit_creation_date              2012-12-10T18:16:21-0500
_audit_creation_method            fapswitch 2.2
_symmetry_space_group_name_H-M    P1
_symmetry_Int_Tables_number       1
_space_group_crystal_system       triclinic
_cell_length_a                    42.351131
_cell_length_b                    29.208005
_cell_length_c                    29.202535
_cell_angle_alpha                 90.0
_cell_angle_beta                  133.785387
_cell_angle_gamma                 89.99991
_cell_volume                      26078.7397

loop_
_atom_site_label
_atom_site_type_symbol
_atom_type_description
_atom_site_fract_x
_atom_site_fract_y
_atom_site_fract_z
_atom_type_partial_charge
C1    C     C_R   0.499975 0.586678 0.499995 0.908366
C2    C     C_1   0.834726 0.999988 0.337624 -0.053465
C3    C     C_3   0.760579 0.962652 0.244305 -0.023831
C4    C     C_1   0.372671 0.499993 0.373837 -0.186327
C5    C     C_1   0.872671 0.999994 0.373837 -0.186327
C6    C     C_1   0.121067 0.499999 0.123375 -0.185574
C7    C     C_1   0.621067 0.999999 0.123375 -0.185574
C8    C     C_3   0.261892 0.499904 0.310972 0.105578
C9    C     C_3   0.761892 0.999922 0.310972 0.105578
C10   C     C_3   0.289212 0.499984 0.294193 0.036043
C11   C     C_3   0.789212 0.999986 0.294193 0.036043
C12   C     C_1   0.277014 0.578131 0.237007 0.186976
C13   C     C_1   0.158986 0.499995 0.163918 -0.032934
C14   C     C_1   0.277000 0.422010 0.236697 0.186988
C15   C     C_1   0.777013 0.078116 0.236976 0.186977
C16   C     C_1   0.777001 0.921995 0.236728 0.186987
C17   C     C_1   0.216130 0.578678 0.266662 0.173036
C18   C     C_1   0.216116 0.421133 0.266350 0.173039
C19   C     C_1   0.716129 0.078696 0.266630 0.173037
C20   C     C_1   0.716117 0.921152 0.266381 0.173039
C21   C     C_3   0.282283 0.499810 0.379316 -0.407546
C22   C     C_3   0.247728 0.499745 0.382335 -0.828729
C23   C     C_3   0.782283 0.999847 0.379316 -0.407546
C24   C     C_1   0.658986 0.999996 0.163918 -0.032934
C25   C     C_3   0.747728 0.999796 0.382335 -0.828729
C26   C     C_1   0.499957 0.637262 0.499952 -0.215863
C27   C     C_1   0.499957 0.362738 0.499952 -0.215874
C28   C     C_1   0.999957 0.137262 0.499952 -0.215864
C29   C     C_1   0.999957 0.862738 0.499952 -0.215873
C30   C     C_1   0.499947 0.679400 0.499935 0.009788
C31   C     C_1   0.499947 0.320600 0.499934 0.009779
C32   C     C_1   0.999947 0.179400 0.499935 0.009787
C33   C     C_R   0.499975 0.413322 0.499995 0.908370
C34   C     C_1   0.999946 0.820600 0.499934 0.009780
C35   C     C_1   0.499941 0.729137 0.499931 0.011918
C36   C     C_1   0.499941 0.270863 0.499931 0.011912
C37   C     C_1   0.999941 0.229137 0.499931 0.011917
C38   C     C_1   0.999941 0.770863 0.499931 0.011912
C39   C     C_1   0.499941 0.771274 0.499938 0.011028
C40   C     C_1   0.499941 0.228726 0.499938 0.011024
C41   C     C_1   0.999941 0.271274 0.499938 0.011028
C42   C     C_1   0.999941 0.728726 0.499938 0.011025
C43   C     C_1   0.499945 0.821011 0.499952 0.008469
C44   C     C_R   0.999975 0.086678 0.499995 0.908366
C45   C     C_1   0.499945 0.178989 0.499952 0.008467
C46   C     C_1   0.999945 0.321011 0.499952 0.008469
C47   C     C_1   0.999945 0.678989 0.499952 0.008467
C48   C     C_1   0.499950 0.863150 0.499967 -0.209842
C49   C     C_1   0.499950 0.136850 0.499966 -0.209844
C50   C     C_1   0.999950 0.363150 0.499967 -0.209843
C51   C     C_1   0.999950 0.636850 0.499966 -0.209844
C52   C     C_R   0.417149 0.500002 0.417418 0.952491
C53   C     C_R   0.917149 0.000002 0.417418 0.952491
C54   C     C_1   0.635845 0.500000 0.635406 -0.218194
C55   C     C_R   0.999975 0.913322 0.499995 0.908370
C56   C     C_1   0.135846 0.000000 0.635406 -0.218194
C57   C     C_1   0.677114 0.500000 0.676646 0.019352
C58   C     C_1   0.177114 0.000000 0.676646 0.019352
C59   C     C_1   0.726261 0.500000 0.725869 0.005972
C60   C     C_1   0.226261 0.000000 0.725869 0.005972
C61   C     C_1   0.767531 0.500000 0.767238 0.005983
C62   C     C_1   0.267531 0.000000 0.767238 0.005983
C63   C     C_1   0.816678 0.500000 0.816520 0.019391
C64   C     C_1   0.316678 0.000000 0.816520 0.019391
C65   C     C_1   0.857947 0.500000 0.857903 -0.218178
C66   C     C_3   0.204483 0.499990 0.210785 0.062364
C67   C     C_1   0.357947 0.000000 0.857903 -0.218178
C68   C     C_R   0.994879 0.500000 0.081697 0.911395
C69   C     C_R   0.494879 1.000000 0.081697 0.911395
C70   C     C_R   0.076668 0.500000 0.075696 0.947480
C71   C     C_R   0.576668 1.000000 0.075696 0.947480
C72   C     C_R   0.992976 0.500000 0.906346 0.903666
C73   C     C_R   0.492976 0.000000 0.906346 0.903665
C74   C     C_R   0.907984 0.500000 0.908062 0.888977
C75   C     C_R   0.407984 0.000000 0.908062 0.888977
C76   C     C_R   0.585811 0.500000 0.585664 0.889223
C77   C     C_3   0.704483 0.999991 0.210785 0.062364
C78   C     C_R   0.085811 0.000000 0.585664 0.889223
C79   C     C_R   0.499104 0.000000 0.412918 0.896791
C80   C     C_R   0.999104 0.500000 0.412918 0.896790
C81   C     C_R   0.499957 0.913734 0.499983 0.896483
C82   C     C_R   0.499957 0.086266 0.499983 0.896482
C83   C     C_R   0.999957 0.413734 0.499983 0.896483
C84   C     C_R   0.999957 0.586266 0.499983 0.896482
C85   C     C_R   0.500743 0.000000 0.587026 0.896252
C86   C     C_R   0.000743 0.500000 0.587026 0.896252
C87   C     C_1   0.995660 0.500000 0.133049 -0.216182
C88   C     C_3   0.231564 0.500071 0.193498 -0.247573
C89   C     C_1   0.495660 0.000000 0.133049 -0.216182
C90   C     C_1   0.996324 0.500000 0.175846 0.009380
C91   C     C_1   0.496324 0.000000 0.175846 0.009380
C92   C     C_1   0.997096 0.500000 0.226341 0.011414
C93   C     C_1   0.497096 0.000000 0.226341 0.011414
C94   C     C_1   0.497715 0.000000 0.269093 0.010598
C95   C     C_1   0.997715 0.500000 0.269093 0.010598
C96   C     C_1   0.498373 0.000000 0.319477 0.008099
C97   C     C_1   0.998373 0.500000 0.319477 0.008099
C98   C     C_1   0.498815 0.000000 0.362054 -0.210035
C99   C     C_3   0.731564 0.000056 0.193498 -0.247572
C100  C     C_1   0.998815 0.500000 0.362054 -0.210035
C101  C     C_1   0.994011 0.500000 0.856784 -0.217170
C102  C     C_1   0.494011 1.000000 0.856784 -0.217170
C103  C     C_3   0.232947 0.537555 0.260566 -0.016378
C104  C     C_3   0.232941 0.462339 0.260416 -0.016390
C105  C     C_3   0.732947 0.037565 0.260551 -0.016379
C106  C     C_3   0.732941 0.962349 0.260431 -0.016389
C107  C     C_1   0.995220 0.500000 0.815857 0.007743
C108  C     C_1   0.495220 1.000000 0.815857 0.007743
C109  C     C_1   0.996827 0.500000 0.767733 0.010202
C110  C     C_1   0.334726 0.499987 0.337624 -0.053466
C111  C     C_1   0.496827 1.000000 0.767733 0.010202
C112  C     C_1   0.498183 1.000000 0.726960 0.009883
C113  C     C_1   0.998183 0.500000 0.726960 0.009883
C114  C     C_1   0.499621 0.000000 0.678660 0.007922
C115  C     C_1   0.999621 0.500000 0.678660 0.007922
C116  C     C_1   0.500489 0.000000 0.637383 -0.210497
C117  C     C_1   0.000489 0.500000 0.637383 -0.210497
C118  C     C_3   0.260585 0.537396 0.244439 -0.023823
C119  C     C_3   0.260578 0.462658 0.244290 -0.023831
C120  C     C_3   0.760585 0.037389 0.244424 -0.023824
H1    H     H_    0.217923 0.500140 0.144561 0.160721
H2    H     H_    0.764110 0.999740 0.432702 0.251434
H3    H     H_    0.803231 0.968996 0.404027 0.215723
H4    H     H_    0.803240 0.030681 0.404128 0.215728
H5    H     H_    0.717923 0.000110 0.144560 0.160720
H6    H     H_    0.226852 0.530717 0.359082 0.264448
H7    H     H_    0.226839 0.468791 0.358949 0.264449
H8    H     H_    0.264110 0.499675 0.432702 0.251435
H9    H     H_    0.303231 0.468957 0.404014 0.215722
H10   H     H_    0.303240 0.530642 0.404140 0.215729
H11   H     H_    0.726852 0.030767 0.359069 0.264448
H12   H     H_    0.726840 0.968841 0.358961 0.264449
N1    N     N_1   0.289980 0.610229 0.231184 -0.192899
N2    N     N_1   0.289959 0.389981 0.230747 -0.192887
N3    N     N_1   0.789978 0.110207 0.231140 -0.192898
N4    N     N_1   0.789961 0.889958 0.230790 -0.192888
N5    N     N_1   0.202874 0.611072 0.271448 -0.194809
N6    N     N_1   0.202854 0.388674 0.271008 -0.194805
N7    N     N_1   0.702873 0.111097 0.271403 -0.194808
N8    N     N_1   0.702856 0.888699 0.271052 -0.194805
O1    O     O_R   0.500400 0.563130 0.536080 -0.597410
O2    O     O_R   0.963990 0.500000 0.400890 -0.592569
O3    O     O_R   0.534410 0.000000 0.471310 -0.593448
O4    O     O_R   0.034410 0.500000 0.471310 -0.593448
O5    O     O_R   0.464750 0.936830 0.464780 -0.592566
O6    O     O_R   0.464750 0.063170 0.464780 -0.592568
O7    O     O_R   0.964750 0.436830 0.464780 -0.592567
O8    O     O_R   0.964750 0.563170 0.464780 -0.592568
O9    O     O_R   0.535170 0.936820 0.535200 -0.593414
O10   O     O_R   0.535170 0.063180 0.535200 -0.593413
O11   O     O_R   0.035170 0.436820 0.535200 -0.593414
O12   O     O_R   0.500400 0.436870 0.536080 -0.597414
O13   O     O_R   0.035170 0.563180 0.535200 -0.593413
O14   O     O_R   0.465520 0.000000 0.528690 -0.592891
O15   O     O_R   0.965520 0.500000 0.528690 -0.592891
O16   O     O_R   0.535930 0.000000 0.599110 -0.593013
O17   O     O_R   0.035930 0.500000 0.599110 -0.593013
O18   O     O_R   0.499540 0.563080 0.463930 -0.595207
O19   O     O_R   0.499540 0.436920 0.463930 -0.595199
O20   O     O_R   0.999540 0.063080 0.463930 -0.595207
O21   O     O_R   0.999540 0.936920 0.463930 -0.595200
O22   O     O_R   0.438030 0.500000 0.473700 -0.617891
O23   O     O_R   0.000400 0.063130 0.536080 -0.597410
O24   O     O_R   0.938030 0.000000 0.473700 -0.617891
O25   O     O_R   0.437170 0.500000 0.401550 -0.608184
O26   O     O_R   0.937170 0.000000 0.401550 -0.608184
O27   O     O_R   0.562760 0.500000 0.598450 -0.591478
O28   O     O_R   0.062760 0.000000 0.598450 -0.591478
O29   O     O_R   0.561900 0.500000 0.526300 -0.591527
O30   O     O_R   0.061900 1.000000 0.526300 -0.591527
O31   O     O_R   0.994600 0.535610 0.057840 -0.595080
O32   O     O_R   0.994600 0.464390 0.057840 -0.595084
O33   O     O_R   0.494600 0.035610 0.057840 -0.595080
O34   O     O_R   0.000400 0.936870 0.536080 -0.597414
O35   O     O_R   0.494600 0.964390 0.057840 -0.595084
O36   O     O_R   0.056200 0.535620 0.056290 -0.610550
O37   O     O_R   0.056200 0.464380 0.056290 -0.610542
O38   O     O_R   0.556200 0.035620 0.056290 -0.610549
O39   O     O_R   0.556200 0.964380 0.056290 -0.610543
O40   O     O_R   0.993060 0.535640 0.930020 -0.597159
O41   O     O_R   0.993060 0.464360 0.930020 -0.597153
O42   O     O_R   0.493060 0.035640 0.930020 -0.597159
O43   O     O_R   0.493060 0.964360 0.930020 -0.597153
O44   O     O_R   0.931470 0.535630 0.931560 -0.591553
O45   O     O_R   0.931470 0.464370 0.931560 -0.591552
O46   O     O_R   0.431470 0.035630 0.931560 -0.591553
O47   O     O_R   0.431470 0.964370 0.931560 -0.591552
O48   O     O_R   0.463990 0.000000 0.400890 -0.592569
Zn1   Zn    Zn3+2 0.500540 0.500000 0.548170 0.972372
Zn2   Zn    Zn3+2 0.952950 0.500000 0.452980 0.977096
Zn3   Zn    Zn3+2 0.546980 0.000000 0.547020 0.974511
Zn4   Zn    Zn3+2 0.046980 0.500000 0.547020 0.974511
Zn5   Zn    Zn3+2 0.000540 0.000000 0.548170 0.972372
Zn6   Zn    Zn3+2 0.499390 0.500000 0.451830 0.981524
Zn7   Zn    Zn3+2 0.999390 0.000000 0.451830 0.981524
Zn8   Zn    Zn3+2 0.993830 0.547580 0.993940 0.980088
Zn9   Zn    Zn3+2 0.993830 0.452420 0.993940 0.980097
Zn10  Zn    Zn3+2 0.493830 0.047580 0.993940 0.980089
Zn11  Zn    Zn3+2 0.493830 0.952420 0.993940 0.980097
Zn12  Zn    Zn3+2 0.452950 0.000000 0.452980 0.977096

loop_
_geom_bond_atom_site_label_1
_geom_bond_atom_site_label_2
_ccdc_geom_bond_type
C101  C107  T    
O19   Zn6   S    
C63   C65   T    
C93   C94   T    
C79   C98   S    
C111  C112  T    
O42   Zn10  S    
C3    C11   S    
O41   Zn9   S    
O25   Zn6   S    
C112  C114  S    
C99   H5    S    
C15   C120  S    
O18   Zn6   S    
C30   C35   S    
C4    C52   S    
C71   O38   A    
C5    C53   S    
C77   C106  S    
C72   O41   A    
C38   C42   T    
C66   C88   S    
O30   Zn7   S    
C73   O43   A    
C68   O31   A    
C22   H6    S    
C74   O44   A    
C72   C101  S    
O48   Zn12  S    
O7    Zn2   S    
C58   C60   S    
C7    C24   T    
O2    Zn2   S    
C78   O30   A    
C56   C78   S    
C48   C81   S    
O21   Zn7   S    
C76   O27   A    
C60   C62   T    
C71   O39   A    
C61   C63   S    
C62   C64   S    
C10   C119  S    
C99   C120  S    
C22   H8    S    
C25   H12   S    
C79   O3    A    
C80   O4    A    
C96   C98   T    
C41   C46   S    
C105  C120  S    
C102  C108  T    
C44   O23   A    
C89   C91   T    
C25   H2    S    
C20   C106  S    
O40   Zn8   S    
C109  C113  T    
C85   O14   A    
C74   O45   A    
C8    C103  S    
O38   Zn10  S    
O37   Zn9   S    
C21   C22   S    
C80   C100  S    
O6    Zn12  S    
C107  C109  S    
C69   O33   A    
C69   C89   S    
C11   C120  S    
C28   C32   T    
C82   O6    A    
C50   C83   S    
C83   O11   A    
C13   C66   S    
C84   O8    A    
C3    C106  S    
O8    Zn2   S    
C40   C45   S    
O27   Zn1   S    
C59   C61   T    
O9    Zn3   S    
C79   O48   A    
C9    C105  S    
C27   C31   T    
C103  C118  S    
C64   C67   T    
C66   C104  S    
C36   C40   T    
O1    Zn1   S    
O26   Zn7   S    
C55   O21   A    
O5    Zn12  S    
O24   Zn5   S    
C9    C23   S    
C39   C43   S    
C14   N2    T    
C115  C117  T    
C9    C106  S    
O44   Zn8   S    
O4    Zn4   S    
C29   C34   T    
C28   C44   S    
C92   C95   T    
O43   Zn11  S    
C65   C74   S    
O47   Zn11  S    
C85   O16   A    
C49   C82   S    
C77   C99   S    
C35   C39   T    
C86   O15   A    
C55   O34   A    
O12   Zn1   S    
C10   C118  S    
O15   Zn2   S    
C47   C51   T    
C52   O25   A    
C91   C93   S    
O14   Zn12  S    
C84   O13   A    
C53   O26   A    
C90   C92   S    
C45   C49   T    
C21   H9    S    
C8    C21   S    
O32   Zn9   S    
C53   O24   A    
C18   C104  S    
C32   C37   S    
O36   Zn8   S    
C88   C119  S    
C94   C96   S    
C8    C104  S    
O35   Zn11  S    
C82   O10   A    
O20   Zn7   S    
C83   O7    A    
C19   C105  S    
C8    C10   S    
C73   C102  S    
C12   C118  S    
C44   O20   A    
C18   N6    T    
C26   C30   T    
C81   O5    A    
C12   N1    T    
C9    C11   S    
C1    C26   S    
O10   Zn3   S    
C54   C76   S    
C75   O46   A    
C67   C75   S    
C72   O40   A    
C88   C118  S    
C16   N4    T    
C97   C100  T    
C43   C48   T    
C6    C70   S    
C4    C110  T    
C1    O18   A    
C80   O2    A    
O33   Zn10  S    
C34   C38   S    
C66   C103  S    
C85   C116  S    
C75   O47   A    
O31   Zn8   S    
C88   H1    S    
C33   O12   A    
C57   C59   S    
C23   H3    S    
C114  C116  T    
C95   C97   S    
C70   O37   A    
O29   Zn6   S    
C29   C55   S    
C46   C50   T    
C78   O28   A    
C108  C111  S    
O28   Zn5   S    
C104  C119  S    
C77   C105  S    
C17   C103  S    
O17   Zn4   S    
O11   Zn4   S    
C6    C13   T    
C7    C71   S    
C73   O42   A    
C68   O32   A    
C17   N5    T    
C20   N8    T    
C22   H7    S    
O39   Zn11  S    
O23   Zn5   S    
C81   O9    A    
C56   C58   T    
C10   C110  S    
C86   C117  S    
C42   C47   S    
C23   C25   S    
C37   C41   T    
C76   O29   A    
C86   O17   A    
C21   H10   S    
C1    O1    A    
C2    C5    T    
O16   Zn3   S    
C3    C99   S    
C24   C77   S    
C15   N3    T    
O34   Zn5   S    
C19   N7    T    
C14   C119  S    
C87   C90   T    
C27   C33   S    
C68   C87   S    
O3    Zn3   S    
C31   C36   S    
O46   Zn10  S    
C2    C11   S    
C69   O35   A    
O45   Zn9   S    
C23   H4    S    
C70   O36   A    
C51   C84   S    
O13   Zn4   S    
O22   Zn1   S    
C3    C16   S    
C33   O19   A    
C52   O22   A    
C113  C115  S    
C54   C57   T    
C25   H11   S    
