data_mof_unit_pretest_280.cif
_audit_creation_date              2012-12-10T18:23:00-0500
_audit_creation_method            fapswitch 2.2
_symmetry_space_group_name_H-M    P1
_symmetry_Int_Tables_number       1
_space_group_crystal_system       triclinic
_cell_length_a                    14.917347
_cell_length_b                    14.026984
_cell_length_c                    10.487983
_cell_angle_alpha                 89.947282
_cell_angle_beta                  89.788656
_cell_angle_gamma                 90.12195
_cell_volume                      2194.54122345

loop_
_atom_site_label
_atom_site_type_symbol
_atom_type_description
_atom_site_fract_x
_atom_site_fract_y
_atom_site_fract_z
_atom_type_partial_charge
C1    C     C_R   0.326775 0.499949 0.500290 0.879569
C2    C     C_R   0.953534 0.630941 0.347163 -0.318983
C3    C     C_R   0.559662 0.798378 0.424642 -0.061126
C4    C     C_R   0.440220 0.201618 0.575178 -0.060359
C5    C     C_R   0.440122 0.798011 0.575014 -0.062485
C6    C     C_R   0.559634 0.201980 0.424608 -0.051667
C7    C     C_R   0.438546 0.898636 0.576609 0.013068
C8    C     C_R   0.561032 0.101351 0.422742 0.013594
C9    C     C_R   0.561036 0.899016 0.422738 0.015144
C10   C     C_R   0.438618 0.100975 0.576732 0.015660
C11   C     C_R   0.499788 0.949399 0.499673 0.085683
C12   C     C_R   0.673200 0.500168 0.499813 0.875104
C13   C     C_R   0.499806 0.050590 0.499706 0.084370
C14   C     C_R   0.377538 0.949494 0.652979 -0.208568
C15   C     C_R   0.621891 0.050490 0.346133 -0.200246
C16   C     C_R   0.621904 0.950254 0.346148 -0.206531
C17   C     C_R   0.377595 0.049731 0.653075 -0.204794
C18   C     C_R   0.500278 0.500175 0.257157 0.863433
C19   C     C_R   0.500210 0.499818 0.742837 0.861187
C20   C     C_3   0.501108 0.590944 0.040270 -0.133875
C21   C     C_3   0.500052 0.409002 0.959702 -0.138329
C22   C     C_3   0.574645 0.544691 0.957177 -0.184245
C23   C     C_R   0.953277 0.506597 0.510469 -0.003735
C24   C     C_3   0.426510 0.455247 0.042757 -0.177864
C25   C     C_3   0.426996 0.545320 0.958075 -0.180189
C26   C     C_3   0.574164 0.454626 0.041943 -0.188993
C27   C     C_3   0.500511 0.499223 0.877716 0.030408
C28   C     C_3   0.500594 0.500730 0.122267 0.033388
C29   C     C_R   0.814338 0.565504 0.424469 -0.223024
C30   C     C_R   0.185620 0.439069 0.583897 -0.224802
C31   C     C_R   0.768619 0.501209 0.502254 -0.068335
C32   C     C_R   0.231282 0.500516 0.501964 -0.067834
C33   C     C_R   0.813286 0.440699 0.585818 -0.248099
C34   C     C_R   0.046561 0.506564 0.509769 -0.004451
C35   C     C_R   0.186468 0.565477 0.424814 -0.247038
C36   C     C_R   0.906173 0.444152 0.593128 0.005825
C37   C     C_R   0.093584 0.569357 0.427527 0.004638
C38   C     C_3   0.880037 0.382961 0.873400 0.059031
C39   C     C_3   0.951666 0.383537 0.977893 -0.356951
C40   C     C_3   0.918715 0.435329 0.097223 -0.924841
C41   C     C_3   0.118700 0.778222 0.335509 0.068386
C42   C     C_3   0.047411 0.856386 0.326685 -0.359498
C43   C     C_3   0.079837 0.948803 0.388024 -0.936829
C44   C     C_R   0.906945 0.568082 0.426977 0.078133
C45   C     C_R   0.092944 0.442468 0.589705 0.076271
C46   C     C_R   0.953048 0.386465 0.680586 0.488198
C47   C     C_R   0.046753 0.634074 0.349414 0.483035
C48   C     C_R   0.046294 0.383495 0.674755 -0.311618
H1    H     H_    0.367246 0.582066 0.918925 0.134948
H2    H     H_    0.224563 0.611762 0.361808 0.176814
H3    H     H_    0.082159 0.335798 0.737879 0.160823
H4    H     H_    0.917657 0.677995 0.283196 0.159476
H5    H     H_    0.606144 0.758359 0.366066 0.128104
H6    H     H_    0.393798 0.241637 0.633849 0.128928
H7    H     H_    0.393641 0.757710 0.633591 0.133814
H8    H     H_    0.606072 0.242277 0.365955 0.134040
H9    H     H_    0.329823 0.911773 0.712714 0.141316
H10   H     H_    0.669514 0.088209 0.286247 0.142304
H11   H     H_    0.669544 0.912830 0.286290 0.138974
H12   H     H_    0.633980 0.417930 0.081010 0.127403
H13   H     H_    0.329927 0.087152 0.712887 0.140502
H14   H     H_    0.818461 0.348715 0.912145 0.166195
H15   H     H_    0.860965 0.457580 0.848300 0.122466
H16   H     H_    0.969215 0.308957 0.003341 0.233329
H17   H     H_    0.013055 0.419864 0.942145 0.217148
H18   H     H_    0.902290 0.510642 0.074448 0.263592
H19   H     H_    0.972010 0.434618 0.170897 0.274678
H20   H     H_    0.858208 0.399482 0.136738 0.257403
H21   H     H_    0.181353 0.804717 0.289979 0.170042
H22   H     H_    0.135503 0.763948 0.437461 0.125709
H23   H     H_    0.501574 0.665096 0.077244 0.143543
H24   H     H_    0.031388 0.870093 0.224895 0.233588
H25   H     H_    0.985248 0.832643 0.376064 0.214981
H26   H     H_    0.095098 0.936959 0.490416 0.264682
H27   H     H_    0.026703 0.003833 0.380660 0.268065
H28   H     H_    0.140959 0.975446 0.338622 0.264647
H29   H     H_    0.499601 0.334853 0.922721 0.144455
H30   H     H_    0.634829 0.580851 0.917316 0.132491
H31   H     H_    0.366354 0.419014 0.082575 0.137370
H32   H     H_    0.777618 0.612239 0.360834 0.136067
H33   H     H_    0.222475 0.390373 0.644652 0.136579
H34   H     H_    0.775126 0.392476 0.646083 0.178069
N1    N     N_R   0.500000 0.750030 0.500000 -0.101837
N2    N     N_R   0.500000 0.249970 0.500000 -0.102784
O1    O     O_R   0.367850 0.580280 0.500030 -0.627689
O2    O     O_3   0.091205 0.695901 0.267792 -0.649644
O3    O     O_R   0.632150 0.419720 0.499970 -0.622027
O4    O     O_R   0.632150 0.580280 0.499970 -0.621544
O5    O     O_R   0.367850 0.419720 0.500030 -0.619853
O6    O     O_R   0.499970 0.580260 0.313950 -0.631516
O7    O     O_R   0.500030 0.419740 0.686050 -0.631282
O8    O     O_R   0.500030 0.580260 0.686050 -0.619184
O9    O     O_R   0.499970 0.419740 0.313950 -0.620367
O10   O     O_3   0.908727 0.328308 0.767149 -0.644374
Zn1   Zn    Zn3+2 0.500000 0.607200 0.500000 0.938379
Zn2   Zn    Zn3+2 0.500000 0.392800 0.500000 0.942361

loop_
_geom_bond_atom_site_label_1
_geom_bond_atom_site_label_2
_ccdc_geom_bond_type
C21   C26   S    
C8    C13   A    
C34   C37   A    
C3    H5    S    
C41   C42   S    
C30   C45   A    
O6    Zn1   S    
C7    C11   A    
C39   H16   S    
C35   C37   A    
C9    C16   A    
C38   C39   S    
C5    N1    A    
C20   C25   S    
C10   C17   A    
C15   C16   A    
C33   C36   A    
N2    Zn2   S    
C19   O8    A    
C17   H13   S    
O7    Zn2   S    
C48   H3    S    
C2    C44   A    
C40   H19   S    
C4    N2    A    
C31   C33   A    
C20   H23   S    
C36   C46   A    
C37   C47   A    
C19   C27   S    
C33   H34   S    
C43   H26   S    
C21   C27   S    
O4    Zn1   S    
C40   H18   S    
C43   H27   S    
C39   H17   S    
C14   C17   A    
C7    C14   A    
C1    O1    A    
C46   C48   A    
C6    N2    A    
C12   O4    A    
C18   O6    A    
C32   C35   A    
C18   C28   S    
C24   C25   S    
C22   H30   S    
C41   O2    S    
C39   C40   S    
C5    C7    A    
C6    C8    A    
C20   C28   S    
O8    Zn1   S    
C23   C44   A    
C16   H11   S    
C47   O2    S    
C3    C9    A    
C24   H31   S    
C46   O10   S    
C23   C34   A    
N1    Zn1   S    
O3    Zn2   S    
C38   O10   S    
C35   H2    S    
C42   H24   S    
C34   C45   A    
O1    Zn1   S    
C9    C11   A    
C2    H4    S    
C20   C22   S    
C8    C15   A    
C22   C27   S    
C12   C31   S    
C3    N1    A    
C15   H10   S    
C25   C27   S    
C42   C43   S    
C4    C10   A    
C41   H21   S    
C38   H15   S    
C45   C48   A    
C43   H28   S    
C14   H9    S    
C42   H25   S    
C1    O5    A    
C12   O3    A    
C4    H6    S    
C5    H7    S    
C24   C28   S    
C6    H8    S    
C10   C13   A    
C2    C47   A    
O9    Zn2   S    
C26   C28   S    
C30   H33   S    
C29   C44   A    
C30   C32   A    
C11   C13   A    
C29   H32   S    
O5    Zn2   S    
C1    C32   S    
C25   H1    S    
C19   O7    A    
C22   C26   S    
C29   C31   A    
C23   C36   A    
C40   H20   S    
C21   C24   S    
C21   H29   S    
C18   O9    A    
C26   H12   S    
C41   H22   S    
C38   H14   S    
