data_mof_unit_pretest_1611.cif
_audit_creation_date              2012-12-10T19:34:07-0500
_audit_creation_method            fapswitch 2.2
_symmetry_space_group_name_H-M    P1
_symmetry_Int_Tables_number       1
_space_group_crystal_system       triclinic
_cell_length_a                    18.660789
_cell_length_b                    18.852368
_cell_length_c                    18.637856
_cell_angle_alpha                 109.396295
_cell_angle_beta                  109.483509
_cell_angle_gamma                 109.383109
_cell_volume                      5056.79134694

loop_
_atom_site_label
_atom_site_type_symbol
_atom_type_description
_atom_site_fract_x
_atom_site_fract_y
_atom_site_fract_z
_atom_type_partial_charge
C1    C     C_R   0.618790 0.619652 0.498498 0.964783
C2    C     C_3   0.177156 0.467941 0.253235 0.285108
C3    C     C_3   0.263771 0.549414 0.330496 0.304998
C4    C     C_3   0.313105 0.500385 0.312892 -0.342960
C5    C     C_R   0.762464 0.689419 0.513841 -0.057035
C6    C     C_R   0.682664 0.685867 0.497073 -0.083821
C7    C     C_R   0.671045 0.755058 0.493547 0.013644
C8    C     C_R   0.736765 0.822032 0.496723 0.336555
C9    C     C_R   0.813802 0.819240 0.505097 -0.162251
C10   C     C_R   0.827624 0.755965 0.519731 -0.020689
C11   C     C_3   0.861827 0.699611 0.483176 0.032933
C12   C     C_R   0.379273 0.499652 0.379319 0.990801
C13   C     C_3   0.787192 0.624191 0.475293 0.644093
C14   C     C_R   0.675679 0.431528 0.695753 -0.096558
C15   C     C_R   0.688847 0.504108 0.687591 -0.170730
C16   C     C_R   0.769422 0.581687 0.747991 0.350229
C17   C     C_R   0.834843 0.583122 0.814940 0.337212
C18   C     C_R   0.817762 0.506560 0.821437 -0.217315
C19   C     C_R   0.736239 0.433150 0.761312 -0.089859
C20   C     C_3   0.681143 0.339820 0.732218 0.626625
C21   C     C_3   0.610503 0.338622 0.656622 0.337895
C22   C     C_R   0.270590 0.231597 0.440190 -0.113145
C23   C     C_R   0.383630 0.380509 0.504153 0.924778
C24   C     C_R   0.321723 0.316019 0.509691 -0.208097
C25   C     C_R   0.307623 0.335793 0.582746 0.426927
C26   C     C_R   0.240021 0.271100 0.580280 0.024313
C27   C     C_R   0.185982 0.188006 0.504404 -0.135549
C28   C     C_R   0.203511 0.171372 0.436354 -0.039283
C29   C     C_3   0.180129 0.100264 0.351634 0.354881
C30   C     C_3   0.259702 0.168930 0.356880 0.386103
C31   C     C_R   0.003546 0.619314 0.123874 0.864343
C32   C     C_R   0.124470 0.500307 0.124464 0.980719
C33   C     C_R   0.004509 0.380251 0.884162 0.933421
C34   C     C_R   0.620595 0.500326 0.620912 0.965201
C35   C     C_R   0.883019 0.502285 0.884878 0.960023
C36   C     C_R   0.000366 0.121014 0.619506 0.921225
C37   C     C_R   0.879793 0.881655 0.501576 0.925931
C38   C     C_R   0.001943 0.881440 0.380060 0.900246
C39   C     C_R   0.119858 0.119842 0.500345 0.925236
C40   C     C_R   0.005395 0.682610 0.261604 -0.052037
C41   C     C_R   0.996996 0.682555 0.184695 -0.098070
C42   C     C_R   0.973908 0.739510 0.163646 0.109670
C43   C     C_R   0.971390 0.803900 0.226032 0.075483
C44   C     C_R   0.998031 0.813649 0.311428 -0.045019
C45   C     C_3   0.327367 0.533271 0.250921 0.323003
C46   C     C_R   0.011352 0.750024 0.325518 -0.135552
C47   C     C_3   0.075266 0.749445 0.399470 0.227000
C48   C     C_3   0.066817 0.671802 0.327711 0.358922
C49   C     C_R   0.010405 0.246696 0.825742 0.060352
C50   C     C_R   0.004988 0.315762 0.817642 -0.169701
C51   C     C_R   0.008323 0.326595 0.747746 -0.169878
C52   C     C_R   0.006091 0.262734 0.680825 0.372092
C53   C     C_R   0.004734 0.189699 0.686804 -0.216921
C54   C     C_R   0.013253 0.186006 0.762511 0.052285
C55   C     C_3   0.964825 0.113246 0.774462 0.090592
C56   C     C_3   0.277809 0.582294 0.268174 0.239059
C57   C     C_3   0.959682 0.180949 0.844510 0.126945
C58   C     C_3   0.191442 0.500776 0.191161 -0.394951
C59   C     C_3   0.240718 0.452016 0.173239 0.358978
C60   C     C_3   0.227153 0.420331 0.235953 -0.080947
H1    H     H_    0.047541 0.733073 0.439785 0.136887
H2    H     H_    0.008025 0.382242 0.742902 0.207888
O1    O     O_R   0.592030 0.539910 0.448670 -0.569372
O2    O     O_R   0.054880 0.643340 0.094730 -0.591481
O3    O     O_R   0.044460 0.448310 0.096120 -0.581813
O4    O     O_R   0.147900 0.551710 0.096100 -0.577206
O5    O     O_R   0.952840 0.356700 0.912890 -0.629027
O6    O     O_R   0.056280 0.460110 0.912860 -0.608214
O7    O     O_R   0.859820 0.448330 0.911520 -0.576053
O8    O     O_R   0.963270 0.551730 0.911500 -0.575493
O9    O     O_R   0.947110 0.091620 0.538800 -0.547666
O10   O     O_R   0.051340 0.091660 0.643070 -0.641793
O11   O     O_R   0.856270 0.908420 0.447910 -0.562546
O12   O     O_R   0.591210 0.643320 0.551340 -0.606436
O13   O     O_R   0.960500 0.908460 0.552180 -0.628267
O14   O     O_R   0.948660 0.908440 0.357030 -0.657791
O15   O     O_R   0.052890 0.908480 0.461300 -0.564583
O16   O     O_R   0.039500 0.091640 0.447920 -0.598053
O17   O     O_R   0.143730 0.091680 0.552190 -0.606802
O18   O     O_R   0.408090 0.448300 0.356360 -0.569659
O19   O     O_R   0.407280 0.551720 0.459030 -0.586502
O20   O     O_R   0.408790 0.356680 0.448660 -0.615219
O21   O     O_R   0.407970 0.460090 0.551330 -0.573739
O22   O     O_R   0.592720 0.448280 0.540970 -0.566889
O23   O     O_R   0.591910 0.551700 0.643640 -0.601311
O24   O     O_R   0.951440 0.539930 0.094760 -0.588263
Zn1   Zn    Zn3+2 0.500550 0.430950 0.431450 1.182322
Zn2   Zn    Zn3+2 0.499450 0.569050 0.568550 1.150291
Zn3   Zn    Zn3+2 0.934790 0.430980 0.003830 1.134195
Zn4   Zn    Zn3+2 0.072930 0.569070 0.003790 1.145108
Zn5   Zn    Zn3+2 0.930400 0.000020 0.430430 1.113144
Zn6   Zn    Zn3+2 0.069600 0.000080 0.569670 1.072932
Cl1   Cl    Cl    0.313327 0.690958 0.289355 -0.437863
N1    N     N_3   0.951305 0.727355 0.546837 -0.416003
H3    H     H_    0.957637 0.742266 0.608716 0.251971
H4    H     H_    0.963324 0.675882 0.526330 0.246377
Cl2   Cl    Cl    0.704844 0.539784 0.364905 -0.447185
Cl3   Cl    Cl    0.818880 0.581268 0.545115 -0.493675
Cl4   Cl    Cl    0.789713 0.675656 0.738047 -0.490647
Cl5   Cl    Cl    0.935413 0.681557 0.889324 -0.486306
Cl6   Cl    Cl    0.730665 0.277663 0.700306 -0.471299
Cl7   Cl    Cl    0.654687 0.326725 0.812556 -0.528604
Cl8   Cl    Cl    0.586273 0.273801 0.547505 -0.443459
N2    N     N_3   0.530747 0.328081 0.660670 -0.451435
H5    H     H_    0.546290 0.373588 0.722206 0.226892
H6    H     H_    0.497469 0.266302 0.651782 0.247509
Cl9   Cl    Cl    0.376568 0.437384 0.680718 -0.488957
Cl10  Cl    Cl    0.428301 0.576357 0.251371 -0.438914
N3    N     N_3   0.228004 0.290557 0.655216 -0.354678
H7    H     H_    0.163180 0.276215 0.634832 0.218970
H8    H     H_    0.238941 0.250736 0.680163 0.218249
Cl11  Cl    Cl    0.189429 0.012033 0.361761 -0.546769
N4    N     N_3   0.094011 0.071255 0.280840 -0.439808
H9    H     H_    0.089615 0.037059 0.220984 0.245569
H10   H     H_    0.086659 0.124257 0.282107 0.226389
N5    N     N_3   0.333036 0.151701 0.371917 -0.330583
H11   H     H_    0.384154 0.201663 0.376938 0.253745
H12   H     H_    0.357561 0.153062 0.432024 0.232214
Cl12  Cl    Cl    0.235252 0.196830 0.272233 -0.591156
N6    N     N_3   0.953485 0.731908 0.079228 -0.393108
H13   H     H_    0.889639 0.720900 0.048323 0.221377
H14   H     H_    0.996407 0.790837 0.088616 0.260348
N7    N     N_3   0.945401 0.859718 0.201762 -0.444639
H15   H     H_    0.885423 0.847520 0.199032 0.227283
H16   H     H_    0.992790 0.923948 0.248817 0.248012
Cl13  Cl    Cl    0.181272 0.845212 0.463062 -0.431437
N8    N     N_3   0.147635 0.685575 0.324771 -0.300367
H17   H     H_    0.132960 0.629268 0.272600 0.198580
H18   H     H_    0.168853 0.735379 0.310630 0.236063
Cl14  Cl    Cl    0.224255 0.387913 0.068138 -0.512059
Cl15  Cl    Cl    0.012740 0.572448 0.325384 -0.441710
Cl16  Cl    Cl    0.002350 0.275784 0.590524 -0.510382
N9    N     N_3   0.880809 0.043660 0.695422 -0.436762
H19   H     H_    0.842650 0.007279 0.713927 0.228107
H20   H     H_    0.846560 0.069688 0.666512 0.241973
N10   N     N_3   0.020244 0.079764 0.809088 -0.415484
H21   H     H_    0.986285 0.035876 0.824272 0.206551
H22   H     H_    0.028528 0.044198 0.759035 0.236644
N11   N     N_3   0.869849 0.164384 0.820381 -0.420962
H23   H     H_    0.869552 0.202908 0.875432 0.251576
H24   H     H_    0.846854 0.181168 0.772763 0.229654
N12   N     N_3   0.008771 0.199753 0.934798 -0.404081
H25   H     H_    0.072846 0.213085 0.950990 0.257442
H26   H     H_    0.978445 0.144476 0.938488 0.211244
N13   N     N_3   0.200598 0.332177 0.219382 -0.309778
H27   H     H_    0.139793 0.291435 0.161726 0.241640
H28   H     H_    0.190157 0.328887 0.270172 0.243476
Cl17  Cl    Cl    0.078187 0.421682 0.255423 -0.424955
Cl18  Cl    Cl    0.276636 0.614754 0.433453 -0.379923
N14   N     N_3   0.590881 0.754433 0.482487 -0.383265
H29   H     H_    0.561003 0.755086 0.424431 0.284344
H30   H     H_    0.606091 0.810817 0.535051 0.247424
Cl19  Cl    Cl    0.720299 0.906942 0.488770 -0.545980
N15   N     N_3   0.853433 0.689733 0.398926 -0.385771
H31   H     H_    0.901575 0.747143 0.410783 0.181291
H32   H     H_    0.868011 0.641589 0.372782 0.246272

loop_
_geom_bond_atom_site_label_1
_geom_bond_atom_site_label_2
_ccdc_geom_bond_type
C59   Cl14  S    
C23   O20   A    
C11   C13   S    
C41   C42   A    
C29   Cl11  S    
C19   C20   S    
O22   Zn1   S    
C32   C58   S    
N2    H6    S    
N13   H27   S    
C7    C8    A    
O4    Zn4   S    
C30   N5    S    
C53   C54   A    
C52   C53   A    
C40   C46   A    
C33   O5    A    
C26   C27   A    
C23   O21   A    
C57   N12   S    
C1    O12   A    
C14   C21   S    
C28   C29   S    
O18   Zn1   S    
N3    H8    S    
C5    C6    A    
O10   Zn6   S    
C2    C60   S    
N7    H16   S    
C20   Cl7   S    
C30   Cl12  S    
C2    Cl17  S    
O20   Zn1   S    
O5    Zn3   S    
C49   C57   S    
N5    H11   S    
C57   N11   S    
C18   C19   A    
C13   Cl3   S    
C29   N4    S    
C36   C53   S    
C33   C50   S    
C11   N15   S    
C54   C55   S    
C21   N2    S    
C45   C56   S    
C44   C46   A    
C8    C9    A    
O6    Zn4   S    
C23   C24   S    
C48   Cl15  S    
O2    Zn4   S    
C4    C12   S    
C31   C41   S    
C18   C35   S    
C15   C34   S    
N15   H32   S    
C45   Cl10  S    
O21   Zn2   S    
C37   O13   A    
C59   C60   S    
C31   O24   A    
C22   C28   A    
O8    Zn4   S    
C51   H2    S    
C34   O22   A    
O7    Zn3   S    
C1    O1    A    
N2    H5    S    
N13   H28   S    
N6    H14   S    
C17   C18   A    
C4    C45   S    
C56   Cl1   S    
C3    Cl18  S    
N12   H25   S    
C15   C16   A    
C1    C6    S    
C52   Cl16  S    
C39   O16   A    
N7    H15   S    
C24   C25   A    
O11   Zn5   S    
C36   O9    A    
N10   H22   S    
C27   C39   S    
C14   C19   A    
C16   C17   A    
C38   O14   A    
C20   Cl6   S    
C58   C59   S    
C55   N9    S    
C3    C4    S    
C51   C52   A    
C34   O23   A    
C39   O17   A    
O3    Zn3   S    
C43   C44   A    
N8    H18   S    
C38   C44   S    
C29   C30   S    
C7    N14   S    
C3    C56   S    
C47   C48   S    
C4    C60   S    
C9    C37   S    
C50   C51   A    
N15   H31   S    
O15   Zn6   S    
N1    H4    S    
C8    Cl19  S    
C26   N3    S    
O17   Zn6   S    
O13   Zn6   S    
N5    H12   S    
C11   N1    S    
C40   C41   A    
C55   N10   S    
C35   O8    A    
N9    H19   S    
N14   H30   S    
C42   C43   A    
N8    H17   S    
C43   N7    S    
N12   H26   S    
N6    H13   S    
C25   Cl9   S    
C47   Cl13  S    
C32   O4    A    
N4    H9    S    
C9    C10   A    
O23   Zn2   S    
C40   C48   S    
C37   O11   A    
C46   C47   S    
C45   C59   S    
C22   C30   S    
O1    Zn1   S    
N14   H29   S    
C5    C13   S    
C31   O2    A    
N10   H21   S    
O24   Zn3   S    
C47   H1    S    
N11   H23   S    
C2    C58   S    
C16   Cl4   S    
C6    C7    A    
C38   O15   A    
O16   Zn5   S    
C55   C57   S    
C2    C3    S    
C25   C26   A    
C5    C10   A    
N3    H7    S    
C48   N8    S    
N11   H24   S    
C42   N6    S    
C12   O18   A    
C56   C58   S    
C12   O19   A    
C22   C24   A    
C13   Cl2   S    
N1    H3    S    
C17   Cl5   S    
O19   Zn2   S    
C10   C11   S    
O14   Zn5   S    
C21   Cl8   S    
C36   O10   A    
O9    Zn5   S    
C20   C21   S    
C35   O7    A    
C49   C50   A    
C60   N13   S    
C27   C28   A    
N9    H20   S    
C14   C15   A    
O12   Zn2   S    
C49   C54   A    
C33   O6    A    
C32   O3    A    
N4    H10   S    
