data_mof_unit_pretest_447.cif
_audit_creation_date              2012-12-11T14:30:08-0500
_audit_creation_method            fapswitch 2.2
_symmetry_space_group_name_H-M    P1
_symmetry_Int_Tables_number       1
_space_group_crystal_system       monoclinic
_cell_length_a                    12.796679
_cell_length_b                    12.796679
_cell_length_c                    26.847961
_cell_angle_alpha                 90.0
_cell_angle_beta                  90.0
_cell_angle_gamma                 120.000211
_cell_volume                      3807.46192045

loop_
_atom_site_label
_atom_site_type_symbol
_atom_type_description
_atom_site_fract_x
_atom_site_fract_y
_atom_site_fract_z
_atom_type_partial_charge
C1    C     C_R   0.558301 0.457631 0.821973 0.572910
C2    C     C_R   0.900920 0.445153 0.678478 0.577064
C3    C     C_R   0.542369 0.100670 0.821973 0.572909
C4    C     C_R   0.554847 0.455767 0.678478 0.577065
C5    C     C_R   0.899330 0.441699 0.821973 0.572909
C6    C     C_R   0.544233 0.099080 0.678478 0.577064
C7    C     C_R   0.457631 0.558301 0.321973 0.572910
C8    C     C_R   0.445153 0.900920 0.178478 0.577063
C9    C     C_R   0.100670 0.542369 0.321973 0.572909
C10   C     C_R   0.455767 0.554847 0.178478 0.577065
C11   C     C_R   0.441699 0.899330 0.321973 0.572909
C12   C     C_R   0.099080 0.544233 0.178478 0.577063
C13   C     C_R   0.973973 0.498003 0.975958 0.029152
C14   C     C_R   0.506288 0.981245 0.528577 0.026890
C15   C     C_R   0.501997 0.475970 0.975958 0.029152
C16   C     C_R   0.018756 0.525044 0.528577 0.026890
C17   C     C_R   0.524030 0.026027 0.975958 0.029152
C18   C     C_R   0.474956 0.493711 0.528577 0.026890
C19   C     C_R   0.498003 0.973973 0.475958 0.029152
C20   C     C_R   0.981244 0.506288 0.028577 0.026890
C21   C     C_R   0.475970 0.501997 0.475958 0.029152
C22   C     C_R   0.525044 0.018756 0.028577 0.026890
C23   C     C_R   0.026027 0.524030 0.475958 0.029152
C24   C     C_R   0.493711 0.474956 0.028577 0.026890
C25   C     C_R   0.027896 0.708253 0.970757 -0.123431
C26   C     C_R   0.716656 0.036148 0.522319 -0.122788
C27   C     C_R   0.291747 0.319643 0.970757 -0.123431
C28   C     C_R   0.963851 0.680508 0.522318 -0.122789
C29   C     C_R   0.680356 0.972103 0.970757 -0.123431
C30   C     C_R   0.319492 0.283343 0.522319 -0.122789
C31   C     C_R   0.708253 0.027896 0.470757 -0.123431
C32   C     C_R   0.036148 0.716656 0.022319 -0.122788
C33   C     C_R   0.319643 0.291747 0.470757 -0.123431
C34   C     C_R   0.680508 0.963851 0.022318 -0.122789
C35   C     C_R   0.972103 0.680356 0.470757 -0.123431
C36   C     C_R   0.283343 0.319492 0.022319 -0.122789
C37   C     C_R   0.987892 0.587968 0.893598 0.010181
C38   C     C_R   0.630272 0.044893 0.603476 0.019810
C39   C     C_R   0.412031 0.399924 0.893598 0.010181
C40   C     C_R   0.955107 0.585379 0.603476 0.019810
C41   C     C_R   0.600076 0.012108 0.893598 0.010181
C42   C     C_R   0.414620 0.369728 0.603476 0.019809
C43   C     C_R   0.587968 0.987892 0.393598 0.010181
C44   C     C_R   0.044893 0.630272 0.103476 0.019810
C45   C     C_R   0.399924 0.412031 0.393598 0.010181
C46   C     C_R   0.585379 0.955107 0.103476 0.019810
C47   C     C_R   0.012107 0.600075 0.393598 0.010181
C48   C     C_R   0.369728 0.414621 0.103476 0.019809
C49   C     C_R   0.030097 0.528115 0.131363 -0.001209
C50   C     C_R   0.476397 0.958112 0.371739 -0.006961
C51   C     C_R   0.471885 0.501982 0.131363 -0.001208
C52   C     C_R   0.041888 0.518285 0.371739 -0.006960
C53   C     C_R   0.498018 0.969903 0.131363 -0.001209
C54   C     C_R   0.481715 0.523603 0.371739 -0.006961
C55   C     C_R   0.528115 0.030097 0.631363 -0.001209
C56   C     C_R   0.958112 0.476397 0.871739 -0.006961
C57   C     C_R   0.501982 0.471885 0.631363 -0.001208
C58   C     C_R   0.518285 0.041888 0.871739 -0.006960
C59   C     C_R   0.969903 0.498018 0.631363 -0.001209
C60   C     C_R   0.523603 0.481715 0.871739 -0.006961
C61   C     C_R   0.997189 0.599520 0.946395 -0.011687
C62   C     C_R   0.618031 0.018748 0.551874 -0.010979
C63   C     C_R   0.400479 0.397669 0.946395 -0.011687
C64   C     C_R   0.981252 0.599283 0.551874 -0.010979
C65   C     C_R   0.602331 0.002811 0.946395 -0.011687
C66   C     C_R   0.400717 0.381969 0.551874 -0.010980
C67   C     C_R   0.599520 0.997189 0.446395 -0.011687
C68   C     C_R   0.018748 0.618031 0.051874 -0.010979
C69   C     C_R   0.397669 0.400479 0.446395 -0.011687
C70   C     C_R   0.599283 0.981252 0.051874 -0.010979
C71   C     C_R   0.002811 0.602331 0.446395 -0.011687
C72   C     C_R   0.381969 0.400717 0.051874 -0.010980
C73   C     C_R   0.960487 0.386387 0.901321 0.073610
C74   C     C_R   0.413002 0.965756 0.609703 0.113224
C75   C     C_R   0.613613 0.574100 0.901321 0.073610
C76   C     C_R   0.034244 0.447247 0.609703 0.113224
C77   C     C_R   0.425901 0.039514 0.901322 0.073609
C78   C     C_R   0.552754 0.586998 0.609703 0.113224
C79   C     C_R   0.386387 0.960487 0.401321 0.073610
C80   C     C_R   0.965756 0.413002 0.109703 0.113224
C81   C     C_R   0.574100 0.613613 0.401321 0.073610
C82   C     C_R   0.447247 0.034244 0.109703 0.113224
C83   C     C_R   0.039514 0.425901 0.401322 0.073609
C84   C     C_R   0.586998 0.552754 0.109703 0.113224
C85   C     C_R   0.952177 0.390207 0.953006 0.006450
C86   C     C_R   0.402973 0.952719 0.557660 0.033195
C87   C     C_R   0.609793 0.561971 0.953006 0.006450
C88   C     C_R   0.047281 0.450255 0.557660 0.033195
C89   C     C_R   0.438030 0.047823 0.953006 0.006450
C90   C     C_R   0.549747 0.597027 0.557660 0.033196
C91   C     C_R   0.390207 0.952177 0.453006 0.006450
C92   C     C_R   0.952719 0.402973 0.057660 0.033195
C93   C     C_R   0.561971 0.609793 0.453006 0.006450
C94   C     C_R   0.450255 0.047281 0.057660 0.033196
C95   C     C_R   0.047823 0.438030 0.453006 0.006450
C96   C     C_R   0.597027 0.549747 0.057660 0.033196
C97   C     C_R   0.919247 0.293396 0.033704 -0.096150
C98   C     C_R   0.288133 0.922737 0.482180 -0.121093
C99   C     C_R   0.706603 0.625851 0.033704 -0.096150
C100  C     C_R   0.077264 0.365397 0.482181 -0.121093
C101  C     C_R   0.374151 0.080754 0.033704 -0.096150
C102  C     C_R   0.634605 0.711867 0.482180 -0.121093
C103  C     C_R   0.293396 0.919247 0.533704 -0.096150
C104  C     C_R   0.922737 0.288133 0.982180 -0.121093
C105  C     C_R   0.625851 0.706603 0.533704 -0.096150
C106  C     C_R   0.365397 0.077264 0.982181 -0.121093
C107  C     C_R   0.080754 0.374151 0.533704 -0.096150
C108  C     C_R   0.711867 0.634605 0.982180 -0.121093
Cr1   Cr    Cr6+3 0.487630 0.241180 0.750000 1.127934
Cr2   Cr    Cr6+3 0.753550 0.512370 0.750000 1.127934
Cr3   Cr    Cr6+3 0.758820 0.246450 0.750000 1.127934
Cr4   Cr    Cr6+3 0.241180 0.487630 0.250000 1.127934
Cr5   Cr    Cr6+3 0.512370 0.753550 0.250000 1.127934
Cr6   Cr    Cr6+3 0.246450 0.758820 0.250000 1.127934
H1    H     H_    0.058329 0.802759 0.038373 0.158886
H2    H     H_    0.789208 0.047711 0.450818 0.184819
H3    H     H_    0.197240 0.255569 0.038373 0.158886
H4    H     H_    0.952288 0.741495 0.450817 0.184819
H5    H     H_    0.744430 0.941670 0.038373 0.158886
H6    H     H_    0.258503 0.210791 0.450818 0.184819
H7    H     H_    0.802759 0.058329 0.538373 0.158886
H8    H     H_    0.047711 0.789208 0.950818 0.184819
H9    H     H_    0.255569 0.197240 0.538373 0.158886
H10   H     H_    0.741495 0.952288 0.950817 0.184819
H11   H     H_    0.941670 0.744430 0.538373 0.158886
H12   H     H_    0.210791 0.258503 0.950818 0.184819
H13   H     H_    0.897660 0.212486 0.054288 0.158554
H14   H     H_    0.202511 0.899930 0.465439 0.158416
H15   H     H_    0.787513 0.685174 0.054288 0.158553
H16   H     H_    0.100071 0.302583 0.465439 0.158416
H17   H     H_    0.314829 0.102342 0.054288 0.158554
H18   H     H_    0.697419 0.797488 0.465439 0.158416
H19   H     H_    0.212486 0.897660 0.554288 0.158554
H20   H     H_    0.899930 0.202512 0.965439 0.158416
H21   H     H_    0.685174 0.787513 0.554288 0.158553
H22   H     H_    0.302583 0.100071 0.965439 0.158416
H23   H     H_    0.102341 0.314829 0.554288 0.158554
H24   H     H_    0.797488 0.697419 0.965439 0.158416
O1    O     O_R   0.460870 0.120930 0.805240 -0.470574
O2    O     O_R   0.660060 0.539130 0.694760 -0.452149
O3    O     O_R   0.879070 0.339940 0.805240 -0.470573
O4    O     O_R   0.460870 0.120930 0.694760 -0.452149
O5    O     O_R   0.660060 0.539130 0.805240 -0.470573
O6    O     O_R   0.879070 0.339940 0.694760 -0.452149
O7    O     O_R   0.120930 0.460870 0.305240 -0.470574
O8    O     O_R   0.539130 0.660060 0.194760 -0.452149
O9    O     O_R   0.339940 0.879070 0.305240 -0.470573
O10   O     O_R   0.120930 0.460870 0.194760 -0.452149
O11   O     O_R   0.539130 0.660060 0.305240 -0.470574
O12   O     O_R   0.339940 0.879070 0.194760 -0.452149
O13   O     O_R   0.498910 0.350470 0.801870 -0.479186
O14   O     O_R   0.851560 0.501090 0.698130 -0.473329
O15   O     O_R   0.649530 0.148440 0.801870 -0.479186
O16   O     O_R   0.498910 0.350470 0.698130 -0.473329
O17   O     O_R   0.851560 0.501090 0.801870 -0.479186
O18   O     O_R   0.649530 0.148440 0.698130 -0.473329
O19   O     O_R   0.350470 0.498910 0.301870 -0.479186
O20   O     O_R   0.501090 0.851560 0.198130 -0.473329
O21   O     O_R   0.148440 0.649530 0.301870 -0.479186
O22   O     O_R   0.350470 0.498910 0.198130 -0.473329
O23   O     O_R   0.501090 0.851560 0.301870 -0.479186
O24   O     O_R   0.148440 0.649530 0.198130 -0.473329
O25   O     O_3   0.666667 0.333333 0.750000 -0.309849
O26   O     O_3   0.333333 0.666667 0.250000 -0.309849
C109  C     C_2   0.094236 0.751400 0.126725 0.602803
O27   O     O_2   0.186216 0.836777 0.110144 -0.526304
O28   O     O_R   0.036673 0.767275 0.167849 -0.642139
H25   H     H_    0.079547 0.853561 0.180403 0.355739
C110  C     C_2   0.691103 0.018343 0.359752 0.610475
O29   O     O_2   0.760701 0.981548 0.368033 -0.480076
O30   O     O_R   0.704918 0.085603 0.316636 -0.642735
H26   H     H_    0.774076 0.095500 0.294894 0.372757
C111  C     C_2   0.248599 0.342835 0.126725 0.602803
O31   O     O_2   0.163223 0.349438 0.110145 -0.526304
O32   O     O_R   0.232724 0.269396 0.167849 -0.642140
H27   H     H_    0.146438 0.225985 0.180403 0.355738
C112  C     C_2   0.981657 0.672759 0.359752 0.610474
O33   O     O_2   0.018452 0.779152 0.368033 -0.480076
O34   O     O_R   0.914396 0.619312 0.316636 -0.642735
H28   H     H_    0.904499 0.678573 0.294894 0.372757
C113  C     C_2   0.657164 0.905764 0.126725 0.602802
O35   O     O_2   0.650559 0.813784 0.110144 -0.526305
O36   O     O_R   0.730603 0.963326 0.167848 -0.642139
H29   H     H_    0.774014 0.920452 0.180402 0.355739
C114  C     C_2   0.327240 0.308897 0.359752 0.610474
O37   O     O_2   0.220846 0.239298 0.368033 -0.480076
O38   O     O_R   0.380686 0.295083 0.316635 -0.642735
H30   H     H_    0.321424 0.225924 0.294894 0.372757
C115  C     C_2   0.751400 0.094236 0.626725 0.602803
O39   O     O_2   0.836777 0.186216 0.610144 -0.526304
O40   O     O_R   0.767275 0.036673 0.667849 -0.642139
H31   H     H_    0.853561 0.079547 0.680403 0.355739
C116  C     C_2   0.018343 0.691103 0.859752 0.610475
O41   O     O_2   0.981548 0.760701 0.868033 -0.480077
O42   O     O_R   0.085603 0.704918 0.816636 -0.642735
H32   H     H_    0.095500 0.774076 0.794894 0.372757
C117  C     C_2   0.342835 0.248600 0.626725 0.602802
O43   O     O_2   0.349438 0.163223 0.610145 -0.526304
O44   O     O_R   0.269396 0.232724 0.667849 -0.642140
H33   H     H_    0.225985 0.146438 0.680403 0.355738
C118  C     C_2   0.672759 0.981657 0.859752 0.610474
O45   O     O_2   0.779152 0.018452 0.868033 -0.480076
O46   O     O_R   0.619312 0.914396 0.816635 -0.642735
H34   H     H_    0.678573 0.904499 0.794894 0.372757
C119  C     C_2   0.905764 0.657164 0.626725 0.602802
O47   O     O_2   0.813784 0.650560 0.610144 -0.526305
O48   O     O_R   0.963326 0.730603 0.667848 -0.642139
H35   H     H_    0.920452 0.774014 0.680402 0.355739
C120  C     C_2   0.308897 0.327240 0.859752 0.610474
O49   O     O_2   0.239298 0.220846 0.868033 -0.480076
O50   O     O_R   0.295083 0.380686 0.816635 -0.642735
H36   H     H_    0.225924 0.321424 0.794894 0.372757
I1    I     I_    0.880760 0.256477 0.156407 -0.233958
I2    I     I_    0.264889 0.011708 0.370347 -0.194833
I3    I     I_    0.743522 0.624283 0.156407 -0.233959
I4    I     I_    0.988293 0.253181 0.370348 -0.194834
I5    I     I_    0.375719 0.119240 0.156407 -0.233957
I6    I     I_    0.746820 0.735112 0.370347 -0.194833
I7    I     I_    0.256477 0.880760 0.656407 -0.233958
I8    I     I_    0.011708 0.264889 0.870347 -0.194833
I9    I     I_    0.624283 0.743522 0.656407 -0.233960
I10   I     I_    0.253181 0.988293 0.870348 -0.194834
I11   I     I_    0.119240 0.375719 0.656407 -0.233957
I12   I     I_    0.735112 0.746820 0.870347 -0.194833

loop_
_geom_bond_atom_site_label_1
_geom_bond_atom_site_label_2
_ccdc_geom_bond_type
C44   C49   A    
C4    O16   A    
O46   H34   S    
C29   H10   S    
C80   C92   A    
C109  O27   D    
C82   C94   A    
C18   C21   A    
C2    O6    A    
C110  O29   D    
C5    C56   S    
C3    O15   A    
C6    C55   S    
C97   H13   S    
C8    O20   A    
C50   C79   A    
C12   C49   S    
C43   C110  S    
C119  O47   D    
C78   C90   A    
C31   C67   A    
C99   C108  A    
C20   C92   A    
C77   C89   A    
C104  H20   S    
C46   C113  S    
Cr1   O13   S    
C102  H18   S    
Cr6   O9    S    
Cr2   O14   S    
C24   C96   A    
C27   H12   S    
C100  H16   S    
C98   H14   S    
C114  O38   S    
C9    O21   A    
C98   C103  A    
C14   C62   A    
C96   C99   A    
C11   O23   A    
Cr4   O7    S    
C39   C120  S    
C102  C105  A    
C115  O40   S    
C84   C96   A    
C117  O44   S    
Cr2   O17   S    
C58   C77   A    
C120  O50   S    
C7    O11   A    
C55   C74   A    
Cr6   O26   S    
C48   C51   A    
C87   C108  A    
O32   H27   S    
C94   C101  A    
C116  O42   S    
C89   C106  A    
Cr2   O5    S    
C19   C67   A    
Cr1   O4    S    
C26   H7    S    
Cr5   O20   S    
C6    O4    A    
C25   H8    S    
C76   C88   A    
C1    O13   A    
C79   C91   A    
C13   C20   A    
C84   I3    S    
C33   C69   A    
C32   C68   A    
C25   C32   A    
C106  H22   S    
C35   C71   A    
C26   C31   A    
C109  O28   S    
C40   C59   A    
C111  O31   D    
C4    C57   S    
C110  O30   S    
C115  O39   D    
C9    C52   S    
C118  O46   S    
C48   C72   A    
C86   C103  A    
C14   C19   A    
C42   C57   A    
C92   C97   A    
C83   I4    S    
C111  O32   S    
C76   I11   S    
C2    O14   A    
Cr4   O26   S    
C16   C88   A    
Cr4   O19   S    
C38   C55   A    
C45   C69   A    
O48   H35   S    
C18   C90   A    
Cr5   O11   S    
C17   C89   A    
C28   C35   A    
Cr1   O25   S    
C1    C60   S    
O28   H25   S    
C88   C107  A    
C99   H15   S    
C2    C59   S    
C41   C65   A    
Cr6   O24   S    
C112  O34   S    
C113  O35   D    
Cr5   O23   S    
C29   C34   A    
C11   O9    A    
C22   C94   A    
O40   H31   S    
C73   I8    S    
C21   C69   A    
C53   C82   A    
C37   C116  S    
Cr5   O8    S    
C107  H23   S    
C52   C83   A    
C8    O12   A    
O36   H29   S    
C1    O5    A    
C23   C71   A    
C4    O2    A    
C81   C93   A    
C5    O3    A    
O50   H36   S    
C38   C115  S    
C83   C95   A    
C120  O49   D    
Cr3   O25   S    
C25   C61   A    
C74   C86   A    
C36   H3    S    
Cr3   O15   S    
O30   H26   S    
C14   C86   A    
C30   C66   A    
C85   C104  A    
C27   C63   A    
Cr3   O6    S    
C10   O8    A    
C29   C65   A    
C39   C60   A    
C101  H17   S    
C75   C87   A    
C15   C24   A    
C75   I12   S    
C116  O41   D    
C16   C23   A    
C91   C98   A    
C44   C68   A    
C3    O1    A    
C47   C71   A    
C41   C118  S    
C10   O22   A    
C31   H2    S    
C101  C106  A    
C28   H11   S    
C24   C72   A    
C15   C87   A    
C48   C111  S    
Cr3   O18   S    
C34   H5    S    
C34   C70   A    
C40   C119  S    
C100  C107  A    
C15   C63   A    
C56   C73   A    
Cr4   O22   S    
C30   C33   A    
C95   C100  A    
C93   C102  A    
C57   C78   A    
C20   C68   A    
C42   C117  S    
Cr1   O16   S    
C90   C105  A    
C8    C53   S    
C45   C54   A    
C37   C61   A    
Cr2   O25   S    
C49   C80   A    
C43   C50   A    
C28   C64   A    
C80   I1    S    
C7    O19   A    
C27   C36   A    
C18   C66   A    
C39   C63   A    
C60   C75   A    
C17   C65   A    
C17   C22   A    
C40   C64   A    
C118  O45   D    
C41   C58   A    
Cr1   O1    S    
C10   C51   S    
C12   O10   A    
Cr2   O2    S    
C103  H19   S    
C73   C85   A    
C47   C112  S    
C11   C50   S    
C5    O17   A    
Cr5   O26   S    
C108  H24   S    
C45   C114  S    
C114  O37   D    
C82   I5    S    
C21   C93   A    
C81   I6    S    
C59   C76   A    
C46   C53   A    
C9    O7    A    
C79   I2    S    
C23   C95   A    
C74   I7    S    
C44   C109  S    
C32   H1    S    
C26   C62   A    
C117  O43   D    
Cr6   O21   S    
C46   C70   A    
C97   C104  A    
C19   C91   A    
C105  H21   S    
C78   I9    S    
C12   O24   A    
O42   H32   S    
C3    C58   S    
Cr4   O10   S    
C77   I10   S    
O44   H33   S    
C13   C61   A    
C30   H9    S    
C33   H6    S    
C43   C67   A    
C112  O33   D    
Cr3   O3    S    
C47   C52   A    
C37   C56   A    
C42   C66   A    
O34   H28   S    
Cr6   O12   S    
C13   C85   A    
C35   H4    S    
O38   H30   S    
C16   C64   A    
C7    C54   S    
C119  O48   S    
C51   C84   A    
C22   C70   A    
C54   C81   A    
C6    O18   A    
C36   C72   A    
C113  O36   S    
C38   C62   A    
