data_mof_unit_pretest_341.cif
_audit_creation_date              2013-03-05T16:12:16-0500
_audit_creation_method            fapswitch 2.2
_symmetry_space_group_name_H-M    P1
_symmetry_Int_Tables_number       1
_space_group_crystal_system       triclinic
_cell_length_a                    10.884564
_cell_length_b                    9.798603
_cell_length_c                    19.052222
_cell_angle_alpha                 90.01715
_cell_angle_beta                  90.165257
_cell_angle_gamma                 90.003081
_cell_volume                      2031.97802185

loop_
_atom_site_label
_atom_site_type_symbol
_atom_site_description
_atom_site_fract_x
_atom_site_fract_y
_atom_site_fract_z
_atom_type_partial_charge
O1    O     O_R   0.316770 0.614620 0.500000 -0.610176
O2    O     O_R   0.683230 0.385380 0.500000 -0.627930
O3    O     O_R   0.683230 0.614620 0.500000 -0.610221
O4    O     O_R   0.316770 0.385380 0.500000 -0.629622
C1    C     C_R   0.259735 0.498046 0.504781 0.887190
C2    C     C_R   0.740504 0.498184 0.495758 0.888341
O5    O     O_R   0.499990 0.614700 0.398140 -0.623948
O6    O     O_R   0.500010 0.385300 0.601860 -0.634312
O7    O     O_R   0.500010 0.614700 0.601860 -0.623821
O8    O     O_R   0.499990 0.385300 0.398140 -0.634347
C3    C     C_R   0.497788 0.499981 0.365083 0.849971
C4    C     C_R   0.497018 0.500056 0.634890 0.849783
Zn1   Zn    Zn3+2 0.500000 0.653120 0.500000 0.938524
Zn2   Zn    Zn3+2 0.500000 0.346880 0.500000 0.920399
C5    C     C_R   0.064559 0.360334 0.505008 0.045758
C6    C     C_R   0.941128 0.612638 0.489457 0.053442
C7    C     C_R   0.935892 0.360612 0.496814 0.044734
C8    C     C_R   0.059859 0.611448 0.516042 0.055000
C9    C     C_R   0.873908 0.489843 0.491547 -0.160999
C10   C     C_R   0.126739 0.489170 0.510871 -0.158382
C11   C     C_R   0.474587 0.072032 0.559961 -0.092831
C12   C     C_R   0.525032 0.927943 0.440006 -0.106801
C13   C     C_R   0.525653 0.071969 0.440071 -0.095079
C14   C     C_R   0.475190 0.928015 0.560019 -0.106997
C15   C     C_R   0.474086 0.623891 0.252714 -0.198294
C16   C     C_R   0.465696 0.376585 0.746725 -0.205463
C17   C     C_R   0.455768 0.624014 0.745481 -0.203195
C18   C     C_R   0.457156 0.376884 0.254056 -0.206311
H1    H     H_    0.490497 0.720278 0.278973 0.147055
H2    H     H_    0.479738 0.279743 0.720532 0.144104
H3    H     H_    0.461530 0.720821 0.718288 0.150651
H4    H     H_    0.459640 0.280028 0.281423 0.145935
C19   C     C_R   0.445624 0.624740 0.181702 -0.164121
C20   C     C_R   0.436025 0.376540 0.817481 -0.162815
C21   C     C_R   0.426057 0.624009 0.816206 -0.168421
C22   C     C_R   0.428782 0.377706 0.183044 -0.163781
H5    H     H_    0.442756 0.721745 0.154531 0.148261
H6    H     H_    0.430169 0.279615 0.844555 0.148213
H7    H     H_    0.411887 0.721003 0.842212 0.147500
H8    H     H_    0.412238 0.281191 0.156975 0.148251
C23   C     C_R   0.422856 0.501628 0.146335 0.089044
C24   C     C_R   0.416863 0.500318 0.852860 0.091036
H9    H     H_    0.453751 0.126325 0.607835 0.125801
H10   H     H_    0.544612 0.873517 0.392013 0.136818
H11   H     H_    0.546512 0.126235 0.392194 0.127498
H12   H     H_    0.455767 0.873661 0.608006 0.134152
N1    N     N_R   0.500000 0.857200 0.500000 -0.073693
N2    N     N_R   0.500000 0.142800 0.500000 -0.067625
C25   C     C_R   0.479591 0.500000 0.289330 -0.031358
C26   C     C_R   0.476091 0.500335 0.710368 -0.033855
N3    N     N_R   0.397573 0.382321 0.034639 -0.180086
N4    N     N_R   0.399241 0.620389 0.964719 -0.179759
N5    N     N_R   0.395835 0.381965 0.965014 -0.180494
N6    N     N_R   0.401054 0.620746 0.034345 -0.180173
C27   C     C_R   0.398872 0.500955 0.928813 0.286792
C28   C     C_R   0.402585 0.501671 0.070506 0.287196
C29   C     C_3   0.131451 0.221259 0.508308 -0.350588
C30   C     C_3   0.167946 0.173154 0.433867 -0.308304
C31   C     C_3   0.204690 0.023484 0.433007 -0.905916
H13   H     H_    0.271543 0.001628 0.475316 0.279318
H14   H     H_    0.122519 0.959636 0.440931 0.242851
H15   H     H_    0.246104 0.996962 0.381583 0.253161
H16   H     H_    0.090058 0.187205 0.396735 0.200738
H17   H     H_    0.245312 0.233933 0.412811 0.252944
H18   H     H_    0.208902 0.219185 0.546049 0.207906
H19   H     H_    0.076344 0.141768 0.534687 0.184315
C32   C     C_3   0.894668 0.741245 0.452524 -0.411522
C33   C     C_3   0.857403 0.713056 0.376015 -0.313196
C34   C     C_3   0.832366 0.845816 0.336522 -0.902921
H20   H     H_    0.761591 0.907038 0.364080 0.253101
H21   H     H_    0.917957 0.907097 0.332480 0.262299
H22   H     H_    0.798933 0.822327 0.282744 0.253250
H23   H     H_    0.932566 0.657320 0.348901 0.220137
H24   H     H_    0.773419 0.648917 0.373929 0.222358
H25   H     H_    0.818994 0.790322 0.481599 0.232535
H26   H     H_    0.968232 0.818578 0.450500 0.189660
C35   C     C_3   0.868851 0.221620 0.493719 -0.350493
C36   C     C_3   0.831463 0.175071 0.568236 -0.306367
C37   C     C_3   0.797153 0.024801 0.569974 -0.911001
H27   H     H_    0.730108 0.000976 0.527971 0.279719
H28   H     H_    0.880593 0.962646 0.562252 0.241823
H29   H     H_    0.756537 0.998577 0.621636 0.254267
H30   H     H_    0.908460 0.191602 0.605725 0.201454
H31   H     H_    0.752704 0.234934 0.588285 0.253281
H32   H     H_    0.792092 0.218689 0.455547 0.207793
H33   H     H_    0.924121 0.141443 0.468044 0.185409
C38   C     C_3   0.107035 0.736010 0.556341 -0.417192
C39   C     C_3   0.148211 0.698965 0.631220 -0.309099
C40   C     C_3   0.175058 0.826717 0.674528 -0.901431
H34   H     H_    0.245731 0.890349 0.648375 0.250633
H35   H     H_    0.090037 0.888086 0.681131 0.262390
H36   H     H_    0.209466 0.796793 0.727241 0.254898
H37   H     H_    0.074569 0.639712 0.657712 0.220006
H38   H     H_    0.232361 0.635114 0.629905 0.223067
H39   H     H_    0.181153 0.789190 0.527706 0.231171
H40   H     H_    0.032586 0.811823 0.562132 0.191010

loop_
_geom_bond_atom_site_label_1
_geom_bond_atom_site_label_2
_geom_bond_distance
_ccdc_geom_bond_type
C38   C39   1.537679 S    
C13   H11   1.080645 S    
C20   C24   1.403286 A    
C29   H19   1.104977 S    
O3    C2    1.302749 A    
C1    C10   1.455181 S    
C35   C36   1.546912 S    
O5    C3    1.288517 A    
C2    C9    1.456789 S    
O1    C1    1.303363 A    
C16   C26   1.401387 A    
C33   H24   1.109912 S    
N3    C28   1.355318 A    
C34   H21   1.111205 S    
C21   C24   1.402691 A    
O7    Zn1   1.976947 S    
C11   H9    1.080422 S    
C36   H30   1.111416 S    
C16   C20   1.387118 A    
C12   H10   1.080173 S    
C33   C34   1.527119 S    
C38   H39   1.105743 S    
C40   H35   1.111089 S    
O3    Zn1   2.029763 S    
N4    C27   1.355387 A    
C11   N2    1.365528 A    
C12   N1    1.365089 A    
C35   H32   1.106462 S    
C31   H13   1.105381 S    
C30   H17   1.107597 S    
C5    C29   1.546287 S    
C22   C23   1.402850 A    
O2    C2    1.271679 A    
N4    N6    1.326614 A    
C39   H38   1.109593 S    
N5    C27   1.355285 A    
C15   H1    1.083224 S    
C5    C10   1.436534 A    
N6    C28   1.355257 A    
C31   H14   1.102225 S    
C17   H3    1.082868 S    
C32   C33   1.536864 S    
C22   H8    1.082907 S    
O8    Zn2   1.976947 S    
Zn1   N1    1.999699 S    
C36   C37   1.519431 S    
Zn2   N2    1.999699 S    
C17   C21   1.386625 A    
C30   C31   1.520233 S    
C19   H5    1.082884 S    
N3    N5    1.326610 A    
C34   H22   1.110342 S    
C21   H7    1.082923 S    
C23   C28   1.460831 S    
C3    C25   1.456225 S    
C24   C27   1.460831 S    
C18   C25   1.401833 A    
C18   H4    1.083295 S    
O6    C4    1.288861 A    
C38   H40   1.105084 S    
C7    C35   1.546088 S    
C6    C32   1.528874 S    
C40   H36   1.110353 S    
C35   H33   1.104492 S    
C16   H2    1.083060 S    
O1    Zn1   2.029724 S    
C37   H28   1.103710 S    
C30   H16   1.111198 S    
C5    C7    1.408714 A    
C39   H37   1.112119 S    
C31   H15   1.110417 S    
O6    Zn2   1.976726 S    
C13   N2    1.365550 A    
C20   H6    1.082856 S    
C14   N1    1.365031 A    
C29   H18   1.106643 S    
O4    C1    1.269953 A    
C37   H29   1.110382 S    
C4    C26   1.456601 S    
C17   C26   1.401977 A    
C8    C38   1.529696 S    
C19   C23   1.403275 A    
C33   H23   1.112094 S    
C14   H12   1.079629 S    
C29   C30   1.547372 S    
C6    C9    1.408812 A    
C7    C9    1.438225 A    
C8    C10   1.405577 A    
O4    Zn2   2.029764 S    
C34   H20   1.109590 S    
O2    Zn2   2.029723 S    
O7    C4    1.288229 A    
C15   C25   1.401522 A    
O8    C3    1.288525 A    
C37   H27   1.106315 S    
C36   H31   1.107557 S    
O5    Zn1   1.976726 S    
C32   H25   1.104105 S    
C39   C40   1.526809 S    
C18   C22   1.386882 A    
C6    C8    1.386737 A    
C11   C14   1.411189 A    
C12   C13   1.411272 A    
C32   H26   1.103157 S    
C40   H34   1.109563 S    
C15   C19   1.387100 A    
