data_mof_unit_pretest_660.cif
_audit_creation_date              2012-12-11T14:29:26-0500
_audit_creation_method            fapswitch 2.2
_symmetry_space_group_name_H-M    P1
_symmetry_Int_Tables_number       1
_space_group_crystal_system       triclinic
_cell_length_a                    6.933898
_cell_length_b                    14.746172
_cell_length_c                    16.27762
_cell_angle_alpha                 90.629278
_cell_angle_beta                  90.248564
_cell_angle_gamma                 89.795632
_cell_volume                      1664.23510619

loop_
_atom_site_label
_atom_site_type_symbol
_atom_type_description
_atom_site_fract_x
_atom_site_fract_y
_atom_site_fract_z
_atom_type_partial_charge
O1    O     O_R   0.494400 0.416610 0.413880 -0.544786
O2    O     O_R   0.823920 0.406790 0.585520 -0.536892
O3    O     O_R   0.994250 0.583390 0.586120 -0.539087
C1    C     C_R   0.654923 0.382761 0.611143 0.626369
O4    O     O_R   0.824110 0.405730 0.414490 -0.520849
O5    O     O_R   0.994440 0.582310 0.413870 -0.516857
C2    C     C_R   0.655332 0.382682 0.387059 0.828175
O6    O     O_R   0.494210 0.417690 0.586130 -0.536084
O7    O     O_3   0.660810 0.557940 0.500000 -0.366151
V1    V     V_3+5 0.935650 0.489250 0.500000 1.617362
O8    O     O_R   0.324160 0.593210 0.414480 -0.530764
C3    C     C_R   0.154180 0.614031 0.385537 0.799751
O9    O     O_R   0.323970 0.594270 0.585510 -0.532937
C4    C     C_R   0.155154 0.617158 0.613269 0.907195
V2    V     V_3+5 0.435660 0.510750 0.500000 1.583771
O10   O     O_3   0.160630 0.442060 0.500000 -0.364649
C5    C     C_R   0.152740 0.561558 0.785985 0.287594
C6    C     C_R   0.141959 0.535764 0.868778 -0.273149
C7    C     C_R   0.122854 0.600285 0.931489 0.400739
C8    C     C_R   0.115571 0.691505 0.911717 -0.158419
C9    C     C_R   0.125054 0.721222 0.829376 -0.081565
C10   C     C_R   0.141197 0.655706 0.764610 0.018379
C11   C     C_R   0.120326 0.815342 0.812324 -0.084601
C12   C     C_R   0.129335 0.846138 0.729415 -0.058517
C13   C     C_R   0.140404 0.781125 0.663447 -0.077671
C14   C     C_R   0.146425 0.685782 0.681315 -0.119035
C15   C     C_R   0.129852 0.940844 0.710567 0.228121
C16   C     C_R   0.116942 0.969711 0.628654 0.209928
C17   C     C_R   0.125387 0.906713 0.564433 0.193707
C18   C     C_R   0.148524 0.813760 0.580955 0.227866
H1    H     H_    0.149267 0.464644 0.884538 0.146844
H2    H     H_    0.102396 0.738867 0.962640 0.109648
C19   C     C_2   0.983591 0.710451 0.279645 0.317121
C20   C     C_2   0.144099 0.685797 0.322367 -0.256340
H3    H     H_    0.276688 0.723109 0.313179 0.187412
C21   C     C_2   0.983875 0.786801 0.220556 -0.116782
C22   C     C_2   0.128292 0.804070 0.167869 0.190939
H4    H     H_    0.852693 0.827156 0.217212 0.133586
C23   C     C_2   0.773412 0.221509 0.788661 0.381660
C24   C     C_2   0.614555 0.195813 0.831604 0.046708
C25   C     C_2   0.770507 0.298419 0.730579 -0.071068
C26   C     C_2   0.642608 0.305793 0.668583 0.259771
H5    H     H_    0.886953 0.347179 0.735906 0.099761
C27   C     C_2   0.781767 0.203589 0.219454 0.358758
C28   C     C_2   0.615831 0.173667 0.184398 -0.325703
H6    H     H_    0.478714 0.190124 0.213032 0.114011
C29   C     C_2   0.780537 0.255697 0.298975 0.195034
C30   C     C_2   0.645859 0.319889 0.315660 -0.352672
H7    H     H_    0.528394 0.330893 0.272544 0.114746
O11   O     O_R   0.770210 0.079270 0.910680 -0.538994
O12   O     O_R   0.440150 0.091160 0.082270 -0.544310
O13   O     O_R   0.269970 0.914530 0.082860 -0.548168
C31   C     C_R   0.609066 0.112194 0.111554 0.787592
O14   O     O_R   0.440480 0.090100 0.911240 -0.512877
O15   O     O_R   0.270310 0.913460 0.910610 -0.535564
C32   C     C_R   0.609487 0.115891 0.886685 0.724586
O16   O     O_R   0.769870 0.080340 0.082930 -0.507174
O17   O     O_3   0.603660 0.938980 0.996790 -0.389863
V3    V     V_3+5 0.328750 0.007610 0.996740 1.549488
O18   O     O_R   0.940600 0.902510 0.911180 -0.540312
C33   C     C_R   0.109437 0.881072 0.882516 0.799317
O19   O     O_R   0.940270 0.903570 0.082200 -0.551931
C34   C     C_R   0.110651 0.879641 0.108278 0.637660
V4    V     V_3+5 0.828770 0.986010 0.996670 1.533947
O20   O     O_3   0.103730 0.054750 0.996710 -0.351196
Br1   Br    Br    0.096706 0.947288 0.452402 -0.406777
O21   O     O_3   0.289039 0.748090 0.166946 -0.618187
H8    H     H_    0.372514 0.764668 0.120263 0.312520
O22   O     O_3   0.949132 0.179660 0.799241 -0.589856
H9    H     H_    0.984842 0.188477 0.857814 0.318887
Br2   Br    Br    0.386808 0.271783 0.833845 -0.576491
O23   O     O_3   0.505622 0.238844 0.656714 -0.587828
H10   H     H_    0.431323 0.252520 0.606156 0.335323
O24   O     O_3   0.956089 0.182015 0.182923 -0.615843
H11   H     H_    0.059629 0.217218 0.210508 0.309999
Br3   Br    Br    0.979074 0.224636 0.377631 -0.427347
O25   O     O_3   0.177139 0.495066 0.726336 -0.655478
H12   H     H_    0.187686 0.434666 0.752085 0.320787
O26   O     O_3   0.112381 0.576465 0.013104 -0.617955
H13   H     H_    0.119680 0.509479 0.017164 0.303356
O27   O     O_3   0.139149 0.005156 0.772598 -0.609961
H14   H     H_    0.214985 0.057503 0.753311 0.364264
Br4   Br    Br    0.077970 0.096662 0.604756 -0.344995
O28   O     O_3   0.175562 0.754271 0.516255 -0.651351
H15   H     H_    0.251639 0.784570 0.473242 0.315513
Br5   Br    Br    0.735542 0.654198 0.292764 -0.511157

loop_
_geom_bond_atom_site_label_1
_geom_bond_atom_site_label_2
_ccdc_geom_bond_type
C24   Br2   S    
O15   V3    S    
O11   V4    S    
C25   C26   D    
C7    C8    A    
C12   C15   A    
C1    O6    A    
O27   H14   S    
C23   C25   S    
O25   H12   S    
C17   C18   A    
C16   C17   A    
C29   Br3   S    
C20   H3    S    
O5    C3    A    
V2    O10   S    
O15   C33   A    
C19   C21   S    
C6    C7    A    
O19   V4    S    
O8    V2    S    
O28   H15   S    
C24   C32   S    
C11   C12   A    
O1    V2    S    
O7    V1    S    
C27   C29   S    
C28   C31   S    
O9    C4    A    
C16   Br4   S    
C25   H5    S    
C5    O25   S    
C22   C34   S    
C5    C6    A    
O14   V3    S    
O17   V4    S    
O14   C32   A    
O24   H11   S    
O21   H8    S    
C15   O27   S    
C12   C13   A    
C23   C24   D    
O4    C2    A    
C31   O16   A    
O17   V3    S    
C28   H6    S    
O11   C32   A    
O26   H13   S    
O18   C33   A    
O12   C31   A    
O2    C1    A    
C19   Br5   S    
O19   C34   A    
O13   V3    S    
C29   C30   D    
C26   O23   S    
C19   C20   D    
C23   O22   S    
C13   C14   A    
C4    C14   S    
C27   O24   S    
O3    C4    A    
C30   H7    S    
O6    V2    S    
O9    V2    S    
O12   V3    S    
C3    C20   S    
O2    V1    S    
C27   C28   D    
O16   V4    S    
C8    H2    S    
C13   C18   A    
C21   C22   D    
O1    C2    A    
O23   H10   S    
O13   C34   A    
O5    V1    S    
O8    C3    A    
C5    C10   A    
O18   V4    S    
C2    C30   S    
C9    C11   A    
O7    V2    S    
O4    V1    S    
O3    V1    S    
V1    O10   S    
V4    O20   S    
C1    C26   S    
C22   O21   S    
C21   H4    S    
C18   O28   S    
O22   H9    S    
C17   Br1   S    
C11   C33   S    
C8    C9    A    
C10   C14   A    
C15   C16   A    
C6    H1    S    
C9    C10   A    
V3    O20   S    
C7    O26   S    
