data_mof_unit_pretest_88.cif
_audit_creation_date              2013-03-05T16:07:16-0500
_audit_creation_method            fapswitch 2.2
_symmetry_space_group_name_H-M    P1
_symmetry_Int_Tables_number       1
_space_group_crystal_system       triclinic
_cell_length_a                    10.967962
_cell_length_b                    9.669032
_cell_length_c                    17.836253
_cell_angle_alpha                 93.185155
_cell_angle_beta                  97.799372
_cell_angle_gamma                 94.434705
_cell_volume                      1864.23605835

loop_
_atom_site_label
_atom_site_type_symbol
_atom_site_description
_atom_site_fract_x
_atom_site_fract_y
_atom_site_fract_z
_atom_type_partial_charge
O1    O     O_R   0.319640 0.618740 0.499990 -0.536564
O2    O     O_R   0.680360 0.381260 0.500010 -0.536619
O3    O     O_R   0.680360 0.618740 0.500010 -0.522393
O4    O     O_R   0.319640 0.381260 0.499990 -0.522530
C1    C     C_R   0.262464 0.495820 0.501560 0.901660
C2    C     C_R   0.737536 0.504184 0.498442 0.901605
O5    O     O_R   0.500000 0.618830 0.391250 -0.546044
O6    O     O_R   0.500000 0.381170 0.608750 -0.546048
O7    O     O_R   0.500000 0.618830 0.608750 -0.516073
O8    O     O_R   0.500000 0.381170 0.391250 -0.516083
C3    C     C_R   0.045919 0.380969 0.469841 0.221247
C4    C     C_R   0.954079 0.619075 0.530154 0.221186
C5    C     C_R   0.918476 0.391652 0.461843 0.246296
C6    C     C_R   0.081527 0.608377 0.538162 0.246272
C7    C     C_R   0.504499 0.496727 0.355885 0.897659
C8    C     C_R   0.495514 0.503273 0.644116 0.897677
Cu1   Cu    Cu3+1 0.500000 0.640660 0.500000 1.173002
Cu2   Cu    Cu3+1 0.500000 0.359340 0.500000 1.172947
C9    C     C_R   0.871291 0.509095 0.494176 -0.298670
C10   C     C_R   0.128710 0.490928 0.505828 -0.298690
N1    N     N_R   0.500000 0.852070 0.500000 -0.299497
N2    N     N_R   0.500000 0.147930 0.500000 -0.299528
C11   C     C_R   0.539718 0.621645 0.854704 0.233079
C12   C     C_R   0.460553 0.378220 0.145316 0.233061
C13   C     C_R   0.561770 0.613302 0.162303 0.237743
C14   C     C_R   0.438364 0.386631 0.837699 0.237727
C15   C     C_R   0.531934 0.627818 0.775693 0.221556
C16   C     C_R   0.468238 0.372111 0.224325 0.221661
C17   C     C_R   0.570835 0.607982 0.241732 0.231147
C18   C     C_R   0.429213 0.392010 0.758272 0.231233
C19   C     C_R   0.483740 0.509459 0.726718 -0.301866
C20   C     C_R   0.516323 0.490527 0.273289 -0.301926
C21   C     C_R   0.417466 0.058954 0.448795 0.301690
C22   C     C_R   0.582528 0.941046 0.551215 0.301746
C23   C     C_R   0.576557 0.088503 0.553163 0.333767
C24   C     C_R   0.423454 0.911503 0.446833 0.333802
C25   C     C_R   0.495832 0.500396 0.885377 -0.208665
C26   C     C_R   0.504407 0.499472 0.114633 -0.208687
C27   C     C_1   0.498767 0.499324 0.966216 0.215595
C28   C     C_1   0.501506 0.500511 0.033795 0.215589
N3    N     N_R   0.590393 0.740756 0.904011 0.182576
O9    O     O_R   0.542892 0.859403 0.897167 -0.164826
O10   O     O_R   0.686045 0.731462 0.954709 -0.228696
N4    N     N_R   0.410016 0.259037 0.096021 0.182546
O11   O     O_R   0.457584 0.140441 0.102940 -0.164841
O12   O     O_R   0.314395 0.268199 0.045278 -0.228638
N5    N     N_R   0.615148 0.732330 0.130033 0.186179
O13   O     O_R   0.732758 0.769560 0.146313 -0.186033
O14   O     O_R   0.546454 0.802482 0.083356 -0.205363
N6    N     N_R   0.384965 0.267611 0.869962 0.186155
O15   O     O_R   0.267305 0.230563 0.853789 -0.186113
O16   O     O_R   0.453689 0.197292 0.916531 -0.205236
N7    N     N_R   0.573070 0.755629 0.746597 0.186732
O17   O     O_R   0.684289 0.812009 0.770239 -0.188059
O18   O     O_R   0.491476 0.831861 0.713862 -0.214664
N8    N     N_R   0.427106 0.244307 0.253430 0.186752
O19   O     O_R   0.315913 0.187879 0.229756 -0.188025
O20   O     O_R   0.508699 0.168117 0.286206 -0.214626
N9    N     N_R   0.641127 0.718558 0.290125 0.182823
O21   O     O_R   0.626181 0.848002 0.277903 -0.178101
O22   O     O_R   0.728977 0.689874 0.342128 -0.291297
N10   N     N_R   0.358820 0.281502 0.709878 0.182824
O23   O     O_R   0.373692 0.152029 0.722067 -0.178146
O24   O     O_R   0.270976 0.310283 0.657899 -0.291467
N11   N     N_R   0.315529 0.108350 0.399990 0.198806
O25   O     O_R   0.314053 0.235390 0.382016 -0.271668
O26   O     O_R   0.218023 0.025475 0.374032 -0.163764
N12   N     N_R   0.684431 0.891645 0.600054 0.198866
O27   O     O_R   0.685965 0.764568 0.617957 -0.271776
O28   O     O_R   0.781899 0.974531 0.626072 -0.163758
N13   N     N_R   0.642612 0.173818 0.616417 0.175476
O29   O     O_R   0.748352 0.240023 0.610613 -0.267424
O30   O     O_R   0.614379 0.155372 0.683872 -0.241958
N14   N     N_R   0.357421 0.826214 0.383559 0.175448
O31   O     O_R   0.251717 0.759922 0.389361 -0.267437
O32   O     O_R   0.385587 0.844819 0.316102 -0.241791
N15   N     N_R   0.089105 0.257016 0.440472 0.184730
O33   O     O_R   0.121214 0.164035 0.487669 -0.199338
O34   O     O_R   0.058213 0.219586 0.368724 -0.184415
N16   N     N_R   0.910884 0.743093 0.559448 0.184792
O35   O     O_R   0.878256 0.835730 0.512142 -0.199588
O36   O     O_R   0.942058 0.780924 0.631135 -0.184216
N17   N     N_R   0.837097 0.283220 0.418671 0.187321
O37   O     O_R   0.765044 0.311716 0.358364 -0.283264
O38   O     O_R   0.834491 0.156341 0.439658 -0.200272
N18   N     N_R   0.162915 0.716827 0.581309 0.187350
O39   O     O_R   0.235016 0.688359 0.641597 -0.283235
O40   O     O_R   0.165566 0.843671 0.560274 -0.200412

loop_
_geom_bond_atom_site_label_1
_geom_bond_atom_site_label_2
_geom_bond_distance
_ccdc_geom_bond_type
O2    Cu2   1.973116 S    
N3    O9    1.301205 A    
N7    O18   1.301204 A    
O3    C2    1.315164 A    
C16   N8    1.431333 S    
C21   N11   1.449317 S    
C7    C20   1.494662 S    
N5    O14   1.300938 A    
N1    C24   1.361418 A    
N7    O17   1.301930 A    
C8    C19   1.494648 S    
C2    C9    1.476517 S    
N14   O32   1.300699 A    
O1    C1    1.303771 A    
O7    C8    1.314146 A    
C17   C20   1.421762 A    
O8    C7    1.314136 A    
C14   N6    1.435048 S    
C18   C19   1.421750 A    
N18   O40   1.301699 A    
C21   C24   1.430987 A    
N8    O19   1.301939 A    
C22   C23   1.431036 A    
N10   O24   1.301142 A    
C3    N15   1.421451 S    
N5    O13   1.301056 A    
N12   O27   1.287370 A    
N11   O26   1.300787 A    
N6    O16   1.300948 A    
C11   C15   1.405107 A    
C13   N5    1.435072 S    
N15   O33   1.301356 A    
O4    Cu2   2.005709 S    
O5    C7    1.314868 A    
C23   N13   1.435465 S    
N9    O21   1.301250 A    
O6    C8    1.314847 A    
N3    O10   1.300973 A    
O2    C2    1.303805 A    
N4    O12   1.300983 A    
Cu1   Cu2   2.720092 S    
N15   O34   1.302064 A    
C13   C17   1.410769 A    
C1    C10   1.476527 S    
C3    C10   1.408409 A    
N9    O22   1.301155 A    
N14   O31   1.300262 A    
C5    C9    1.410328 A    
C15   C19   1.422036 A    
C6    C10   1.410368 A    
C16   C20   1.422068 A    
C6    N18   1.437986 S    
N16   O36   1.302174 A    
C22   N12   1.449384 S    
C27   C28   1.201038 T    
N13   O30   1.300646 A    
N18   O39   1.301216 A    
N16   O35   1.301500 A    
N1    C22   1.400624 A    
O5    Cu1   1.939449 S    
C11   C25   1.400323 A    
O6    Cu2   1.939449 S    
N10   O23   1.301254 A    
N2    C23   1.361397 A    
C13   C26   1.404949 A    
C12   C26   1.400319 A    
N17   O37   1.301301 A    
N6    O15   1.301108 A    
C24   N14   1.435486 S    
O7    Cu1   1.962768 S    
N17   O38   1.301721 A    
C4    C6    1.398168 A    
C14   C18   1.410740 A    
C18   N10   1.439403 S    
C12   N4    1.436878 S    
N4    O11   1.301207 A    
N2    C21   1.400561 A    
Cu2   N2    2.044131 S    
C12   C16   1.405102 A    
O4    C1    1.315200 A    
C15   N7    1.431325 S    
C14   C25   1.404917 A    
C5    N17   1.438008 S    
O1    Cu1   1.973115 S    
C11   N3    1.436851 S    
N13   O29   1.300250 A    
C25   C27   1.438483 S    
C26   C28   1.438487 S    
C3    C5    1.398103 A    
O8    Cu2   1.962767 S    
C4    N16   1.421543 S    
C4    C9    1.408474 A    
N8    O20   1.301211 A    
O3    Cu1   2.005709 S    
Cu1   N1    2.044130 S    
N12   O28   1.300765 A    
N11   O25   1.287375 A    
C17   N9    1.439407 S    
