data_mof_unit_pretest_703.cif
_audit_creation_date              2012-12-11T17:23:08-0500
_audit_creation_method            fapswitch 2.2
_symmetry_space_group_name_H-M    P1
_symmetry_Int_Tables_number       1
_space_group_crystal_system       triclinic
_cell_length_a                    22.411584
_cell_length_b                    7.096372
_cell_length_c                    19.397683
_cell_angle_alpha                 90.00172
_cell_angle_beta                  99.538093
_cell_angle_gamma                 89.999932
_cell_volume                      3042.37721312

loop_
_atom_site_label
_atom_site_type_symbol
_atom_type_description
_atom_site_fract_x
_atom_site_fract_y
_atom_site_fract_z
_atom_type_partial_charge
O1    O     O_R   0.443980 0.494320 0.557430 -0.533749
O2    O     O_R   0.556020 0.994320 0.442570 -0.533751
O3    O     O_R   0.441210 0.822520 0.414610 -0.537305
O4    O     O_R   0.558790 0.322520 0.585390 -0.537308
C1    C     C_R   0.426679 0.655382 0.388793 0.691013
C2    C     C_R   0.573322 0.155387 0.611207 0.691013
O5    O     O_R   0.436920 0.823940 0.555180 -0.536651
O6    O     O_R   0.563080 0.323940 0.444820 -0.536650
O7    O     O_R   0.551700 0.995760 0.584140 -0.534801
O8    O     O_R   0.448300 0.495760 0.415860 -0.534803
C3    C     C_R   0.421614 0.655400 0.574887 0.719126
C4    C     C_R   0.578386 0.155397 0.425113 0.719127
O9    O     O_3   0.537660 0.661290 0.509340 -0.370404
O10   O     O_3   0.462340 0.161290 0.490660 -0.370404
V1    V     V_3+5 0.493010 0.935560 0.498270 1.425007
V2    V     V_3+5 0.506990 0.435560 0.501730 1.425007
H1    H     H_    0.707469 0.817559 0.293585 0.112273
H2    H     H_    0.292568 0.317564 0.706452 0.112273
C5    C     C_R   0.768857 0.931975 0.229905 -0.155492
C6    C     C_R   0.231164 0.431973 0.770116 -0.155493
H3    H     H_    0.783090 0.794083 0.214977 0.111752
H4    H     H_    0.216948 0.294077 0.785060 0.111751
C7    C     C_R   0.793339 0.095290 0.204643 0.135663
C8    C     C_R   0.206661 0.595284 0.795357 0.135663
C9    C     C_R   0.774058 0.272186 0.224965 -0.155949
C10   C     C_R   0.225921 0.772183 0.775014 -0.155947
H5    H     H_    0.792367 0.400003 0.206166 0.112451
H6    H     H_    0.207596 0.899998 0.793797 0.112451
C11   C     C_R   0.730967 0.285590 0.269835 -0.155682
C12   C     C_R   0.269012 0.785593 0.730145 -0.155683
H7    H     H_    0.716747 0.423483 0.284777 0.111609
H8    H     H_    0.283216 0.923489 0.715187 0.111609
C13   C     C_R   0.706501 0.122274 0.295118 0.135977
C14   C     C_R   0.293499 0.622280 0.704882 0.135977
C15   C     C_R   0.725766 0.945378 0.274773 -0.155818
C16   C     C_R   0.274255 0.445382 0.725248 -0.155816
C17   C     C_1   0.838312 0.081689 0.158445 -0.060026
C18   C     C_1   0.161688 0.581677 0.841555 -0.060025
C19   C     C_1   0.661621 0.135866 0.341438 -0.060560
C20   C     C_1   0.338379 0.635878 0.658562 -0.060559
C21   C     C_1   0.623917 0.145881 0.379818 -0.186754
C22   C     C_1   0.376083 0.645891 0.620182 -0.186754
C23   C     C_1   0.876119 0.071654 0.120202 -0.185882
C24   C     C_1   0.123881 0.571644 0.879798 -0.185881
C25   C     C_R   0.632867 0.172730 0.804207 -0.158789
C26   C     C_R   0.367135 0.672688 0.195792 -0.158788
H9    H     H_    0.545659 0.196351 0.739955 0.107000
H10   H     H_    0.454342 0.696300 0.260044 0.107001
H11   H     H_    0.715021 0.166085 0.919307 0.126198
H12   H     H_    0.284980 0.666043 0.080693 0.126197
H13   H     H_    0.614354 0.193064 0.851868 0.114219
H14   H     H_    0.385648 0.693008 0.148132 0.114219
C27   C     C_R   0.615711 0.148033 0.678077 -0.037278
C28   C     C_R   0.384290 0.648015 0.321923 -0.037277
C29   C     C_R   0.910253 0.045066 0.760423 -0.161671
C30   C     C_R   0.089746 0.545113 0.239577 -0.161672
C31   C     C_R   0.873684 0.045522 0.695132 -0.118633
C32   C     C_R   0.126314 0.545579 0.304868 -0.118633
C33   C     C_R   0.811338 0.070284 0.688968 -0.156815
C34   C     C_R   0.188661 0.570323 0.311032 -0.156814
C35   C     C_R   0.783573 0.095838 0.748700 0.077183
C36   C     C_R   0.216426 0.595851 0.251300 0.077183
C37   C     C_R   0.821640 0.096525 0.815853 0.068532
C38   C     C_R   0.178360 0.596530 0.184147 0.068532
C39   C     C_R   0.719426 0.120480 0.744018 0.074080
C40   C     C_R   0.280574 0.620474 0.255981 0.074080
C41   C     C_R   0.695277 0.146416 0.806656 0.137962
C42   C     C_R   0.304724 0.646391 0.193343 0.137961
C43   C     C_R   0.733404 0.146549 0.871509 -0.198981
C44   C     C_R   0.266597 0.646521 0.128491 -0.198980
C45   C     C_R   0.795454 0.121784 0.876152 -0.191016
C46   C     C_R   0.204547 0.621770 0.123848 -0.191015
C47   C     C_R   0.678133 0.120933 0.679642 -0.214764
C48   C     C_R   0.321867 0.620930 0.320358 -0.214764
C49   C     C_R   0.593581 0.174323 0.740538 -0.166593
C50   C     C_R   0.406420 0.674283 0.259462 -0.166596
C51   C     C_R   0.885249 0.070640 0.821142 -0.080741
C52   C     C_R   0.114751 0.570660 0.178858 -0.080740
H15   H     H_    0.692854 0.102308 0.629945 0.093113
H16   H     H_    0.307145 0.602319 0.370054 0.093113
H17   H     H_    0.958547 0.024300 0.763660 0.105672
H18   H     H_    0.041450 0.524360 0.236340 0.105672
H19   H     H_    0.786183 0.068563 0.636621 0.108483
H20   H     H_    0.213816 0.568612 0.363379 0.108483
H21   H     H_    0.893872 0.025823 0.648654 0.120031
H22   H     H_    0.106126 0.525900 0.351347 0.120031
H23   H     H_    0.822874 0.122849 0.927661 0.110177
H24   H     H_    0.177127 0.622832 0.072338 0.110176
O11   O     O_R   0.051730 0.724670 0.084120 -0.533762
O12   O     O_R   0.948270 0.224670 0.915880 -0.533760
O13   O     O_R   0.063080 0.393540 0.944820 -0.536077
O14   O     O_R   0.936920 0.893540 0.055180 -0.536076
C53   C     C_R   0.078230 0.562116 0.924925 0.715600
C54   C     C_R   0.921770 0.062119 0.075075 0.715600
O15   O     O_R   0.058800 0.395030 0.085390 -0.535853
O16   O     O_R   0.941200 0.895030 0.914610 -0.535855
O17   O     O_R   0.943980 0.223310 0.057440 -0.534048
O18   O     O_R   0.056020 0.723310 0.942560 -0.534046
C55   C     C_R   0.072977 0.563522 0.111236 0.680349
C56   C     C_R   0.927023 0.063518 0.888764 0.680349
O19   O     O_3   0.962360 0.556290 0.990650 -0.369295
O20   O     O_3   0.037640 0.056290 0.009350 -0.369295
V3    V     V_3+5 0.006980 0.281990 0.001730 1.429917
V4    V     V_3+5 0.993020 0.781990 0.998270 1.429918

loop_
_geom_bond_atom_site_label_1
_geom_bond_atom_site_label_2
_ccdc_geom_bond_type
C40   C42   A    
C17   C23   T    
C26   H14   S    
H10   C50   S    
O1    C3    A    
O2    C4    A    
C2    O7    A    
C26   C50   A    
C39   C47   A    
C19   C21   T    
O5    C3    A    
C13   C19   S    
O11   C55   A    
C14   C20   S    
C5    H3    S    
C8    C10   A    
C29   C51   A    
O15   C55   A    
C31   C33   A    
C25   H13   S    
C32   C34   A    
C40   C48   A    
C11   C13   A    
C23   C54   S    
C30   C52   A    
C51   C56   S    
C34   C36   A    
O6    V2    S    
C43   C45   A    
C36   C38   A    
C3    C22   S    
C28   C48   A    
C6    C8    A    
C31   H21   S    
C39   C41   A    
C25   C41   A    
C8    C18   S    
C24   C53   S    
C29   H17   S    
C20   C22   T    
O19   V3    S    
C48   H16   S    
C27   C49   A    
C32   H22   S    
O12   C56   A    
C46   H24   S    
O15   V3    S    
C18   C24   T    
C9    C11   A    
C33   C35   A    
C36   C40   A    
C1    C28   S    
O4    C2    A    
C12   C14   A    
C54   O17   A    
C7    C17   S    
C41   C43   A    
O4    V2    S    
C5    C7    A    
C26   C42   A    
C4    C21   S    
C33   H19   S    
O13   C53   A    
O6    C4    A    
C35   C37   A    
C47   H15   S    
O1    V2    S    
O20   V4    S    
O2    V1    S    
O17   V3    S    
C45   H23   S    
C6    H4    S    
C5    C15   A    
C10   C12   A    
O19   V4    S    
C29   C31   A    
O11   V4    S    
C28   C50   A    
C2    C27   S    
O3    V1    S    
C37   C51   A    
C38   C52   A    
C27   C47   A    
O13   V3    S    
O3    C1    A    
C44   C46   A    
C30   H18   S    
C9    H5    S    
C10   H6    S    
C25   C49   A    
C53   O18   A    
O16   V4    S    
H12   C44   S    
H9    C49   S    
C1    O8    A    
C11   H7    S    
O8    V2    S    
C12   H8    S    
C34   H20   S    
O14   C54   A    
O18   V4    S    
O16   C56   A    
O5    V1    S    
C13   C15   A    
C30   C32   A    
C14   C16   A    
C38   C46   A    
O7    V1    S    
O20   V3    S    
O12   V3    S    
O14   V4    S    
C6    C16   A    
C35   C39   A    
C7    C9    A    
C42   C44   A    
O9    V2    S    
C52   C55   S    
O10   V1    S    
H11   C43   S    
H1    C15   S    
H2    C16   S    
C37   C45   A    
