data_mof_unit_pretest_575.cif
_audit_creation_date              2013-03-05T16:06:48-0500
_audit_creation_method            fapswitch 2.2
_symmetry_space_group_name_H-M    P1
_symmetry_Int_Tables_number       1
_space_group_crystal_system       triclinic
_cell_length_a                    6.956606
_cell_length_b                    14.537829
_cell_length_c                    16.194638
_cell_angle_alpha                 90.436454
_cell_angle_beta                  89.95423
_cell_angle_gamma                 90.058588
_cell_volume                      1637.77879688

loop_
_atom_site_label
_atom_site_type_symbol
_atom_site_description
_atom_site_fract_x
_atom_site_fract_y
_atom_site_fract_z
_atom_type_partial_charge
O1    O     O_R   0.505830 0.583360 0.413880 -0.603395
O2    O     O_R   0.175830 0.595460 0.585520 -0.604151
O3    O     O_R   0.005520 0.416640 0.586120 -0.603228
C1    C     C_R   0.344658 0.617397 0.614471 0.926707
O4    O     O_R   0.176120 0.594390 0.414490 -0.563149
O5    O     O_R   0.005810 0.415570 0.413870 -0.587369
C2    C     C_R   0.344945 0.615868 0.385615 0.967310
O6    O     O_R   0.505540 0.584430 0.586130 -0.595801
O7    O     O_3   0.339200 0.441330 0.500000 -0.282285
V1    V     V_3+5 0.064350 0.510880 0.500000 1.171824
O8    O     O_R   0.676100 0.404540 0.414480 -0.597407
C3    C     C_R   0.845155 0.382354 0.385880 1.016162
O9    O     O_R   0.675810 0.405610 0.585510 -0.601495
C4    C     C_R   0.844941 0.383754 0.613684 0.996302
V2    V     V_3+5 0.564340 0.489120 0.500000 1.159497
O10   O     O_3   0.839360 0.558670 0.500000 -0.280874
C5    C     C_2   0.721014 0.208972 0.786205 -0.078249
C6    C     C_2   0.885780 0.181814 0.822602 -0.455519
H1    H     H_    0.585464 0.180289 0.807212 0.135341
H2    H     H_    0.023021 0.209806 0.803712 0.155666
C7    C     C_2   0.708496 0.277465 0.718253 -0.087249
C8    C     C_2   0.861413 0.315542 0.680525 -0.452070
H3    H     H_    0.564866 0.296478 0.698484 0.133370
H4    H     H_    0.006161 0.297203 0.698454 0.156754
C9    C     C_R   0.727225 0.181570 0.242656 0.158436
C10   C     C_R   0.882339 0.180689 0.187391 -0.221385
C11   C     C_R   0.034068 0.242584 0.203061 -0.158665
H5    H     H_    0.156808 0.244481 0.162219 0.145576
C12   C     C_R   0.022728 0.307152 0.268194 -0.078999
H6    H     H_    0.137743 0.356571 0.275773 0.152272
C13   C     C_R   0.858965 0.312003 0.319405 -0.218841
C14   C     C_R   0.715534 0.245765 0.306867 0.133971
C15   C     C_3   0.505189 0.258706 0.294456 -0.459387
C16   C     C_3   0.517733 0.188357 0.224851 -0.447896
H7    H     H_    0.470649 0.329150 0.272815 0.212368
H8    H     H_    0.419643 0.234502 0.348079 0.183328
H9    H     H_    0.489542 0.217749 0.162864 0.203520
H10   H     H_    0.440215 0.123274 0.238375 0.178689
C17   C     C_R   0.507493 0.681481 0.741479 0.177879
C18   C     C_R   0.353034 0.682108 0.685896 -0.227544
C19   C     C_R   0.201509 0.743575 0.703030 -0.161921
H11   H     H_    0.078924 0.746531 0.662253 0.136874
C20   C     C_R   0.212805 0.806434 0.769662 -0.152919
H12   H     H_    0.097999 0.855675 0.778188 0.132113
C21   C     C_R   0.376286 0.810072 0.821139 -0.231099
C22   C     C_R   0.519160 0.743952 0.807158 0.182497
C23   C     C_3   0.729916 0.756573 0.795557 -0.477546
C24   C     C_3   0.717379 0.688172 0.724356 -0.464133
H13   H     H_    0.814096 0.730629 0.848824 0.205082
H14   H     H_    0.766015 0.827489 0.775589 0.185369
H15   H     H_    0.793599 0.622507 0.736603 0.195218
H16   H     H_    0.747003 0.719166 0.663108 0.188732
C25   C     C_R   0.497589 0.676277 0.255301 0.110547
C26   C     C_R   0.352362 0.680760 0.315318 -0.249579
C27   C     C_R   0.205023 0.745854 0.302772 -0.090691
H17   H     H_    0.085968 0.750446 0.345608 0.115049
C28   C     C_R   0.216061 0.809849 0.237759 -0.173013
H18   H     H_    0.104824 0.861462 0.232567 0.123166
C29   C     C_R   0.375307 0.811066 0.183625 -0.210124
C30   C     C_R   0.509750 0.740283 0.192044 0.152552
C31   C     C_3   0.723882 0.741979 0.193866 -0.585433
C32   C     C_3   0.711541 0.670698 0.262453 0.197307
H19   H     H_    0.780110 0.809495 0.215510 0.169670
H20   H     H_    0.787972 0.715980 0.135270 0.233493
H21   H     H_    0.767423 0.694693 0.323207 0.063140
O11   O     O_R   0.229930 0.912420 0.917160 -0.594533
O12   O     O_R   0.559420 0.902500 0.088780 -0.592836
O13   O     O_R   0.729660 0.081330 0.089380 -0.593216
C33   C     C_R   0.390165 0.880810 0.117481 0.945636
O14   O     O_R   0.559650 0.901420 0.917750 -0.594982
O15   O     O_R   0.729880 0.080250 0.917130 -0.595965
C34   C     C_R   0.390558 0.879568 0.888703 0.941545
O16   O     O_R   0.229700 0.913500 0.089410 -0.593069
O17   O     O_3   0.396250 0.055540 0.003280 -0.278635
V3    V     V_3+5 0.671130 0.986010 0.003260 1.149739
O18   O     O_R   0.059600 0.091310 0.917720 -0.603352
C35   C     C_R   0.890976 0.113212 0.889547 1.009417
O19   O     O_R   0.059370 0.092380 0.088750 -0.602576
C36   C     C_R   0.890550 0.114651 0.117276 0.938715
V4    V     V_3+5 0.171120 0.007820 0.003230 1.146317
O20   O     O_3   0.896130 0.938240 0.003240 -0.274598
N1    N     N_R   0.786317 0.580926 0.236538 0.253372
O21   O     O_R   0.706738 0.534899 0.176291 -0.402015
O22   O     O_R   0.943903 0.550123 0.269261 -0.413326

loop_
_geom_bond_atom_site_label_1
_geom_bond_atom_site_label_2
_geom_bond_distance
_ccdc_geom_bond_type
C27   H17   1.081722 S    
C11   C12   1.408853 A    
C16   H9    1.111651 S    
C19   H11   1.080081 S    
C1    O6    1.299954 A    
C23   H13   1.111555 S    
C21   C22   1.400501 A    
O13   V3    2.000380 S    
C10   C11   1.408264 A    
O5    C3    1.297723 A    
C15   H7    1.111505 S    
O19   V4    2.001999 S    
C28   C29   1.412359 A    
V2    O10   2.163038 S    
C15   H8    1.111527 S    
C31   H19   1.110615 S    
O1    C2    1.300274 A    
C22   C23   1.489320 S    
O8    V2    2.002204 S    
C24   H15   1.111696 S    
O11   C34   1.298472 A    
C13   C14   1.399817 A    
C33   O16   1.297615 A    
O1    V2    2.004743 S    
O7    V1    2.163822 S    
C9    C16   1.489346 S    
C9    C14   1.394343 A    
C32   N1    1.463793 S    
C29   C30   1.398758 A    
O17   V4    1.712265 S    
C7    C8    1.346959 D    
C21   C34   1.486925 S    
C19   C20   1.410901 A    
C25   C30   1.391640 A    
C5    C6    1.350067 D    
C23   H14   1.111277 S    
C7    H3    1.086135 S    
O17   V3    2.163868 S    
C1    C18   1.486533 S    
O18   C35   1.299785 A    
C17   C18   1.402359 A    
O4    C2    1.302343 A    
O19   C36   1.301969 A    
V3    O20   1.713032 S    
C9    C10   1.401387 A    
C25   C26   1.402577 A    
C5    C7    1.492342 S    
C30   C31   1.490124 S    
O12   C33   1.304770 A    
C31   H20   1.111903 S    
O2    C1    1.303363 A    
C20   H12   1.081143 S    
C12   H6    1.081233 S    
C25   C32   1.495306 S    
C23   C24   1.519399 S    
C15   C16   1.518779 S    
C20   C21   1.411347 A    
O3    C4    1.295019 A    
C29   C33   1.484023 S    
C17   C22   1.395714 A    
C18   C19   1.408659 A    
O6    V2    2.000898 S    
N1    O22   1.299501 A    
O9    V2    2.005539 S    
C3    C13   1.482382 S    
C8    H4    1.082375 S    
O12   V3    2.004481 S    
O2    V1    2.001329 S    
O15   C35   1.298637 A    
C26   C27   1.411606 A    
C32   H21   1.111727 S    
C16   H10   1.111728 S    
O18   V4    2.005497 S    
V4    O20   2.163057 S    
O5    V1    2.000408 S    
O8    C3    1.303557 A    
O11   V4    2.001145 S    
C10   C36   1.482454 S    
C14   C15   1.489506 S    
C4    C8    1.478182 S    
C27   C28   1.412314 A    
O7    V2    1.712743 S    
O4    V1    2.004530 S    
C12   C13   1.410105 A    
O3    V1    2.004172 S    
V1    O10   1.713087 S    
O15   V3    2.004174 S    
C28   H18   1.082195 S    
O13   C36   1.299165 A    
C6    C35   1.479161 S    
C5    H1    1.086123 S    
O16   V4    2.006325 S    
C6    H2    1.082286 S    
C31   C32   1.527152 S    
C24   H16   1.111586 S    
N1    O21   1.302420 A    
O14   V3    2.001309 S    
O14   C34   1.305278 A    
C2    C26   1.484872 S    
O9    C4    1.302810 A    
C17   C24   1.489195 S    
C11   H5    1.080105 S    
