data_mof_unit_pretest_1047.cif
_audit_creation_date              2012-12-10T18:43:41-0500
_audit_creation_method            fapswitch 2.2
_symmetry_space_group_name_H-M    P1
_symmetry_Int_Tables_number       1
_space_group_crystal_system       triclinic
_cell_length_a                    10.814525
_cell_length_b                    10.67564
_cell_length_c                    9.84949
_cell_angle_alpha                 89.799854
_cell_angle_beta                  103.96618
_cell_angle_gamma                 90.193475
_cell_volume                      1103.51676749

loop_
_atom_site_label
_atom_site_type_symbol
_atom_type_description
_atom_site_fract_x
_atom_site_fract_y
_atom_site_fract_z
_atom_type_partial_charge
C1    C     C_R   0.502339 0.260224 0.500886 0.878770
C2    C     C_R   0.497656 0.739774 0.499117 0.871573
C3    C     C_R   0.259036 0.503617 0.441743 0.941911
C4    C     C_R   0.740973 0.503581 0.558232 0.944796
C5    C     C_R   0.576462 0.580591 0.091832 -0.061295
C6    C     C_R   0.423550 0.419405 0.908176 -0.062623
C7    C     C_R   0.576440 0.580549 0.947992 -0.061242
C8    C     C_R   0.423563 0.419453 0.052010 -0.060822
C9    C     C_2   0.122746 0.517769 0.408649 -0.363090
C10   C     C_2   0.877346 0.517466 0.591247 -0.367796
C11   C     C_2   0.067986 0.542445 0.512865 -0.148036
C12   C     C_2   0.932244 0.542669 0.487010 -0.149841
C13   C     C_R   0.423547 0.067043 0.388694 -0.238990
C14   C     C_R   0.576399 0.932929 0.611326 -0.238522
C15   C     C_R   0.418898 0.938387 0.386113 -0.000873
C16   C     C_R   0.580992 0.061580 0.613951 -0.001277
C17   C     C_R   0.496443 0.872210 0.498179 -0.073210
C18   C     C_R   0.503515 0.127771 0.501837 -0.075610
H1    H     H_    0.877359 0.554229 0.379497 0.186136
H2    H     H_    0.122914 0.553217 0.620419 0.190486
H3    H     H_    0.637640 0.645024 0.162216 0.126615
H4    H     H_    0.362396 0.354952 0.837805 0.131892
H5    H     H_    0.932626 0.505631 0.698437 0.155247
H6    H     H_    0.067414 0.506652 0.301424 0.154862
H7    H     H_    0.637581 0.644961 0.909457 0.125450
H8    H     H_    0.362428 0.355036 0.090544 0.125593
H9    H     H_    0.363182 0.120224 0.304097 0.150943
H10   H     H_    0.636763 0.879743 0.695921 0.151197
N1    N     N_R   0.499970 0.499970 0.857200 -0.080693
N2    N     N_R   0.500030 0.500030 0.142800 -0.079708
O1    O     O_R   0.499990 0.316750 0.614620 -0.613501
O2    O     O_R   0.500010 0.683250 0.385380 -0.616333
O3    O     O_R   0.499990 0.316780 0.385290 -0.620624
O4    O     O_R   0.500010 0.683220 0.614710 -0.623845
O5    O     O_R   0.317810 0.500000 0.571850 -0.620383
O6    O     O_R   0.682190 0.500000 0.428150 -0.618563
O7    O     O_R   0.317810 0.500030 0.342520 -0.613293
O8    O     O_R   0.682190 0.499970 0.657480 -0.613167
Zn1   Zn    Zn3+2 0.500000 0.499980 0.653120 0.956772
Zn2   Zn    Zn3+2 0.500000 0.500020 0.346880 0.957841
C19   C     C_1   0.331114 0.877217 0.271045 0.175445
N3    N     N_1   0.260907 0.828221 0.179058 -0.198824
C20   C     C_1   0.668602 0.122718 0.729180 0.175033
N4    N     N_1   0.738663 0.171675 0.821316 -0.198401

loop_
_geom_bond_atom_site_label_1
_geom_bond_atom_site_label_2
_ccdc_geom_bond_type
O5    Zn1   S    
C11   C12   S    
C4    O6    A    
C9    H6    S    
C15   C17   A    
C3    C9    S    
C10   H5    S    
C8    H8    S    
C19   N3    T    
C7    H7    S    
C3    O5    A    
C20   N4    T    
C8    N2    A    
C2    O4    A    
C13   C15   A    
C1    O3    A    
C2    C17   S    
C9    C11   D    
C16   C20   S    
N1    Zn1   S    
C1    C18   S    
C10   C12   D    
C13   C18   A    
C7    N1    A    
C12   H1    S    
C16   C18   A    
C4    O8    A    
O7    Zn2   S    
O2    Zn2   S    
O8    Zn1   S    
C14   C16   A    
C11   H2    S    
O3    Zn2   S    
C4    C10   S    
O4    Zn1   S    
C6    H4    S    
C1    O1    A    
C6    N1    A    
C5    H3    S    
C15   C19   S    
C2    O2    A    
C5    N2    A    
C5    C7    A    
N2    Zn2   S    
C13   H9    S    
O6    Zn2   S    
C6    C8    A    
C14   H10   S    
C3    O7    A    
O1    Zn1   S    
C14   C17   A    
