data_mof_unit_pretest_1173.cif
_audit_creation_date              2012-12-11T14:23:16-0500
_audit_creation_method            fapswitch 2.2
_symmetry_space_group_name_H-M    P1
_symmetry_Int_Tables_number       1
_space_group_crystal_system       triclinic
_cell_length_a                    11.035609
_cell_length_b                    10.982779
_cell_length_c                    18.746934
_cell_angle_alpha                 89.929954
_cell_angle_beta                  89.367151
_cell_angle_gamma                 60.423488
_cell_volume                      1975.94711155

loop_
_atom_site_label
_atom_site_type_symbol
_atom_type_description
_atom_site_fract_x
_atom_site_fract_y
_atom_site_fract_z
_atom_type_partial_charge
C1    C     C_R   0.233898 0.646463 0.609583 0.573555
C2    C     C_R   0.559702 0.188956 0.718583 -0.125378
C3    C     C_R   0.571037 0.194578 0.790556 -0.150355
C4    C     C_R   0.654958 0.622871 0.600178 0.580508
C5    C     C_R   0.942301 0.123342 0.803345 0.006871
C6    C     C_R   0.050557 0.094787 0.754906 -0.158387
C7    C     C_R   0.036676 0.082477 0.682671 -0.155249
C8    C     C_R   0.914501 0.096241 0.656961 -0.082822
C9    C     C_R   0.669587 0.166116 0.673459 0.021694
C10   C     C_R   0.189969 0.662144 0.836490 -0.004346
C11   C     C_R   0.198419 0.545894 0.800132 0.012980
C12   C     C_3   0.645009 0.604946 0.803148 -0.112309
C13   C     C_R   0.187391 0.548435 0.724661 0.029243
C14   C     C_R   0.210769 0.757712 0.725168 -0.133737
C15   C     C_R   0.207885 0.760645 0.798527 -0.154292
C16   C     C_R   0.629596 0.224292 0.601441 0.591921
C17   C     C_R   0.220130 0.426513 0.838051 -0.090337
C18   C     C_R   0.218484 0.315442 0.804013 -0.025202
C19   C     C_R   0.192689 0.322859 0.730917 -0.166678
C20   C     C_R   0.177117 0.438076 0.691525 -0.120062
C21   C     C_R   0.193469 0.658044 0.686122 0.022918
C22   C     C_R   0.668150 0.651603 0.169633 -0.012197
C23   C     C_3   0.720366 0.694103 0.808232 0.013315
C24   C     C_R   0.784857 0.556865 0.211789 0.008797
C25   C     C_R   0.785855 0.585894 0.284448 0.001832
C26   C     C_R   0.532537 0.725400 0.277817 -0.159477
C27   C     C_R   0.539492 0.730467 0.203591 -0.041846
C28   C     C_R   0.221586 0.648791 0.402212 0.564770
C29   C     C_R   0.900623 0.434431 0.183961 -0.091609
C30   C     C_R   0.023222 0.364411 0.221723 -0.166631
C31   C     C_R   0.030716 0.406191 0.290471 -0.133022
C32   C     C_R   0.915251 0.521165 0.321171 0.026440
C33   C     C_R   0.655232 0.660100 0.318945 -0.019637
C34   C     C_3   0.678432 0.653957 0.674501 0.024364
C35   C     C_R   0.628512 0.172568 0.173954 0.007885
C36   C     C_R   0.547819 0.134371 0.219345 0.020827
C37   C     C_R   0.580941 0.114208 0.291899 0.005657
C38   C     C_R   0.688027 0.260842 0.275796 -0.148623
C39   C     C_R   0.691702 0.243084 0.202660 -0.165873
C40   C     C_R   0.641873 0.623508 0.392359 0.562524
C41   C     C_R   0.433080 0.120639 0.196490 -0.089660
C42   C     C_R   0.365201 0.074904 0.243616 -0.156443
C43   C     C_R   0.415525 0.032543 0.311894 -0.126228
C44   C     C_R   0.530612 0.041185 0.334410 0.015605
C45   C     C_3   0.828513 0.629652 0.683269 -0.261573
C46   C     C_R   0.644075 0.186957 0.320871 0.006737
C47   C     C_R   0.067621 0.724455 0.195041 0.017212
C48   C     C_R   0.035873 0.838932 0.242497 0.009802
C49   C     C_R   0.053548 0.812458 0.316229 0.010767
C50   C     C_R   0.190761 0.563536 0.288888 -0.163014
C51   C     C_R   0.145753 0.587560 0.219453 -0.135583
C52   C     C_R   0.616224 0.232013 0.394395 0.550324
C53   C     C_R   0.000551 0.975641 0.220184 -0.091494
C54   C     C_R   0.988799 0.075596 0.269407 -0.159659
C55   C     C_R   0.980767 0.054852 0.341723 -0.122392
C56   C     C_3   0.667541 0.546849 0.726891 -0.133769
C57   C     C_R   0.000502 0.926593 0.365067 0.014142
C58   C     C_R   0.143475 0.674539 0.337546 0.012943
C59   C     C_R   0.705259 0.101102 0.895517 0.543207
C60   C     C_R   0.752811 0.709959 0.882988 0.551539
C61   C     C_R   0.121348 0.704319 0.906728 0.538902
C62   C     C_R   0.671402 0.109259 0.103284 0.541212
C63   C     C_R   0.696626 0.685776 0.096999 0.553104
C64   C     C_3   0.620878 0.837547 0.771822 -0.258069
C65   C     C_R   0.031669 0.745336 0.119728 0.551007
C66   C     C_3   0.573671 0.807938 0.698945 -0.126977
C67   C     C_R   0.697549 0.157046 0.822715 0.000893
C68   C     C_3   0.858386 0.629208 0.763809 -0.261453
C69   C     C_1   0.965198 0.156379 0.874601 0.274681
C70   C     C_1   0.257661 0.190151 0.844518 0.152560
C71   C     C_1   0.413601 0.802309 0.162708 0.206189
C72   C     C_1   0.933360 0.572225 0.389171 0.215545
C73   C     C_1   0.598010 0.970761 0.399459 0.208445
C74   C     C_1   0.557759 0.911454 0.644810 0.178007
C75   C     C_1   0.965477 0.914233 0.438287 0.230075
C76   C     C_1   0.678708 0.495567 0.857203 0.222378
C77   C     C_1   0.560586 0.511281 0.709479 0.183344
C78   C     C_R   0.814226 0.135944 0.778455 0.004132
C79   C     C_R   0.799765 0.131725 0.702688 0.001226
Cr1   Cr    Cr6+3 0.392940 0.397950 0.502230 1.048860
Cr2   Cr    Cr6+3 0.398400 0.708500 0.501260 1.038748
Cr3   Cr    Cr6+3 0.708640 0.393530 0.496460 1.019835
Cr4   Cr    Cr6+3 0.937880 0.938320 0.007620 1.053151
Cr5   Cr    Cr6+3 0.625560 0.937220 0.994510 1.053227
Cr6   Cr    Cr6+3 0.938080 0.625010 0.001190 1.029466
H1    H     H_    0.676250 0.898405 0.764666 0.132750
H2    H     H_    0.247468 0.415234 0.893976 0.140046
H3    H     H_    0.214657 0.843930 0.825722 0.151691
H4    H     H_    0.430829 0.769262 0.303237 0.144646
H5    H     H_    0.111638 0.276815 0.197039 0.110948
H6    H     H_    0.127259 0.349815 0.319388 0.121475
H7    H     H_    0.468884 0.818115 0.706295 0.107874
H8    H     H_    0.387876 0.153983 0.144409 0.154347
H9    H     H_    0.744832 0.282275 0.168821 0.119395
H10   H     H_    0.277123 0.065541 0.226394 0.132113
H11   H     H_    0.366447 0.990353 0.346701 0.122166
H12   H     H_    0.906263 0.527705 0.659534 0.143480
H13   H     H_    0.266430 0.457668 0.303965 0.142335
H14   H     H_    0.988422 0.009106 0.165816 0.181558
H15   H     H_    0.181643 0.498804 0.183606 0.148925
H16   H     H_    0.968760 0.175892 0.250974 0.126319
H17   H     H_    0.954309 0.140166 0.378788 0.133699
H18   H     H_    0.912732 0.690285 0.772513 0.120603
H19   H     H_    0.840468 0.712771 0.655484 0.150856
H20   H     H_    0.531378 0.677119 0.812398 0.116834
H21   H     H_    0.767198 0.445202 0.724345 0.133725
H22   H     H_    0.927439 0.520057 0.781723 0.165547
H23   H     H_    0.458828 0.215126 0.698195 0.174919
H24   H     H_    0.191270 0.237185 0.703390 0.114648
H25   H     H_    0.155029 0.439316 0.635554 0.144538
H26   H     H_    0.897218 0.389649 0.133150 0.150596
H27   H     H_    0.725835 0.327352 0.297239 0.150059
H28   H     H_    0.480600 0.218385 0.822181 0.159870
H29   H     H_    0.149701 0.077377 0.772793 0.123988
H30   H     H_    0.122809 0.058705 0.646482 0.117968
H31   H     H_    0.911198 0.078278 0.600614 0.158992
H32   H     H_    0.235983 0.830045 0.699229 0.141756
H33   H     H_    0.526536 0.902446 0.805017 0.161497
N1    N     N_1   0.985621 0.182703 0.931477 -0.244588
N2    N     N_1   0.290992 0.090048 0.877915 -0.308203
N3    N     N_1   0.313044 0.859737 0.129581 -0.274363
N4    N     N_1   0.947342 0.612338 0.443829 -0.272539
N5    N     N_1   0.652445 0.913639 0.451280 -0.236839
N6    N     N_1   0.543902 0.990589 0.600707 -0.262676
N7    N     N_1   0.937362 0.903807 0.496764 -0.290832
N8    N     N_1   0.699839 0.413551 0.901021 -0.274624
N9    N     N_1   0.479218 0.478855 0.696078 -0.289156
O1    O     O_R   0.507340 0.255690 0.581430 -0.487768
O2    O     O_R   0.837290 0.593240 0.915240 -0.491467
O3    O     O_R   0.065320 0.635310 0.931580 -0.522548
O4    O     O_R   0.280360 0.527380 0.578910 -0.496216
O5    O     O_R   0.068470 0.828620 0.091850 -0.501281
O6    O     O_R   0.799150 0.057200 0.079350 -0.525560
O7    O     O_R   0.585220 0.080180 0.076770 -0.524938
O8    O     O_R   0.627170 0.809480 0.067050 -0.475423
O9    O     O_R   0.816200 0.596410 0.076500 -0.528190
O10   O     O_R   0.045770 0.638240 0.081070 -0.502546
O11   O     O_3   0.833840 0.833520 0.001110 -0.299845
O12   O     O_R   0.524510 0.695820 0.424050 -0.504943
O13   O     O_R   0.260600 0.739610 0.584580 -0.522671
O14   O     O_R   0.532370 0.695050 0.573830 -0.488873
O15   O     O_R   0.744850 0.503430 0.576380 -0.520668
O16   O     O_R   0.699080 0.276500 0.571950 -0.510898
O17   O     O_R   0.498860 0.256520 0.419860 -0.514022
O18   O     O_R   0.272490 0.528150 0.429140 -0.504818
O19   O     O_R   0.252110 0.740440 0.423010 -0.526901
O20   O     O_R   0.736370 0.504260 0.414810 -0.519819
O21   O     O_R   0.691220 0.277270 0.422180 -0.523934
O22   O     O_3   0.499990 0.499990 0.499980 -0.261334
O23   O     O_R   0.089570 0.825450 0.930590 -0.498487
O24   O     O_R   0.818700 0.054260 0.929860 -0.487421
O25   O     O_R   0.606310 0.077010 0.915520 -0.522709
O26   O     O_R   0.646730 0.806540 0.917560 -0.492048

loop_
_geom_bond_atom_site_label_1
_geom_bond_atom_site_label_2
_ccdc_geom_bond_type
C18   C70   S    
Cr2   O13   S    
C74   N6    T    
Cr5   O8    S    
C34   C56   S    
C76   N8    T    
C41   C42   A    
C54   H16   S    
C19   C20   A    
C68   H18   S    
Cr3   O15   S    
C28   C58   S    
C34   C66   S    
Cr3   O20   S    
C64   H33   S    
C7    C8    A    
C32   C72   S    
C59   O25   A    
C53   H14   S    
C26   H4    S    
C1    C21   S    
C12   C23   S    
Cr5   O7    S    
C28   O18   A    
C52   O17   A    
C5    C6    A    
C14   C21   A    
C36   C37   A    
C9    C16   S    
C10   C15   A    
C4    O15   A    
C12   H20   S    
Cr2   O22   S    
Cr1   O22   S    
C66   C74   S    
C40   O12   A    
C46   C52   S    
C49   C57   A    
C18   C19   A    
C9    C79   A    
C7    H30   S    
C60   O26   A    
C6    H29   S    
C5    C69   S    
C59   C67   S    
C22   C63   S    
C24   C29   A    
C41   H8    S    
C35   C36   A    
C70   N2    T    
Cr1   O17   S    
C8    C79   A    
C68   H22   S    
C61   O23   A    
C77   N9    T    
C30   H5    S    
Cr4   O23   S    
Cr6   O2    S    
C25   C32   A    
Cr2   O14   S    
Cr5   O11   S    
C52   O21   A    
Cr1   O4    S    
C36   C41   A    
C23   C60   S    
C67   C78   A    
C64   H1    S    
C71   N3    T    
C50   C51   A    
Cr4   O24   S    
C19   H24   S    
C48   C53   A    
C4    C34   S    
C50   H13   S    
C33   C40   S    
C38   C46   A    
C42   H10   S    
C50   C58   A    
C47   C48   A    
C16   O16   A    
C24   C25   A    
C3    H28   S    
C4    O14   A    
C8    H31   S    
C78   C79   A    
C66   H7    S    
Cr1   O1    S    
C73   N5    T    
C53   C54   A    
C69   N1    T    
C49   C58   A    
C75   N7    T    
C63   O8    A    
C23   C68   S    
C35   C39   A    
C43   C44   A    
C39   H9    S    
C29   C30   A    
C45   H19   S    
Cr6   O3    S    
C43   H11   S    
Cr5   O26   S    
C26   C33   A    
Cr3   O21   S    
C31   C32   A    
C55   H17   S    
C30   C31   A    
C14   H32   S    
C45   C68   S    
C17   C18   A    
C26   C27   A    
C13   C21   A    
C34   C45   S    
C16   O1    A    
C56   H21   S    
C12   C56   S    
C1    O13   A    
C61   O3    A    
C20   H25   S    
Cr5   O25   S    
C23   C64   S    
C31   H6    S    
C22   C27   A    
C55   C57   A    
C22   C24   A    
C10   C61   S    
C42   C43   A    
C38   H27   S    
Cr6   O10   S    
C65   O5    A    
C27   C71   S    
C62   O6    A    
C51   H15   S    
Cr2   O12   S    
C54   C55   A    
Cr1   O18   S    
C13   C20   A    
C72   N4    T    
C17   H2    S    
C29   H26   S    
C3    C67   A    
Cr3   O16   S    
C1    O4    A    
C11   C17   A    
C60   O2    A    
C47   C51   A    
C6    C7    A    
C59   O24   A    
C28   O19   A    
C63   O9    A    
C62   O7    A    
C37   C44   A    
C12   C76   S    
C2    C3    A    
C5    C78   A    
C65   O10   A    
Cr4   O5    S    
C64   C66   S    
C45   H12   S    
C11   C13   A    
C57   C75   S    
C38   C39   A    
C48   C49   A    
C2    H23   S    
C47   C65   S    
C35   C62   S    
C44   C73   S    
Cr4   O6    S    
Cr3   O22   S    
C10   C11   A    
C56   C77   S    
Cr6   O9    S    
Cr2   O19   S    
C14   C15   A    
C37   C46   A    
C2    C9    A    
Cr6   O11   S    
C40   O20   A    
Cr4   O11   S    
C25   C33   A    
C15   H3    S    
