data_mof_unit_pretest_1222.cif
_audit_creation_date              2013-03-05T16:06:00-0500
_audit_creation_method            fapswitch 2.2
_symmetry_space_group_name_H-M    P1
_symmetry_Int_Tables_number       1
_space_group_crystal_system       triclinic
_cell_length_a                    10.814975
_cell_length_b                    9.632074
_cell_length_c                    23.514681
_cell_angle_alpha                 90.000843
_cell_angle_beta                  91.143268
_cell_angle_gamma                 90.000553
_cell_volume                      2449.05172673

loop_
_atom_site_label
_atom_site_type_symbol
_atom_site_description
_atom_site_fract_x
_atom_site_fract_y
_atom_site_fract_z
_atom_type_partial_charge
O1    O     O_R   0.319640 0.618740 0.500000 -0.568893
O2    O     O_R   0.680360 0.381260 0.500000 -0.561610
O3    O     O_R   0.680360 0.618740 0.500000 -0.568891
O4    O     O_R   0.319640 0.381260 0.500000 -0.561604
C1    C     C_R   0.262421 0.500005 0.499989 0.782527
C2    C     C_R   0.737578 0.500006 0.500011 0.782543
O5    O     O_R   0.499960 0.618810 0.417880 -0.549685
O6    O     O_R   0.500040 0.381190 0.582120 -0.545821
O7    O     O_R   0.500040 0.618810 0.582120 -0.549674
O8    O     O_R   0.499960 0.381190 0.417880 -0.545812
C3    C     C_R   0.499555 0.499396 0.391317 0.811753
C4    C     C_R   0.500441 0.499398 0.608683 0.811776
Cu1   Cu    Cu3+1 0.500000 0.640660 0.500000 1.031216
Cu2   Cu    Cu3+1 0.500000 0.359340 0.500000 1.032531
C5    C     C_R   0.612274 0.450364 0.882579 0.512865
C6    C     C_R   0.387902 0.450284 0.117422 0.512629
N1    N     N_R   0.504814 0.474839 0.852044 -0.438543
N2    N     N_R   0.495323 0.474993 0.147954 -0.438544
C7    C     C_R   0.394949 0.494454 0.879310 0.518759
C8    C     C_R   0.605162 0.494776 0.120688 0.518824
C9    C     C_R   0.389581 0.480715 0.938553 -0.014715
C10   C     C_R   0.610553 0.480999 0.061445 -0.014580
C11   C     C_R   0.500960 0.470981 0.970092 -0.018362
C12   C     C_R   0.499189 0.471012 0.029907 -0.018204
C13   C     C_R   0.614089 0.461280 0.942010 -0.013463
C14   C     C_R   0.386074 0.461121 0.057990 -0.013415
C15   C     C_R   0.276506 0.477517 0.966984 -0.165966
C16   C     C_R   0.723632 0.477986 0.033014 -0.166052
C17   C     C_R   0.274804 0.462363 0.026079 -0.167924
C18   C     C_R   0.725357 0.462771 0.973920 -0.167858
O9    O     O_2   0.716522 0.414575 0.855572 -0.557688
O10   O     O_2   0.283688 0.414402 0.144439 -0.557550
O11   O     O_2   0.291597 0.528148 0.849300 -0.556619
O12   O     O_2   0.708472 0.528631 0.150699 -0.556804
H1    H     H_    0.189353 0.482844 0.943581 0.184744
H2    H     H_    0.810777 0.483505 0.056416 0.184751
H3    H     H_    0.186391 0.456508 0.046792 0.182820
H4    H     H_    0.813778 0.457062 0.953209 0.182800
C19   C     C_R   0.570219 0.388170 0.242012 0.145724
C20   C     C_R   0.429953 0.388019 0.757981 0.145669
C21   C     C_R   0.590080 0.418994 0.300318 0.077662
C22   C     C_R   0.410005 0.418898 0.699686 0.077722
C23   C     C_R   0.498151 0.495634 0.328774 -0.092587
C24   C     C_R   0.501860 0.495638 0.671226 -0.092569
C25   C     C_R   0.400998 0.559130 0.297140 0.064300
C26   C     C_R   0.598990 0.559187 0.702857 0.064031
C27   C     C_R   0.415064 0.574267 0.237776 0.142258
C28   C     C_R   0.584943 0.574293 0.762224 0.141969
C29   C     C_R   0.493312 0.479060 0.209420 0.268346
C30   C     C_R   0.506817 0.478948 0.790579 0.268771
C31   C     C_R   0.063890 0.374051 0.500358 -0.148517
C32   C     C_R   0.936087 0.626165 0.499798 -0.152447
C33   C     C_R   0.936108 0.374051 0.499643 -0.148511
C34   C     C_R   0.063915 0.626165 0.500201 -0.152423
H5    H     H_    0.111674 0.275385 0.501181 0.202377
H6    H     H_    0.888211 0.724828 0.499311 0.203004
H7    H     H_    0.888322 0.275385 0.498820 0.202379
H8    H     H_    0.111794 0.724827 0.500687 0.202997
C35   C     C_R   0.871594 0.500078 0.499817 -0.046734
C36   C     C_R   0.128406 0.500077 0.500184 -0.046726
C37   C     C_R   0.436399 0.074306 0.458956 0.286118
C38   C     C_R   0.563095 0.926453 0.541120 0.307627
C39   C     C_R   0.563601 0.074310 0.541044 0.286128
C40   C     C_R   0.436905 0.926450 0.458880 0.307628
N3    N     N_R   0.500000 0.852070 0.500000 -0.317317
N4    N     N_R   0.500000 0.147930 0.500000 -0.324763
C41   C     C_3   0.626147 0.257824 0.215700 -0.381367
C42   C     C_3   0.528775 0.163631 0.187818 -0.781651
H9    H     H_    0.572317 0.062849 0.177197 0.237203
H10   H     H_    0.451520 0.144504 0.217269 0.286072
H11   H     H_    0.492300 0.207924 0.147493 0.255056
H12   H     H_    0.697851 0.284336 0.184551 0.235831
H13   H     H_    0.671087 0.191360 0.248456 0.206946
C43   C     C_3   0.374190 0.257561 0.784272 -0.381422
C44   C     C_3   0.471719 0.163396 0.812046 -0.781570
H14   H     H_    0.548738 0.144146 0.782477 0.286171
H15   H     H_    0.508526 0.207775 0.852294 0.255178
H16   H     H_    0.428201 0.062677 0.822778 0.237087
H17   H     H_    0.302575 0.283919 0.815485 0.235811
H18   H     H_    0.329182 0.191134 0.751521 0.206993
C45   C     C_3   0.710840 0.378981 0.331102 -0.397322
C46   C     C_3   0.785998 0.507456 0.348200 -0.810605
H19   H     H_    0.808252 0.569265 0.309847 0.272332
H20   H     H_    0.735410 0.574273 0.378191 0.246182
H21   H     H_    0.873992 0.474691 0.369333 0.244648
H22   H     H_    0.692465 0.314314 0.369028 0.231384
H23   H     H_    0.773252 0.317989 0.304075 0.211022
C47   C     C_3   0.289248 0.378801 0.668919 -0.397207
C48   C     C_3   0.214017 0.507221 0.651822 -0.810641
H24   H     H_    0.191757 0.569034 0.690173 0.272317
H25   H     H_    0.264552 0.574056 0.621819 0.246120
H26   H     H_    0.126026 0.474390 0.630703 0.244665
H27   H     H_    0.307630 0.314129 0.630995 0.231415
H28   H     H_    0.226883 0.317786 0.695961 0.211029
C49   C     C_3   0.278495 0.594571 0.324926 -0.319693
C50   C     C_3   0.173694 0.504274 0.300965 -0.793935
H29   H     H_    0.158286 0.524501 0.254892 0.269080
H30   H     H_    0.195893 0.392652 0.307362 0.289077
H31   H     H_    0.086880 0.528243 0.323403 0.245239
H32   H     H_    0.281627 0.576376 0.371440 0.223394
H33   H     H_    0.253912 0.705152 0.319407 0.259839
C51   C     C_3   0.721513 0.594578 0.675072 -0.319691
C52   C     C_3   0.826280 0.504241 0.699036 -0.793819
H34   H     H_    0.841691 0.524470 0.745110 0.269081
H35   H     H_    0.804045 0.392623 0.692638 0.289059
H36   H     H_    0.913103 0.528176 0.676597 0.245224
H37   H     H_    0.718377 0.576379 0.628558 0.223408
H38   H     H_    0.746153 0.705142 0.680587 0.259716
C53   C     C_3   0.352281 0.694136 0.205963 -0.362087
C54   C     C_3   0.447075 0.798318 0.184803 -0.807361
H39   H     H_    0.505573 0.836217 0.220954 0.276741
H40   H     H_    0.506913 0.751501 0.152265 0.259711
H41   H     H_    0.398123 0.888093 0.165096 0.245594
H42   H     H_    0.293657 0.658303 0.169914 0.230072
H43   H     H_    0.289006 0.753216 0.233148 0.218651
C55   C     C_3   0.647785 0.694137 0.794038 -0.362102
C56   C     C_3   0.553048 0.797719 0.815742 -0.806532
H44   H     H_    0.493059 0.834867 0.779959 0.276189
H45   H     H_    0.494690 0.750707 0.848810 0.259113
H46   H     H_    0.602078 0.888038 0.834985 0.245491
H47   H     H_    0.707186 0.658156 0.829803 0.230232
H48   H     H_    0.710298 0.753828 0.766697 0.218756
N5    N     N_R   0.367617 0.145547 0.415379 0.185966
O13   O     O_R   0.250729 0.169782 0.422468 -0.361453
O14   O     O_R   0.411182 0.150956 0.364240 -0.336054
N6    N     N_R   0.628761 0.856390 0.585596 0.166721
O15   O     O_R   0.746240 0.832904 0.579960 -0.387295
O16   O     O_R   0.582943 0.857996 0.636327 -0.360048
N7    N     N_R   0.632384 0.145554 0.584622 0.185957
O17   O     O_R   0.588820 0.150963 0.635760 -0.336112
O18   O     O_R   0.749273 0.169789 0.577531 -0.361469
N8    N     N_R   0.371248 0.856384 0.414402 0.166739
O19   O     O_R   0.417076 0.857993 0.363672 -0.360183
O20   O     O_R   0.253767 0.832898 0.420032 -0.387271

loop_
_geom_bond_atom_site_label_1
_geom_bond_atom_site_label_2
_geom_bond_distance
_ccdc_geom_bond_type
N6    O15   1.299889 A    
C15   C17   1.397750 A    
C49   C50   1.527438 S    
O3    C2    1.300339 A    
C45   C46   1.529915 S    
C33   C35   1.400187 A    
N5    O13   1.299519 A    
C19   C21   1.415025 A    
C34   C36   1.400522 A    
O5    C3    1.308825 A    
C26   C51   1.527559 S    
C55   H48   1.103786 S    
O1    C1    1.300335 A    
C7    C9    1.401712 A    
C12   C14   1.404969 A    
C56   H45   1.107963 S    
N5    O14   1.301279 A    
C50   H31   1.110388 S    
C55   C56   1.525298 S    
C18   H4    1.083165 S    
C41   H12   1.107130 S    
O7    Cu1   1.942455 S    
C54   H39   1.111168 S    
C37   N4    1.371494 A    
C40   N8    1.422638 S    
C32   C34   1.382305 A    
C42   H9    1.109584 S    
C50   H30   1.111213 S    
O6    Cu2   1.942449 S    
C11   C12   1.407041 A    
C51   H38   1.104803 S    
C41   H13   1.106535 S    
C48   H25   1.107361 S    
C31   H5    1.081773 S    
C45   H22   1.109008 S    
C38   N3    1.373875 A    
C28   C55   1.527660 S    
C8    O12   1.349518 S    
C28   C30   1.422800 A    
C9    C15   1.405698 A    
C39   N4    1.371498 A    
C43   H18   1.106533 S    
Cu1   Cu2   2.709695 S    
C21   C23   1.416924 A    
O2    C2    1.300435 A    
C22   C24   1.416901 A    
O7    C4    1.308825 A    
C24   C26   1.414272 A    
C26   C28   1.414751 A    
C25   C27   1.414721 A    
C6    C14   1.401177 A    
C47   H28   1.105341 S    
C43   C44   1.527831 S    
C41   C42   1.527871 S    
C27   C29   1.422756 A    
C7    O11   1.349521 S    
C56   H46   1.110476 S    
C38   N6    1.422644 S    
C33   H7    1.081773 S    
C49   H32   1.107567 S    
N8    O19   1.300944 A    
Cu1   N3    2.036317 S    
C15   H1    1.083138 S    
C27   C53   1.527581 S    
C31   C33   1.381724 A    
C37   C40   1.424178 A    
C44   H14   1.111195 S    
C38   C39   1.424181 A    
C32   C35   1.400518 A    
C44   H15   1.105381 S    
O6    C4    1.298624 A    
C21   C45   1.529864 S    
C50   H29   1.110078 S    
Cu2   N4    2.036318 S    
C51   H37   1.107575 S    
C52   H35   1.111246 S    
C48   H26   1.110555 S    
C3    C23   1.470895 S    
C23   C25   1.414291 A    
C54   H41   1.110404 S    
C45   H23   1.105331 S    
C53   H42   1.103723 S    
C6    N2    1.374222 A    
C19   C29   1.421331 A    
C8    C10   1.401747 A    
C46   H20   1.107363 S    
C43   H17   1.107116 S    
C9    C11   1.405038 A    
O8    Cu2   1.942455 S    
C10   C12   1.405046 A    
O1    Cu1   1.961980 S    
C25   C49   1.527512 S    
N7    O17   1.301279 A    
C34   H8    1.082185 S    
C13   C18   1.405453 A    
C5    N1    1.374217 A    
C47   H27   1.109006 S    
N6    O16   1.300944 A    
C1    C36   1.449470 S    
C19   C41   1.529663 S    
C2    C35   1.449470 S    
O4    C1    1.300439 A    
O3    Cu1   1.961983 S    
N1    C30   1.446466 S    
C5    O9    1.349757 S    
C31   C36   1.400183 A    
C6    O10   1.349775 S    
C46   H21   1.110555 S    
C37   N5    1.429630 S    
C40   N3    1.373882 A    
C16   C18   1.397774 A    
C4    C24   1.470897 S    
C53   C54   1.525105 S    
C42   H11   1.105375 S    
C20   C30   1.421352 A    
C20   C22   1.415012 A    
N1    C7    1.374403 A    
C20   C43   1.529642 S    
C52   H36   1.110403 S    
N2    C8    1.374381 A    
C39   N7    1.429631 S    
O4    Cu2   1.961984 S    
C51   C52   1.527426 S    
O2    Cu2   1.961979 S    
C44   H16   1.109552 S    
C54   H40   1.107838 S    
C5    C13   1.401203 A    
O8    C3    1.298624 A    
C53   H43   1.103720 S    
C32   H6    1.082184 S    
O5    Cu1   1.942449 S    
C11   C13   1.404971 A    
C22   C47   1.529855 S    
C47   C48   1.529918 S    
C16   H2    1.083135 S    
C14   C17   1.405449 A    
N8    O20   1.299888 A    
C46   H19   1.111025 S    
C17   H3    1.083165 S    
C52   H34   1.110115 S    
C42   H10   1.111180 S    
C10   C16   1.405709 A    
C55   H47   1.103873 S    
C48   H24   1.111026 S    
C56   H44   1.111376 S    
C49   H33   1.104827 S    
N2    C29   1.446467 S    
N7    O18   1.299521 A    
