data_mof_unit_pretest_1996.cif
_audit_creation_date              2012-12-10T17:17:19-0500
_audit_creation_method            fapswitch 2.2
_symmetry_space_group_name_H-M    P1
_symmetry_Int_Tables_number       1
_space_group_crystal_system       triclinic
_cell_length_a                    18.89376
_cell_length_b                    18.839562
_cell_length_c                    18.679564
_cell_angle_alpha                 109.315604
_cell_angle_beta                  109.34971
_cell_angle_gamma                 109.861794
_cell_volume                      5111.1097144

loop_
_atom_site_label
_atom_site_type_symbol
_atom_type_description
_atom_site_fract_x
_atom_site_fract_y
_atom_site_fract_z
_atom_type_partial_charge
C1    C     C_R   0.119067 0.118909 0.500143 0.761643
C2    C     C_R   0.264140 0.087822 0.759087 0.073624
C3    C     C_R   0.191291 0.007149 0.687274 -0.081544
C4    C     C_R   0.182354 0.928675 0.682246 -0.198101
C5    C     C_R   0.243940 0.928742 0.747999 -0.198495
C6    C     C_R   0.315423 0.007305 0.820442 -0.089029
C7    C     C_R   0.257562 0.178625 0.500692 -0.166604
C8    C     C_R   0.322497 0.243609 0.502336 -0.165607
C9    C     C_R   0.314653 0.314456 0.500807 -0.003640
C10   C     C_R   0.242686 0.321122 0.499433 -0.164241
C11   C     C_R   0.179236 0.257645 0.500746 -0.146128
C12   C     C_R   0.121093 0.002684 0.619144 0.772154
C13   C     C_R   0.186171 0.185899 0.500441 0.004038
C14   C     C_R   0.737585 0.914826 0.240981 -0.046759
C15   C     C_R   0.674309 0.915771 0.175298 0.081984
C16   C     C_R   0.684832 0.996094 0.182891 -0.021674
C17   C     C_R   0.757852 0.074503 0.253793 -0.223585
C18   C     C_R   0.819919 0.074017 0.318687 -0.192400
C19   C     C_R   0.810623 0.995102 0.312794 -0.106253
C20   C     C_R   0.819340 0.740957 0.496840 -0.195538
C21   C     C_R   0.755821 0.677597 0.498198 -0.118634
C22   C     C_R   0.685400 0.685917 0.499751 0.006390
C23   C     C_R   0.881238 0.881103 0.500221 0.826062
C24   C     C_R   0.679176 0.758265 0.501194 -0.196857
C25   C     C_R   0.744243 0.823103 0.502835 -0.131857
C26   C     C_R   0.814086 0.814210 0.500068 -0.018212
C27   C     C_R   0.500264 0.881108 0.881228 0.803692
C28   C     C_R   0.381428 0.002840 0.883849 0.782523
C29   C     C_R   0.499542 0.118983 0.118598 0.777466
C30   C     C_R   0.618697 0.998867 0.117946 0.827711
C31   C     C_R   0.500580 0.619129 0.619187 0.789694
C32   C     C_R   0.381256 0.381214 0.500302 0.767670
C33   C     C_R   0.500964 0.382609 0.380956 0.834609
C34   C     C_R   0.879843 0.998335 0.380779 0.837416
C35   C     C_R   0.618750 0.619278 0.500243 0.830421
C36   C     C_R   0.578574 0.829991 0.813665 -0.200830
C37   C     C_R   0.579950 0.766039 0.750088 0.165419
C38   C     C_R   0.502050 0.686740 0.686651 -0.013584
C39   C     C_R   0.424513 0.671782 0.687189 -0.217493
C40   C     C_R   0.424174 0.734869 0.751698 -0.169463
C41   C     C_R   0.500998 0.814304 0.814686 -0.048030
C42   C     C_R   0.516424 0.264894 0.184898 -0.214593
C43   C     C_R   0.518400 0.331535 0.248931 -0.017296
C44   C     C_R   0.502205 0.317635 0.313377 -0.084562
C45   C     C_R   0.278678 0.168087 0.762843 -0.229163
C46   C     C_R   0.484650 0.238807 0.312483 -0.192958
C47   C     C_R   0.482000 0.173040 0.247805 -0.159113
C48   C     C_R   0.498702 0.186269 0.184442 -0.039552
C49   C     C_R   0.348232 0.247705 0.836726 0.020924
C50   C     C_R   0.403778 0.247042 0.907684 -0.161208
C51   C     C_R   0.392540 0.168522 0.903673 -0.195800
C52   C     C_R   0.324947 0.087941 0.828258 0.102739
Cu1   Cu    Cu3+1 0.999980 0.061790 0.561790 0.980984
Cu2   Cu    Cu3+1 0.000020 0.938210 0.438210 0.985409
Cu3   Cu    Cu3+1 0.438200 0.938230 0.000040 0.973855
Cu4   Cu    Cu3+1 0.561800 0.061850 0.000040 0.958371
Cu5   Cu    Cu3+1 0.438190 0.500100 0.438300 0.986926
Cu6   Cu    Cu3+1 0.561810 0.500080 0.561880 0.988909
H1    H     H_    0.126731 0.866877 0.627453 0.151384
H2    H     H_    0.124069 0.263581 0.500385 0.135443
H3    H     H_    0.766007 0.136330 0.259700 0.155143
H4    H     H_    0.876173 0.135515 0.373232 0.150744
H5    H     H_    0.873264 0.733710 0.494878 0.140980
H6    H     H_    0.760765 0.621520 0.496625 0.148893
H7    H     H_    0.624981 0.765204 0.502701 0.137855
H8    H     H_    0.739450 0.879331 0.504754 0.154918
H9    H     H_    0.637937 0.891526 0.862753 0.145052
H10   H     H_    0.237052 0.169498 0.707965 0.180522
H11   H     H_    0.364547 0.610725 0.638297 0.143436
H12   H     H_    0.363747 0.722260 0.751587 0.151771
H13   H     H_    0.529515 0.274352 0.135475 0.175167
H14   H     H_    0.471854 0.227844 0.361444 0.137487
H15   H     H_    0.468490 0.112526 0.248182 0.149283
H16   H     H_    0.456813 0.307419 0.966410 0.207161
H17   H     H_    0.436763 0.172056 0.960865 0.156142
H18   H     H_    0.236356 0.866938 0.741694 0.153700
H19   H     H_    0.263574 0.123534 0.501016 0.139567
H20   H     H_    0.377877 0.237896 0.503126 0.136995
H21   H     H_    0.236416 0.375988 0.498708 0.135944
O1    O     O_R   0.090150 0.142360 0.552170 -0.578784
O2    O     O_R   0.552230 0.962090 0.909900 -0.586825
O3    O     O_R   0.357630 0.947820 0.909860 -0.583661
O4    O     O_R   0.462000 0.052220 0.909860 -0.586762
O5    O     O_R   0.447770 0.037990 0.090190 -0.586319
O6    O     O_R   0.552150 0.142390 0.090190 -0.595368
O7    O     O_R   0.538000 0.947860 0.090220 -0.557531
O8    O     O_R   0.642370 0.052260 0.090230 -0.595690
O9    O     O_R   0.447810 0.590260 0.538090 -0.601418
O10   O     O_R   0.552200 0.590240 0.642450 -0.553116
O11   O     O_R   0.357640 0.409920 0.447920 -0.590466
O12   O     O_R   0.090180 0.037990 0.447810 -0.587858
O13   O     O_R   0.462030 0.409900 0.552280 -0.583863
O14   O     O_R   0.447800 0.409940 0.357730 -0.564197
O15   O     O_R   0.552190 0.409920 0.462090 -0.589397
O16   O     O_R   0.537970 0.590270 0.447900 -0.560797
O17   O     O_R   0.642360 0.590260 0.552260 -0.590329
O18   O     O_R   0.090170 0.052200 0.642360 -0.582216
O19   O     O_R   0.090200 0.947840 0.538010 -0.588874
O20   O     O_R   0.909820 0.962010 0.552190 -0.587375
O21   O     O_R   0.909850 0.857640 0.447830 -0.574429
O22   O     O_R   0.909800 0.052160 0.461990 -0.587046
O23   O     O_R   0.909830 0.947800 0.357640 -0.569378
O24   O     O_R   0.447850 0.857690 0.909890 -0.580184
C53   C     C_2   0.724587 0.831096 0.237364 0.841438
O25   O     O_2   0.706962 0.770224 0.170812 -0.589464
O26   O     O_R   0.732434 0.822073 0.310484 -0.776384
H22   H     H_    0.721937 0.762202 0.300211 0.342733
N1    N     N_3   0.598905 0.836224 0.101049 -0.567457
H23   H     H_    0.566563 0.799565 0.123252 0.237467
H24   H     H_    0.618769 0.800959 0.064319 0.256235
N2    N     N_3   0.659223 0.781467 0.748501 -0.569041
H25   H     H_    0.652207 0.785197 0.692142 0.195792
H26   H     H_    0.711193 0.841831 0.801830 0.218771
C54   C     C_2   0.540511 0.414652 0.247611 0.833646
O27   O     O_2   0.574869 0.483405 0.315028 -0.612914
O28   O     O_R   0.524236 0.414525 0.168829 -0.764530
H27   H     H_    0.542729 0.474837 0.176113 0.350822
C55   C     C_2   0.362702 0.331624 0.840236 0.847942
O29   O     O_2   0.314547 0.332374 0.778033 -0.594083
O30   O     O_R   0.431738 0.410358 0.914844 -0.754256
H28   H     H_    0.434858 0.462956 0.909318 0.345755

loop_
_geom_bond_atom_site_label_1
_geom_bond_atom_site_label_2
_ccdc_geom_bond_type
C23   O20   A    
Cu3   Cu4   S    
N1    H23   S    
N2    H25   S    
C33   O15   A    
C53   O26   S    
C54   O27   D    
Cu4   O6    S    
C36   H9    S    
C7    C8    A    
C32   O13   A    
C35   O17   A    
Cu1   O20   S    
C22   C35   S    
C34   O23   A    
C40   H12   S    
C36   C37   A    
C51   H17   S    
C50   H16   S    
C43   C54   S    
C5    C6    A    
C16   C17   A    
O26   H22   S    
C16   C30   S    
C15   C16   A    
Cu3   O24   S    
O28   H27   S    
C18   C19   A    
C23   C26   S    
Cu6   O17   S    
C55   O29   D    
C21   H6    S    
C3    C12   S    
C9    C32   S    
C17   H3    S    
C6    C28   S    
C49   C55   S    
Cu1   O22   S    
C8    C9    A    
C31   O10   A    
C30   O7    A    
C9    C10   A    
C46   H14   S    
C7    H19   S    
C23   O21   A    
C1    O12   A    
C20   H5    S    
Cu5   O14   S    
C21   C22   A    
C28   O4    A    
C8    H20   S    
Cu2   O21   S    
C36   C41   A    
C30   O8    A    
C53   O25   D    
C44   C46   A    
C17   C18   A    
C2    C45   A    
C32   O11   A    
C34   O22   A    
Cu5   O11   S    
C29   C48   S    
C28   O3    A    
C51   C52   A    
C27   O2    A    
Cu1   O1    S    
C24   C25   A    
C47   H15   S    
C29   O5    A    
C39   C40   A    
C18   H4    S    
Cu4   O8    S    
Cu1   O18   S    
C25   C26   A    
Cu1   Cu2   S    
C15   N1    S    
C43   C44   A    
C37   C38   A    
C27   C41   S    
C14   C53   S    
C47   C48   A    
C45   C49   A    
C45   H10   S    
C50   C51   A    
C39   H11   S    
N2    H26   S    
C42   C48   A    
Cu3   O3    S    
C12   O18   A    
C2    C52   A    
C24   H7    S    
C40   C41   A    
C22   C24   A    
C1    C13   S    
C42   C43   A    
C3    C4    A    
O30   H28   S    
Cu4   O4    S    
C46   C47   A    
C31   O9    A    
C33   C44   S    
C29   O6    A    
C14   C19   A    
Cu2   O23   S    
C25   H8    S    
C4    C5    A    
C19   C34   S    
C33   O14   A    
C54   O28   S    
C10   H21   S    
Cu5   O9    S    
C35   O16   A    
C31   C38   S    
Cu3   O7    S    
C2    C3    A    
Cu6   O15   S    
Cu2   O12   S    
C11   C13   A    
Cu5   Cu6   S    
C38   C39   A    
N1    H24   S    
C20   C26   A    
C5    H18   S    
C4    H1    S    
C27   O24   A    
C42   H13   S    
Cu4   O2    S    
Cu6   O10   S    
C55   O30   S    
C37   N2    S    
C10   C11   A    
C7    C13   A    
C20   C21   A    
C49   C50   A    
Cu5   O16   S    
C12   O19   A    
C1    O1    A    
C14   C15   A    
Cu2   O19   S    
C6    C52   A    
Cu3   O5    S    
Cu6   O13   S    
C11   H2    S    
