data_mof_unit_pretest_1681.cif
_audit_creation_date              2012-12-10T20:54:00-0500
_audit_creation_method            fapswitch 2.2
_symmetry_space_group_name_H-M    P1
_symmetry_Int_Tables_number       1
_space_group_crystal_system       triclinic
_cell_length_a                    25.924998
_cell_length_b                    34.399373
_cell_length_c                    21.553352
_cell_angle_alpha                 89.996285
_cell_angle_beta                  127.115853
_cell_angle_gamma                 89.966917
_cell_volume                      15327.4334267

loop_
_atom_site_label
_atom_site_type_symbol
_atom_type_description
_atom_site_fract_x
_atom_site_fract_y
_atom_site_fract_z
_atom_type_partial_charge
C1    C     C_R   0.999893 0.644273 0.499905 0.739137
C2    C     C_R   0.999857 0.355692 0.499893 0.741593
C3    C     C_R   0.500046 0.144288 0.500021 0.739192
C4    C     C_R   0.499980 0.855712 0.499987 0.739321
C5    C     C_R   0.338010 0.751015 0.083374 0.058557
C6    C     C_R   0.661892 0.249421 0.916559 0.058873
C7    C     C_R   0.661970 0.750380 0.916626 0.058539
C8    C     C_R   0.338135 0.249530 0.083454 0.058565
C9    C     C_R   0.838027 0.250910 0.083376 0.058995
C10   C     C_R   0.161876 0.749436 0.916555 0.058927
C11   C     C_R   0.162004 0.250965 0.916620 0.059398
C12   C     C_R   0.838150 0.750183 0.083458 0.058738
C13   C     C_R   0.174157 0.750677 0.037209 -0.180540
C14   C     C_R   0.825725 0.249673 0.962711 -0.181698
C15   C     C_R   0.825838 0.752063 0.962796 -0.181858
C16   C     C_R   0.174291 0.249796 0.037274 -0.182007
C17   C     C_R   0.674180 0.250681 0.037214 -0.181165
C18   C     C_R   0.325715 0.749841 0.962711 -0.181336
C19   C     C_R   0.325861 0.250788 0.962807 -0.181905
C20   C     C_R   0.674300 0.748626 0.037304 -0.182690
C21   C     C_R   0.134358 0.749822 0.956332 0.161274
C22   C     C_R   0.865524 0.250645 0.043572 0.162499
C23   C     C_R   0.865661 0.751276 0.043685 0.162046
C24   C     C_R   0.134500 0.250745 0.956415 0.162842
C25   C     C_R   0.634380 0.249821 0.956340 0.161855
C26   C     C_R   0.365510 0.750820 0.043569 0.162528
C27   C     C_R   0.365658 0.249960 0.043687 0.162016
C28   C     C_R   0.634480 0.749560 0.956439 0.163055
C29   C     C_R   0.458339 0.580658 0.428658 0.120286
C30   C     C_R   0.530657 0.417487 0.570829 0.071119
C31   C     C_R   0.542700 0.580547 0.570068 0.120550
C32   C     C_R   0.468979 0.417442 0.428946 0.070678
C33   C     C_R   0.958504 0.080588 0.428869 0.122002
C34   C     C_R   0.030168 0.917466 0.570951 0.067863
C35   C     C_R   0.042536 0.080544 0.570324 0.119936
C36   C     C_R   0.970918 0.917418 0.429524 0.073390
C37   C     C_R   0.500353 0.601261 0.499479 -0.226729
C38   C     C_R   0.499881 0.397627 0.499932 -0.156729
C39   C     C_R   0.000325 0.101238 0.499664 -0.226461
C40   C     C_R   0.000174 0.897609 0.500177 -0.150916
C41   C     C_R   0.534902 0.540152 0.570741 -0.017278
C42   C     C_R   0.463254 0.458118 0.427948 -0.013569
C43   C     C_R   0.465436 0.540108 0.428202 -0.014079
C44   C     C_R   0.536316 0.458174 0.571665 -0.015482
C45   C     C_R   0.034722 0.040137 0.570982 -0.017313
C46   C     C_R   0.964784 0.958070 0.428226 -0.013064
C47   C     C_R   0.965989 0.040075 0.428464 -0.014645
C48   C     C_R   0.036016 0.958150 0.571912 -0.006182
C49   C     C_R   0.499983 0.519647 0.499551 0.009123
C50   C     C_R   0.499820 0.478581 0.499728 -0.012240
C51   C     C_R   0.000227 0.019617 0.499797 0.009215
C52   C     C_R   0.000230 0.978557 0.499977 -0.002555
C53   C     C_R   0.564687 0.519274 0.640720 0.124715
C54   C     C_R   0.425673 0.479321 0.357838 0.205828
C55   C     C_R   0.435479 0.519033 0.358410 0.125073
C56   C     C_R   0.573992 0.479453 0.641681 0.206035
C57   C     C_R   0.064160 0.019262 0.640933 0.123817
C58   C     C_R   0.927853 0.979203 0.357982 0.201195
C59   C     C_R   0.936933 0.019052 0.358733 0.125101
C60   C     C_R   0.073321 0.979410 0.641965 0.202891
C61   C     C_R   0.876962 0.878538 0.569764 -0.233182
C62   C     C_R   0.108993 0.125993 0.425457 -0.250006
C63   C     C_R   0.127297 0.880067 0.425498 -0.214673
C64   C     C_R   0.887133 0.125118 0.580740 -0.242735
C65   C     C_R   0.378158 0.378109 0.571495 -0.233273
C66   C     C_R   0.608447 0.626226 0.424252 -0.249928
C67   C     C_R   0.622710 0.378833 0.431211 -0.235030
C68   C     C_R   0.386216 0.624637 0.579403 -0.244433
C69   C     C_R   0.857654 0.840890 0.571934 0.246001
C70   C     C_R   0.131395 0.163009 0.425259 0.215767
C71   C     C_R   0.148201 0.842563 0.425372 0.177983
C72   C     C_R   0.863031 0.161963 0.578503 0.167034
C73   C     C_R   0.358503 0.340464 0.573022 0.244355
C74   C     C_R   0.631146 0.663220 0.424545 0.215388
C75   C     C_R   0.642147 0.341263 0.428752 0.244895
C76   C     C_R   0.362242 0.661463 0.577539 0.167903
C77   C     C_R   0.000002 0.855570 0.500113 0.883395
C78   C     C_R   0.000078 0.143988 0.499873 0.853661
C79   C     C_R   0.499970 0.355577 0.499992 0.881983
C80   C     C_R   0.500090 0.643996 0.499817 0.854379
C81   C     C_R   0.806292 0.823120 0.502564 0.076885
C82   C     C_R   0.190467 0.176707 0.492460 0.109939
C83   C     C_R   0.193258 0.823432 0.496396 0.081455
C84   C     C_R   0.809387 0.177056 0.507243 0.094888
C85   C     C_R   0.306770 0.323067 0.503406 0.078254
C86   C     C_R   0.690221 0.676731 0.492007 0.109592
C87   C     C_R   0.693961 0.323516 0.497891 0.078993
C88   C     C_R   0.308757 0.676765 0.506411 0.095782
C89   C     C_R   0.776812 0.842776 0.431604 -0.173453
C90   C     C_R   0.225315 0.153336 0.559368 -0.171433
C91   C     C_R   0.215230 0.841791 0.566545 -0.073168
C92   C     C_R   0.782045 0.155490 0.438770 -0.073797
C93   C     C_R   0.277255 0.343088 0.432818 -0.173253
C94   C     C_R   0.724800 0.653180 0.558666 -0.171820
C95   C     C_R   0.723824 0.343115 0.568929 -0.174765
C96   C     C_R   0.281393 0.655410 0.437712 -0.075352
C97   C     C_R   0.797710 0.879828 0.429578 -0.055068
C98   C     C_R   0.202827 0.116453 0.559095 -0.039186
C99   C     C_R   0.193273 0.878907 0.566220 -0.057772
C100  C     C_R   0.805890 0.118645 0.441472 -0.043798
C101  C     C_R   0.298424 0.380160 0.431420 -0.054291
C102  C     C_R   0.702030 0.616307 0.557893 -0.038635
C103  C     C_R   0.702926 0.380126 0.571246 -0.052558
C104  C     C_R   0.305109 0.618578 0.440037 -0.042920
C105  C     C_R   0.847506 0.898201 0.498851 0.001342
C106  C     C_R   0.144935 0.102278 0.491752 0.021196
C107  C     C_R   0.149749 0.898547 0.495658 0.000554
C108  C     C_R   0.858059 0.102943 0.512680 0.013230
C109  C     C_R   0.348580 0.398166 0.500970 0.002551
C110  C     C_R   0.644108 0.602335 0.490301 0.022800
C111  C     C_R   0.652656 0.398475 0.502187 0.001604
C112  C     C_R   0.357161 0.602683 0.511096 0.012253
C113  C     C_R   0.725033 0.785626 0.504166 -0.044759
C114  C     C_R   0.272738 0.214103 0.491729 -0.053217
C115  C     C_R   0.275401 0.785661 0.496113 -0.056602
C116  C     C_R   0.725941 0.214440 0.506262 -0.062080
C117  C     C_R   0.225162 0.285605 0.504393 -0.045269
C118  C     C_R   0.772840 0.714118 0.491942 -0.052887
C119  C     C_R   0.774702 0.285883 0.495291 -0.043928
C120  C     C_R   0.226016 0.714324 0.506582 -0.060778
C121  C     C_R   0.695629 0.750050 0.499198 -0.120993
C122  C     C_R   0.303247 0.249659 0.498844 -0.123086
C123  C     C_R   0.303116 0.749871 0.498554 -0.128637
C124  C     C_R   0.696834 0.250156 0.501342 -0.131796
C125  C     C_R   0.195650 0.250039 0.499229 -0.121041
C126  C     C_R   0.803252 0.749684 0.498869 -0.123035
C127  C     C_R   0.803513 0.250199 0.499297 -0.119324
C128  C     C_R   0.197459 0.750120 0.502483 -0.133744
C129  C     C_R   0.719269 0.714334 0.493254 0.007870
C130  C     C_R   0.278800 0.285371 0.503469 0.005034
C131  C     C_R   0.278334 0.714194 0.502769 0.004390
C132  C     C_R   0.721420 0.285797 0.496886 0.009457
C133  C     C_R   0.219260 0.214320 0.493230 0.008342
C134  C     C_R   0.778638 0.785407 0.503183 0.004581
C135  C     C_R   0.778685 0.214443 0.503216 -0.002819
C136  C     C_R   0.222780 0.785792 0.499177 0.004573
C137  C     C_R   0.444497 0.918716 0.479180 -0.054443
C138  C     C_R   0.555514 0.081291 0.520691 -0.058050
C139  C     C_R   0.555548 0.918574 0.520844 -0.073249
C140  C     C_R   0.444389 0.081414 0.478751 -0.070243
C141  C     C_R   0.944088 0.418526 0.479153 -0.072805
C142  C     C_R   0.054932 0.581175 0.520035 -0.057705
C143  C     C_R   0.054953 0.418589 0.520102 -0.071398
C144  C     C_R   0.943979 0.581419 0.478679 -0.071061
C145  C     C_R   0.500004 0.898258 0.500015 -0.175292
C146  C     C_R   0.500011 0.101743 0.499897 -0.175235
C147  C     C_R   0.999631 0.398200 0.499753 -0.171977
C148  C     C_R   0.999623 0.601702 0.499636 -0.175291
C149  C     C_R   0.550781 0.959073 0.507157 0.036668
C150  C     C_R   0.449181 0.040929 0.492529 0.036130
C151  C     C_R   0.449367 0.959193 0.492979 0.027994
C152  C     C_R   0.550631 0.040817 0.506831 0.028144
C153  C     C_R   0.049904 0.459041 0.506099 0.036482
C154  C     C_R   0.948588 0.540880 0.492147 0.034263
C155  C     C_R   0.948682 0.459068 0.492448 0.034334
C156  C     C_R   0.049793 0.540735 0.505869 0.028114
C157  C     C_R   0.140005 0.750240 0.500081 0.784918
C158  C     C_R   0.859811 0.250190 0.499509 0.806600
C159  C     C_R   0.859740 0.749784 0.499424 0.800021
C160  C     C_R   0.140105 0.250197 0.500375 0.804909
C161  C     C_R   0.639914 0.250225 0.499946 0.782347
C162  C     C_R   0.360013 0.749843 0.499895 0.784164
C163  C     C_R   0.359727 0.249765 0.499392 0.799291
C164  C     C_R   0.640101 0.750200 0.500371 0.805637
C165  C     C_R   0.500049 0.979584 0.500004 -0.030513
C166  C     C_R   0.499956 0.020418 0.499797 -0.030649
C167  C     C_R   0.999229 0.479509 0.499167 -0.028152
C168  C     C_R   0.999177 0.520349 0.499035 -0.031720
C169  C     C_R   0.592545 0.979373 0.496527 0.152556
C170  C     C_R   0.407364 0.020654 0.503076 0.153454
C171  C     C_R   0.407539 0.979614 0.503414 0.166027
C172  C     C_R   0.592388 0.020416 0.496263 0.166051
C173  C     C_R   0.091406 0.479333 0.495035 0.152677
C174  C     C_R   0.906761 0.520561 0.502687 0.162796
C175  C     C_R   0.906828 0.479495 0.502879 0.161809
C176  C     C_R   0.091272 0.520360 0.494824 0.166253
C177  C     C_R   0.893405 0.749451 0.288547 0.856285
C178  C     C_R   0.106639 0.250580 0.711469 0.853356
C179  C     C_R   0.106602 0.749429 0.711447 0.858139
C180  C     C_R   0.893387 0.250581 0.288541 0.856196
C181  C     C_R   0.393388 0.249443 0.288543 0.856671
C182  C     C_R   0.606613 0.750566 0.711468 0.850683
C183  C     C_R   0.606602 0.249428 0.711447 0.857221
C184  C     C_R   0.393381 0.750587 0.288541 0.854569
C185  C     C_R   0.376918 0.751398 0.164454 -0.218006
C186  C     C_R   0.622991 0.248951 0.835476 -0.215844
C187  C     C_R   0.623045 0.750751 0.835537 -0.217794
C188  C     C_R   0.377025 0.249036 0.164535 -0.214267
C189  C     C_R   0.876936 0.251317 0.164459 -0.217967
C190  C     C_R   0.122979 0.748941 0.835473 -0.215800
C191  C     C_R   0.123098 0.251315 0.835540 -0.219862
C192  C     C_R   0.877058 0.749631 0.164545 -0.214610
C193  C     C_R   0.349621 0.751407 0.203814 -0.091053
C194  C     C_R   0.650308 0.248694 0.796153 -0.089245
C195  C     C_R   0.650346 0.751354 0.796186 -0.092271
C196  C     C_R   0.349695 0.248760 0.203843 -0.091016
C197  C     C_R   0.849638 0.251384 0.203814 -0.093186
C198  C     C_R   0.150303 0.748709 0.796153 -0.089487
C199  C     C_R   0.150400 0.251373 0.796191 -0.093241
C200  C     C_R   0.849736 0.748782 0.203854 -0.090649
C201  C     C_R   0.281971 0.752110 0.162685 0.118658
C202  C     C_R   0.717945 0.247953 0.837287 0.116541
C203  C     C_R   0.717966 0.752653 0.837298 0.118132
C204  C     C_R   0.282061 0.248052 0.162702 0.116100
C205  C     C_R   0.781992 0.252107 0.162682 0.118086
C206  C     C_R   0.217944 0.748029 0.837293 0.116108
C207  C     C_R   0.218043 0.252126 0.837320 0.118629
C208  C     C_R   0.782124 0.747547 0.162733 0.115271
C209  C     C_R   0.241813 0.751140 0.080655 0.039888
C210  C     C_R   0.758087 0.249091 0.919295 0.040870
C211  C     C_R   0.758164 0.751789 0.919341 0.037497
C212  C     C_R   0.241929 0.249197 0.080697 0.038658
C213  C     C_R   0.741834 0.251123 0.080655 0.037749
C214  C     C_R   0.258077 0.749189 0.919297 0.041039
C215  C     C_R   0.258203 0.251184 0.919353 0.037341
C216  C     C_R   0.741954 0.748645 0.080719 0.039039
C217  C     C_R   0.269948 0.750589 0.041033 0.020270
C218  C     C_R   0.729953 0.249737 0.958912 0.020566
C219  C     C_R   0.730044 0.750620 0.958969 0.020956
C220  C     C_R   0.270072 0.249832 0.041090 0.020976
C221  C     C_R   0.769966 0.250531 0.041034 0.020827
C222  C     C_R   0.229938 0.749793 0.958911 0.020409
C223  C     C_R   0.230066 0.250601 0.958968 0.021075
C224  C     C_R   0.770076 0.749868 0.041098 0.021030
H1    H     H_    0.429062 0.751050 0.198289 0.199931
H2    H     H_    0.570842 0.249394 0.801599 0.196539
H3    H     H_    0.570902 0.749923 0.801680 0.198516
H4    H     H_    0.429173 0.249464 0.198425 0.196930
H5    H     H_    0.929078 0.250943 0.198299 0.199795
H6    H     H_    0.070829 0.749344 0.801591 0.196371
H7    H     H_    0.070951 0.250901 0.801694 0.198363
H8    H     H_    0.929202 0.750461 0.198450 0.195770
H9    H     H_    0.737044 0.829475 0.377850 0.170121
H10   H     H_    0.270782 0.163460 0.611406 0.162575
H11   H     H_    0.250290 0.827510 0.621617 0.170121
H12   H     H_    0.740931 0.166834 0.383541 0.168699
H13   H     H_    0.237216 0.330072 0.378883 0.169863
H14   H     H_    0.770275 0.663153 0.610895 0.162359
H15   H     H_    0.763895 0.329811 0.622501 0.169443
H16   H     H_    0.240402 0.666918 0.382586 0.168295
H17   H     H_    0.774118 0.894363 0.374048 0.195253
H18   H     H_    0.231325 0.098772 0.611118 0.198334
H19   H     H_    0.211199 0.892484 0.621169 0.193258
H20   H     H_    0.782789 0.102189 0.388075 0.197794
H21   H     H_    0.274759 0.394999 0.376176 0.195587
H22   H     H_    0.730323 0.598483 0.609729 0.198650
H23   H     H_    0.726862 0.394644 0.626822 0.195449
H24   H     H_    0.282028 0.602294 0.386455 0.197595
H25   H     H_    0.150876 0.750662 0.065100 0.208154
H26   H     H_    0.848986 0.249738 0.934797 0.208093
H27   H     H_    0.849122 0.752622 0.934902 0.206764
H28   H     H_    0.151023 0.249889 0.065178 0.207152
H29   H     H_    0.650901 0.250685 0.065105 0.206991
H30   H     H_    0.348978 0.749959 0.934798 0.208322
H31   H     H_    0.349146 0.250810 0.934923 0.206678
H32   H     H_    0.651036 0.748224 0.065224 0.206990
H33   H     H_    0.914499 0.892654 0.623723 0.181571
H34   H     H_    0.064081 0.115421 0.373241 0.172568
H35   H     H_    0.093947 0.894963 0.370684 0.183166
H36   H     H_    0.927797 0.113466 0.635949 0.178811
H37   H     H_    0.416015 0.391927 0.625670 0.181492
H38   H     H_    0.563525 0.615807 0.371842 0.172689
H39   H     H_    0.584729 0.392921 0.377424 0.181280
H40   H     H_    0.426781 0.612835 0.634501 0.178252
O1    O     O_3   0.000000 0.750000 0.500000 -0.507754
O2    O     O_3   0.000000 0.250000 0.500000 -0.506320
O3    O     O_3   0.500000 0.250000 0.500000 -0.508938
O4    O     O_3   0.500000 0.750000 0.500000 -0.509126
O5    O     O_R   0.992580 0.662560 0.545880 -0.641658
O6    O     O_R   0.007420 0.337440 0.454120 -0.639099
O7    O     O_R   0.007420 0.662560 0.454120 -0.629441
O8    O     O_R   0.992580 0.337440 0.545880 -0.639549
O9    O     O_R   0.492580 0.162560 0.545880 -0.641459
O10   O     O_R   0.507420 0.837440 0.454120 -0.642142
O11   O     O_R   0.507420 0.162560 0.454120 -0.629636
O12   O     O_R   0.492580 0.837440 0.545880 -0.627968
O13   O     O_R   0.053270 0.837440 0.545830 -0.620598
O14   O     O_R   0.946730 0.162560 0.454170 -0.618381
O15   O     O_R   0.946730 0.837440 0.454170 -0.618671
O16   O     O_R   0.053270 0.162560 0.545830 -0.616624
O17   O     O_R   0.553270 0.337440 0.545830 -0.617521
O18   O     O_R   0.446730 0.662560 0.454170 -0.617467
O19   O     O_R   0.446730 0.337440 0.454170 -0.618262
O20   O     O_R   0.553270 0.662560 0.545830 -0.616696
O21   O     O_R   0.092900 0.727070 0.454160 -0.633539
O22   O     O_R   0.907100 0.272930 0.545840 -0.659345
O23   O     O_R   0.907100 0.727070 0.545840 -0.658020
O24   O     O_R   0.092900 0.272930 0.454160 -0.658087
O25   O     O_R   0.592900 0.227070 0.454160 -0.634157
O26   O     O_R   0.407100 0.772930 0.545840 -0.631860
O27   O     O_R   0.407100 0.227070 0.545840 -0.657655
O28   O     O_R   0.592900 0.772930 0.454160 -0.657895
O29   O     O_R   0.861280 0.772920 0.454160 -0.622800
O30   O     O_R   0.138720 0.227080 0.545840 -0.619842
O31   O     O_R   0.138720 0.772920 0.545840 -0.635375
O32   O     O_R   0.861280 0.227080 0.454160 -0.624875
O33   O     O_R   0.361280 0.272920 0.454160 -0.622519
O34   O     O_R   0.638720 0.727080 0.545840 -0.619778
O35   O     O_R   0.638720 0.272920 0.545840 -0.627703
O36   O     O_R   0.361280 0.727080 0.454160 -0.629962
O37   O     O_R   0.942960 0.727070 0.325140 -0.630949
O38   O     O_R   0.057040 0.272930 0.674860 -0.632041
O39   O     O_R   0.057040 0.727070 0.674860 -0.633505
O40   O     O_R   0.942960 0.272930 0.325140 -0.630849
O41   O     O_R   0.442960 0.227070 0.325140 -0.630996
O42   O     O_R   0.557040 0.772930 0.674860 -0.628702
O43   O     O_R   0.557040 0.227070 0.674860 -0.633595
O44   O     O_R   0.442960 0.772930 0.325140 -0.631637
O45   O     O_R   0.882220 0.772920 0.325130 -0.605819
O46   O     O_R   0.117780 0.227080 0.674870 -0.605202
O47   O     O_R   0.117780 0.772920 0.674870 -0.605014
O48   O     O_R   0.882220 0.227080 0.325130 -0.605713
O49   O     O_R   0.382220 0.272920 0.325130 -0.605297
O50   O     O_R   0.617780 0.727080 0.674870 -0.606025
O51   O     O_R   0.617780 0.272920 0.674870 -0.603431
O52   O     O_R   0.382220 0.727080 0.325130 -0.604588
Zn1   Zn    Zn3+2 0.076130 0.782750 0.565500 1.020556
Zn2   Zn    Zn3+2 0.923870 0.217250 0.434500 1.026857
Zn3   Zn    Zn3+2 0.923870 0.782750 0.434500 1.031198
Zn4   Zn    Zn3+2 0.076130 0.217250 0.565500 1.032326
Zn5   Zn    Zn3+2 0.576130 0.282750 0.565500 1.026474
Zn6   Zn    Zn3+2 0.423870 0.717250 0.434500 1.020942
Zn7   Zn    Zn3+2 0.423870 0.282750 0.434500 1.030792
Zn8   Zn    Zn3+2 0.576130 0.717250 0.565500 1.031472
Zn9   Zn    Zn3+2 0.010650 0.717250 0.434510 1.010728
Zn10  Zn    Zn3+2 0.989350 0.282750 0.565490 0.993746
Zn11  Zn    Zn3+2 0.989350 0.717250 0.565490 0.990507
Zn12  Zn    Zn3+2 0.010650 0.282750 0.434510 0.994888
Zn13  Zn    Zn3+2 0.510650 0.217250 0.434510 1.009637
Zn14  Zn    Zn3+2 0.489350 0.782750 0.565490 1.012503
Zn15  Zn    Zn3+2 0.489350 0.217250 0.565490 0.990333
Zn16  Zn    Zn3+2 0.510650 0.782750 0.434510 0.990634
C225  C     C_2   0.701148 0.823146 0.512920 0.406737
H41   H     H_    0.650793 0.831399 0.472034 0.098033
O53   O     O_2   0.737939 0.845174 0.566517 -0.507466
C226  C     C_2   0.294380 0.176876 0.478447 0.408305
H42   H     H_    0.345129 0.169441 0.512390 0.090718
O54   O     O_2   0.255114 0.154106 0.428315 -0.500455
C227  C     C_2   0.299186 0.822497 0.484797 0.505029
H43   H     H_    0.314859 0.822535 0.448189 0.039703
O55   O     O_2   0.303148 0.852566 0.517450 -0.533331
C228  C     C_2   0.704326 0.177966 0.521969 0.504099
H44   H     H_    0.686581 0.179248 0.556367 0.039208
O56   O     O_2   0.704734 0.146593 0.495910 -0.536728
C229  C     C_2   0.201432 0.323110 0.513446 0.406903
H45   H     H_    0.151046 0.331366 0.472842 0.097641
O57   O     O_2   0.238385 0.345124 0.566997 -0.507202
C230  C     C_2   0.794642 0.676876 0.478973 0.407670
H46   H     H_    0.845399 0.669359 0.513497 0.090746
O58   O     O_2   0.755507 0.654185 0.428498 -0.499842
C231  C     C_2   0.798844 0.323377 0.486962 0.405056
H47   H     H_    0.849302 0.331389 0.527719 0.097273
O59   O     O_2   0.762095 0.345700 0.433873 -0.506254
C232  C     C_2   0.204074 0.677856 0.521827 0.502547
H48   H     H_    0.186504 0.679073 0.556422 0.039863
O60   O     O_2   0.203984 0.646576 0.495136 -0.537065
C233  C     C_2   0.380740 0.898596 0.432671 0.505360
H49   H     H_    0.377687 0.867488 0.437383 0.038687
O61   O     O_2   0.331070 0.916409 0.385022 -0.509083
C234  C     C_2   0.619257 0.101424 0.567021 0.509243
H50   H     H_    0.622301 0.132510 0.562034 0.039989
O62   O     O_2   0.668941 0.083641 0.614748 -0.506115
C235  C     C_2   0.619182 0.898215 0.566640 0.503790
H51   H     H_    0.622296 0.867274 0.559828 0.058553
O63   O     O_2   0.668789 0.915651 0.615686 -0.482906
C236  C     C_2   0.380681 0.101699 0.432308 0.502538
H52   H     H_    0.377481 0.132732 0.438111 0.048954
O64   O     O_2   0.331131 0.084092 0.383695 -0.483985
C237  C     C_2   0.880553 0.398121 0.433743 0.502091
H53   H     H_    0.877622 0.367204 0.440909 0.058343
O65   O     O_2   0.830824 0.415477 0.384577 -0.481482
C238  C     C_2   0.118798 0.601178 0.566289 0.508933
H54   H     H_    0.121994 0.632275 0.561593 0.040477
O66   O     O_2   0.168445 0.583262 0.613639 -0.506251
C239  C     C_2   0.118731 0.398376 0.565829 0.500995
H55   H     H_    0.122011 0.367419 0.559343 0.058820
O67   O     O_2   0.168300 0.415965 0.614476 -0.483283
C240  C     C_2   0.880385 0.601823 0.432617 0.502686
H56   H     H_    0.877382 0.632840 0.438772 0.049306
O68   O     O_2   0.830704 0.584344 0.383900 -0.482264
I1    I     I_    0.642681 0.948661 0.460054 -0.180568
I2    I     I_    0.357096 0.051446 0.539283 -0.182855
I3    I     I_    0.358052 0.949158 0.540809 -0.111901
I4    I     I_    0.641660 0.050932 0.458624 -0.114585
I5    I     I_    0.141096 0.448614 0.457958 -0.180480
I6    I     I_    0.856656 0.551293 0.539177 -0.179914
I7    I     I_    0.856876 0.448989 0.539775 -0.176139
I8    I     I_    0.140143 0.550913 0.456679 -0.114243
I9    I     I_    0.241724 0.758185 0.225182 -0.274271
I10   I     I_    0.758189 0.241554 0.774843 -0.283921
I11   I     I_    0.757954 0.759345 0.774638 -0.237058
I12   I     I_    0.241810 0.241691 0.225135 -0.250836
I13   I     I_    0.741746 0.258211 0.225168 -0.239951
I14   I     I_    0.258219 0.741685 0.774868 -0.284454
I15   I     I_    0.258255 0.258211 0.774805 -0.237239
I16   I     I_    0.742102 0.740558 0.225309 -0.250951
I17   I     I_    0.032908 0.748941 0.899934 -0.220702
I18   I     I_    0.966917 0.251999 0.099799 -0.219057
I19   I     I_    0.967159 0.751702 0.100147 -0.214224
I20   I     I_    0.033111 0.252166 0.900169 -0.222316
I21   I     I_    0.532940 0.248922 0.899967 -0.219826
I22   I     I_    0.466899 0.752315 0.099776 -0.218945
I23   I     I_    0.467115 0.249194 0.100114 -0.213337
I24   I     I_    0.533058 0.749998 0.900219 -0.211635
I25   I     I_    0.375038 0.608091 0.325924 -0.205650
I26   I     I_    0.551162 0.385398 0.669470 -0.297263
I27   I     I_    0.628751 0.606966 0.671081 -0.193616
I28   I     I_    0.448516 0.385374 0.330324 -0.296689
I29   I     I_    0.874742 0.107772 0.326267 -0.205401
I30   I     I_    0.049867 0.885330 0.669117 -0.300806
I31   I     I_    0.128461 0.107015 0.671423 -0.192947
I32   I     I_    0.955192 0.885497 0.333310 -0.301648
I33   I     I_    0.568482 0.540947 0.736515 -0.230499
I34   I     I_    0.334340 0.459595 0.257227 -0.101577
I35   I     I_    0.433682 0.539382 0.263260 -0.223518
I36   I     I_    0.665001 0.459536 0.742786 -0.099960
I37   I     I_    0.068002 0.041087 0.736695 -0.230594
I38   I     I_    0.838410 0.958537 0.255651 -0.103375
I39   I     I_    0.935332 0.040167 0.264116 -0.226311
I40   I     I_    0.164045 0.959362 0.743330 -0.102283
C241  C     C_2   0.868656 0.937987 0.498248 0.460020
H57   H     H_    0.907278 0.951730 0.552403 0.067601
O69   O     O_2   0.843283 0.955929 0.437434 -0.503073
C242  C     C_2   0.122391 0.062473 0.489103 0.438439
H58   H     H_    0.079200 0.051329 0.435464 0.065494
O70   O     O_2   0.151845 0.041579 0.546530 -0.500922
C243  C     C_2   0.128139 0.938481 0.494346 0.457995
H59   H     H_    0.093138 0.952887 0.439220 0.069750
O71   O     O_2   0.149299 0.955860 0.554710 -0.506714
C244  C     C_2   0.881588 0.063164 0.517198 0.434418
H60   H     H_    0.921753 0.051424 0.572767 0.069224
O72   O     O_2   0.856168 0.042896 0.459177 -0.507675
C245  C     C_2   0.369932 0.437993 0.501068 0.458897
H61   H     H_    0.408959 0.451415 0.555391 0.067568
O73   O     O_2   0.344237 0.456337 0.440648 -0.502614
C246  C     C_2   0.621225 0.562566 0.487127 0.436866
H62   H     H_    0.577955 0.551610 0.433334 0.066331
O74   O     O_2   0.650469 0.541495 0.544288 -0.503249
C247  C     C_2   0.631563 0.438235 0.503082 0.463420
H63   H     H_    0.592492 0.451952 0.449136 0.066964
O75   O     O_2   0.657535 0.456195 0.563936 -0.501804
C248  C     C_2   0.380617 0.562938 0.515184 0.437137
H64   H     H_    0.420794 0.551077 0.570612 0.068494
O76   O     O_2   0.355130 0.542838 0.456946 -0.505916
I41   I     I_    0.905564 0.812947 0.681413 -0.210043
I42   I     I_    0.076120 0.195595 0.320613 -0.252127
I43   I     I_    0.111662 0.816622 0.316803 -0.253431
I44   I     I_    0.907862 0.192851 0.684421 -0.282726
I45   I     I_    0.406417 0.311990 0.681979 -0.212122
I46   I     I_    0.576304 0.696057 0.320202 -0.251786
I47   I     I_    0.593678 0.313402 0.319165 -0.204377
I48   I     I_    0.407089 0.692035 0.683782 -0.271667

loop_
_geom_bond_atom_site_label_1
_geom_bond_atom_site_label_2
_ccdc_geom_bond_type
C243  H59   S    
C233  H49   S    
C198  C206  A    
C31   I27   S    
C32   I28   S    
C22   I18   S    
C16   H28   S    
C81   C134  S    
C61   C69   A    
C225  H41   S    
C12   C23   A    
C45   C57   A    
C142  C238  S    
C122  C130  A    
O1    Zn9   S    
C6    C25   A    
C195  C203  A    
C115  C136  A    
C79   O19   A    
C184  C193  S    
C183  O51   A    
C153  C173  A    
C34   I30   S    
C193  C201  A    
C238  H54   S    
C62   C70   A    
C137  C233  S    
C214  C222  A    
C60   I40   S    
C5    C217  A    
C105  C241  S    
C177  C200  S    
C102  H22   S    
C5    C185  A    
C196  C204  A    
C61   C105  A    
C62   H34   S    
O30   Zn4   S    
C97   C105  A    
C206  C214  A    
C140  C236  S    
O52   Zn6   S    
C200  C208  A    
O2    Zn2   S    
C99   C107  A    
C24   I20   S    
C9    C189  A    
C63   C107  A    
C41   C49   A    
C10   C21   A    
O7    Zn9   S    
C115  C123  A    
C51   C52   A    
C109  C245  S    
C78   O14   A    
O3    Zn13  S    
C11   C223  A    
C144  C240  S    
C228  H44   S    
C212  C220  A    
C71   I43   S    
C1    C148  S    
C72   I44   S    
C103  H23   S    
C7    C28   A    
C182  O42   A    
C108  C244  S    
C190  H6    S    
C75   I47   S    
C216  C224  A    
C73   I45   S    
O14   Zn2   S    
C207  I15   S    
C16   C212  A    
O35   Zn5   S    
C204  C212  A    
C231  O59   D    
C13   C21   A    
C95   H15   S    
C66   C110  A    
C72   C84   A    
O26   Zn14  S    
O2    Zn10  S    
C19   H31   S    
C63   C71   A    
C96   C104  A    
C33   C47   A    
C30   I26   S    
C34   C48   A    
C35   C45   A    
C169  I1    S    
C13   H25   S    
C246  H62   S    
C164  O28   A    
C124  C161  S    
C44   C50   A    
C180  O40   A    
O10   Zn16  S    
C159  O29   A    
C114  C226  S    
C226  H42   S    
C113  C225  S    
C67   H39   S    
C239  H55   S    
C62   C106  A    
C79   O17   A    
C83   C91   A    
C6    C186  A    
C98   C106  A    
C178  O38   A    
C17   C25   A    
C55   I35   S    
C204  I12   S    
C209  C217  A    
C118  C129  A    
C150  C170  A    
C2    O6    A    
C230  H46   S    
C19   C215  A    
C192  C200  A    
C144  C154  A    
C70   C82   A    
C244  O72   D    
C98   H18   S    
C141  C147  A    
C47   C59   A    
C48   C52   A    
C94   C102  A    
C191  H7    S    
C69   I41   S    
C40   C77   S    
C142  C156  A    
C240  H56   S    
C194  C202  A    
C178  C199  S    
C84   C135  S    
C241  H57   S    
O36   Zn6   S    
C231  H47   S    
O1    Zn11  S    
C110  C246  S    
C125  C160  S    
O32   Zn2   S    
O33   Zn7   S    
C116  C135  A    
C126  C159  S    
C18   H30   S    
C243  O71   D    
O27   Zn15  S    
C149  C169  A    
C206  I14   S    
C7    C187  A    
O43   Zn15  S    
C179  O47   A    
C247  O75   D    
C163  O33   A    
C1    O5    A    
C170  C171  A    
C156  C168  A    
C150  C166  A    
C91   H11   S    
C183  C194  S    
C151  C171  A    
C124  C132  A    
C116  C228  S    
C184  O44   A    
C89   H9    S    
C181  C196  S    
C174  C175  A    
O28   Zn16  S    
C219  C224  A    
C85   C93   A    
C93   H13   S    
C87   C95   A    
C139  C235  S    
C36   C46   A    
C53   I33   S    
C100  H20   S    
C119  C231  S    
C185  H1    S    
C46   C58   A    
O34   Zn8   S    
C203  C211  A    
C18   C214  A    
C201  C209  A    
C234  H50   S    
O29   Zn3   S    
C95   C103  A    
C128  C157  S    
C64   C108  A    
O21   Zn9   S    
O31   Zn1   S    
C37   C80   S    
C100  C108  A    
C154  C174  A    
C39   C78   S    
C13   C209  A    
C149  C165  A    
C27   I23   S    
C155  C167  A    
C104  C112  A    
C10   C222  A    
C25   I21   S    
C104  H24   S    
C2    C147  S    
C151  C165  A    
O4    Zn6   S    
C161  O25   A    
C63   H35   S    
C187  H3    S    
C73   C85   A    
C41   C53   A    
C83   C136  S    
C42   C50   A    
C43   C55   A    
C242  H58   S    
C112  C248  S    
O48   Zn2   S    
C67   C75   A    
C234  O62   D    
C68   H40   S    
C218  C221  A    
C53   C56   A    
C75   C87   A    
C181  O49   A    
C54   C55   A    
C176  I8    S    
C31   C41   A    
C183  O43   A    
C186  C194  A    
C65   H37   S    
C188  H4    S    
C152  C166  A    
O17   Zn5   S    
C3    O11   A    
C1    O7    A    
C179  C198  S    
C68   C76   A    
C2    O8    A    
C14   C22   A    
C138  C146  A    
C4    C145  S    
C238  O66   D    
C11   C191  A    
O38   Zn10  S    
C113  C121  A    
C233  O61   D    
C49   C50   A    
C182  C195  S    
C84   C92   A    
C88   C131  S    
C91   C99   A    
C248  H64   S    
C117  C125  A    
C220  C223  A    
C153  C167  A    
O3    Zn5   S    
C237  O65   D    
C119  C127  A    
C88   C96   A    
C80   O18   A    
C54   I34   S    
C120  C131  A    
C197  C205  A    
C18   C26   A    
C61   H33   S    
C101  H21   S    
C8    C188  A    
O4    Zn8   S    
C20   C216  A    
C137  C145  A    
O49   Zn7   S    
C128  C136  A    
C228  O56   D    
C143  C153  A    
C38   C79   S    
C101  C109  A    
C58   I38   S    
C70   I42   S    
C103  C111  A    
C236  H52   S    
C12   C224  A    
C189  C197  A    
C6    C218  A    
C213  C221  A    
C201  I9    S    
C245  O73   D    
C235  H51   S    
C3    O9    A    
C229  O57   D    
C81   C89   A    
O23   Zn11  S    
C205  C213  A    
C56   I36   S    
C57   I37   S    
C29   C43   A    
C96   H16   S    
C30   C44   A    
C178  O46   A    
O40   Zn12  S    
C12   C192  A    
C138  C234  S    
C246  O74   D    
C20   H32   S    
C225  O53   D    
C143  C239  S    
O37   Zn9   S    
C120  C232  S    
O11   Zn13  S    
C226  O54   D    
C140  C146  A    
C167  C168  A    
C141  C155  A    
C57   C60   A    
C157  O21   A    
C138  C152  A    
C58   C59   A    
C139  C149  A    
C174  I6    S    
C189  H5    S    
C247  H63   S    
C74   I46   S    
C117  C229  S    
C85   C130  S    
C44   C56   A    
C227  H43   S    
C230  O58   D    
O39   Zn11  S    
C33   C39   A    
C127  C158  S    
C65   C109  A    
C67   C111  A    
C35   I31   S    
C80   O20   A    
C113  C134  A    
C177  O45   A    
C102  C110  A    
C93   C101  A    
C211  C219  A    
C190  C198  A    
C155  C175  A    
C217  C222  A    
C192  H8    S    
C156  C176  A    
C171  I3    S    
C116  C124  A    
C123  C131  A    
O6    Zn12  S    
C184  O52   A    
C121  C129  A    
C162  O26   A    
C47   C51   A    
C120  C128  A    
C14   H26   S    
C20   C28   A    
C82   C90   A    
C4    O10   A    
C157  O31   A    
C82   C133  S    
C158  O32   A    
C42   C54   A    
C23   I19   S    
O18   Zn6   S    
O46   Zn4   S    
C152  C172  A    
O47   Zn1   S    
C92   H12   S    
C99   H19   S    
C69   C81   A    
C97   H17   S    
C5    C26   A    
C9    C221  A    
O25   Zn13  S    
C182  O50   A    
C29   C37   A    
C8    C27   A    
C32   C42   A    
C172  I4    S    
C66   H38   S    
C163  O27   A    
C66   C74   A    
C26   I22   S    
C165  C166  A    
O4    Zn14  S    
C35   C39   A    
C144  C148  A    
C242  O70   D    
C111  C247  S    
O24   Zn12  S    
C143  C147  A    
C36   I32   S    
C17   H29   S    
C10   C190  A    
O1    Zn1   S    
O20   Zn8   S    
C191  C199  A    
O42   Zn14  S    
C68   C112  A    
C9    C22   A    
C45   C51   A    
C46   C52   A    
C11   C24   A    
C65   C73   A    
C90   H10   S    
C208  C216  A    
C77   O13   A    
C244  H60   S    
C15   C211  A    
C180  C197  S    
C86   C94   A    
C208  I16   S    
C94   H14   S    
C71   C83   A    
C141  C237  S    
C180  O48   A    
C175  I7    S    
C181  O41   A    
C32   C38   A    
C19   C27   A    
C76   C88   A    
O13   Zn1   S    
C137  C151  A    
C7    C219  A    
O15   Zn3   S    
C177  O37   A    
C241  O69   D    
C235  O63   D    
C202  C210  A    
C17   C213  A    
C126  C134  A    
C207  C215  A    
O22   Zn10  S    
C48   C60   A    
C236  O64   D    
C239  O67   D    
C31   C37   A    
C59   I39   S    
C14   C210  A    
C29   I25   S    
C4    O12   A    
C142  C148  A    
C36   C40   A    
O8    Zn10  S    
C123  C162  S    
C43   C49   A    
C107  C243  S    
O5    Zn11  S    
C121  C164  S    
C159  O23   A    
C122  C163  S    
C89   C97   A    
C160  O24   A    
C87   C132  S    
C8    C220  A    
C160  O30   A    
C186  H2    S    
C115  C227  S    
C125  C133  A    
C199  C207  A    
C119  C132  A    
O12   Zn14  S    
C74   C86   A    
C179  O39   A    
C117  C130  A    
C154  C168  A    
C202  I10   S    
C227  O55   D    
C232  H48   S    
C232  O60   D    
O4    Zn16  S    
C169  C172  A    
C248  O76   D    
C161  O35   A    
C140  C150  A    
C162  O36   A    
C92   C100  A    
C237  H53   S    
O16   Zn4   S    
C173  C176  A    
O50   Zn8   S    
C158  O22   A    
C139  C145  A    
C76   I48   S    
C187  C195  A    
O1    Zn3   S    
C164  O34   A    
O2    Zn4   S    
C185  C193  A    
O44   Zn16  S    
C215  C223  A    
C86   C129  S    
C173  I5    S    
C210  C218  A    
C170  I2    S    
C77   O15   A    
C78   O16   A    
O3    Zn15  S    
O51   Zn5   S    
O45   Zn3   S    
C15   H27   S    
C15   C23   A    
C114  C133  A    
C205  I13   S    
C33   I29   S    
C64   C72   A    
C118  C230  S    
C127  C135  A    
C203  I11   S    
C28   I24   S    
O19   Zn7   S    
C21   I17   S    
C114  C122  A    
C188  C196  A    
C3    C146  S    
C16   C24   A    
C245  H61   S    
O9    Zn15  S    
C34   C40   A    
O41   Zn13  S    
C118  C126  A    
C30   C38   A    
C229  H45   S    
C240  O68   D    
C90   C98   A    
C64   H36   S    
C106  C242  S    
O3    Zn7   S    
O2    Zn12  S    
