data_mof_unit_pretest_1717.cif
_audit_creation_date              2012-10-26T17:14:06-0400
_audit_creation_method            fapswitch 2.2
_symmetry_space_group_name_H-M    P1
_symmetry_Int_Tables_number       1
_space_group_crystal_system       triclinic
_cell_length_a                    18.971499
_cell_length_b                    18.846308
_cell_length_c                    19.120736
_cell_angle_alpha                 109.156123
_cell_angle_beta                  109.665784
_cell_angle_gamma                 109.285491
_cell_volume                      5282.43766192

loop_
_atom_site_label
_atom_site_type_symbol
_atom_type_description
_atom_site_fract_x
_atom_site_fract_y
_atom_site_fract_z
_atom_type_partial_charge
C1    C     C_R   0.384599 0.382148 0.501818 0.542778
C2    C     C_R   0.590397 0.345077 0.625623 -0.135719
C3    C     C_2   0.252054 0.259527 0.577764 0.107108
C4    C     C_R   0.617502 0.499510 0.617339 0.601090
C5    C     C_2   0.181462 0.191207 0.504898 -0.084953
C6    C     C_2   0.310379 0.330445 0.572530 -0.144866
C7    C     C_2   0.325056 0.313939 0.506592 -0.153326
C8    C     C_2   0.258721 0.512930 0.185137 -0.177350
C9    C     C_2   0.176866 0.483206 0.167804 -0.136862
C10   C     C_2   0.318305 0.500193 0.246740 -0.146193
C11   C     C_2   0.320579 0.511495 0.321147 0.139893
C12   C     C_R   0.761482 0.578538 0.745329 -0.038584
C13   C     C_2   0.740481 0.818516 0.489368 -0.145541
C14   C     C_2   0.818358 0.825227 0.511175 -0.146167
C15   C     C_2   0.677047 0.759638 0.501630 0.119894
C16   C     C_R   0.612877 0.617457 0.495534 0.595917
C17   C     C_2   0.671632 0.682227 0.486170 -0.075834
C18   C     C_R   0.998704 0.383115 0.881354 0.544017
C19   C     C_R   0.878601 0.502876 0.881227 0.576454
C20   C     C_R   0.998902 0.617930 0.115907 0.568674
C21   C     C_R   0.114456 0.495657 0.110860 0.545163
C22   C     C_R   0.996376 0.114188 0.615897 0.576955
C23   C     C_R   0.811390 0.504139 0.815660 -0.015318
C24   C     C_R   0.117155 0.119874 0.502170 0.573182
C25   C     C_R   0.999187 0.881126 0.383259 0.555275
C26   C     C_R   0.882741 0.884845 0.502576 0.547097
C27   C     C_2   0.973864 0.233726 0.676048 0.345353
C28   C     C_R   0.383335 0.502294 0.382541 0.565623
C29   C     C_2   0.982733 0.166497 0.679092 0.163134
C30   C     C_2   0.956087 0.285103 0.737190 0.148143
C31   C     C_2   0.008173 0.320188 0.821928 0.267241
C32   C     C_2   0.009336 0.749949 0.323112 -0.159223
C33   C     C_2   0.994178 0.812164 0.314872 -0.114191
C34   C     C_R   0.736328 0.423081 0.747211 -0.029776
C35   C     C_2   0.995631 0.677100 0.249295 -0.156517
C36   C     C_2   0.006578 0.686866 0.186603 -0.121199
C37   C     C_R   0.781309 0.653200 0.736190 0.256196
C38   C     C_R   0.832095 0.734234 0.808109 -0.079497
C39   C     C_R   0.875146 0.743114 0.888336 0.118603
C40   C     C_R   0.880080 0.670467 0.892046 0.134703
C41   C     C_R   0.819535 0.584365 0.819260 -0.038130
C42   C     C_3   0.219453 0.505160 0.376339 -0.289207
C43   C     C_3   0.632151 0.868109 0.547994 -0.301961
C44   C     C_3   0.801682 0.625806 0.622553 -0.117650
C45   C     C_R   0.670054 0.422936 0.685187 -0.019551
C46   C     C_3   0.059960 0.320266 0.646229 -0.125311
C47   C     C_3   0.883810 0.084179 0.711662 -0.334943
C48   C     C_3   0.893955 0.365313 0.688829 -0.291980
C49   C     C_3   0.114185 0.324056 0.931268 -0.105576
C50   C     C_3   0.899894 0.892503 0.962451 -0.318956
C51   C     C_3   0.033515 0.738375 0.984117 -0.247180
C52   C     C_3   0.572197 0.138373 0.686628 -0.308491
C53   C     C_3   0.316326 0.349213 0.733698 -0.316253
C54   C     C_R   0.684900 0.499844 0.682602 -0.007678
C55   C     C_R   0.724261 0.341294 0.738508 -0.092654
C56   C     C_R   0.646575 0.264221 0.677235 0.159410
C57   C     C_R   0.579154 0.267075 0.621811 -0.078937
Cu1   Cu    Cu3+1 0.500390 0.438990 0.439360 0.919139
Cu2   Cu    Cu3+1 0.499610 0.561010 0.560640 0.957279
Cu3   Cu    Cu3+1 0.935830 0.439030 0.996840 0.905605
Cu4   Cu    Cu3+1 0.057850 0.561040 0.996790 0.895235
Cu5   Cu    Cu3+1 0.061410 0.000010 0.561410 0.920543
Cu6   Cu    Cu3+1 0.938590 0.999990 0.438590 0.960392
H1    H     H_    0.518420 0.208482 0.573802 0.117730
H2    H     H_    0.708594 0.662429 0.459438 0.061504
H3    H     H_    0.026412 0.749132 0.382953 0.141199
H4    H     H_    0.967973 0.807761 0.252650 0.103326
H5    H     H_    0.980781 0.616124 0.248952 0.141741
H6    H     H_    0.030888 0.750165 0.191480 0.094253
H7    H     H_    0.838364 0.789672 0.799921 0.134423
H8    H     H_    0.773747 0.334256 0.777985 0.135825
H9    H     H_    0.535668 0.342975 0.580720 0.133694
H10   H     H_    0.262180 0.591523 0.331987 0.259520
H11   H     H_    0.151737 0.484956 0.333254 0.123420
H12   H     H_    0.164800 0.191902 0.445000 0.069518
H13   H     H_    0.238623 0.549515 0.442629 0.157974
H14   H     H_    0.222950 0.446663 0.373724 0.148707
H15   H     H_    0.555219 0.733515 0.486755 0.258316
H16   H     H_    0.589172 0.877319 0.573289 0.142655
H17   H     H_    0.616232 0.877935 0.491693 0.135157
H18   H     H_    0.699779 0.916822 0.599100 0.152388
H19   H     H_    0.782143 0.625393 0.560927 0.129794
H20   H     H_    0.790395 0.559791 0.609287 0.120481
H21   H     H_    0.871645 0.674021 0.665257 0.101892
H22   H     H_    0.075325 0.380206 0.700131 0.114972
H23   H     H_    0.344300 0.396354 0.624611 0.147108
H24   H     H_    0.062732 0.335146 0.595383 0.139289
H25   H     H_    0.109532 0.301093 0.667068 0.138455
H26   H     H_    0.011957 0.117180 0.760194 0.266704
H27   H     H_    0.880938 0.070594 0.763212 0.144949
H28   H     H_    0.856861 0.022044 0.653523 0.139007
H29   H     H_    0.843992 0.114998 0.697827 0.155467
H30   H     H_    0.846572 0.284800 0.734210 0.228865
H31   H     H_    0.831021 0.362106 0.658033 0.148432
H32   H     H_    0.920901 0.363455 0.645401 0.188204
H33   H     H_    0.937891 0.427243 0.750072 0.146735
H34   H     H_    0.297132 0.247773 0.457296 0.100339
H35   H     H_    0.061643 0.281069 0.936277 0.122948
H36   H     H_    0.145198 0.392402 0.981377 0.132422
H37   H     H_    0.163914 0.304063 0.942927 0.135273
H38   H     H_    0.929311 0.821915 0.019789 0.249386
H39   H     H_    0.935068 0.948313 0.028126 0.138617
H40   H     H_    0.829664 0.868174 0.936738 0.147916
H41   H     H_    0.921589 0.916314 0.923435 0.148135
H42   H     H_    0.939744 0.706839 0.020220 0.228643
H43   H     H_    0.082990 0.745838 0.041434 0.156400
H44   H     H_    0.047344 0.804509 0.996512 0.141042
H45   H     H_    0.281519 0.544045 0.152381 0.144550
H46   H     H_    0.041048 0.707097 0.928802 0.150487
H47   H     H_    0.694621 0.185139 0.701212 0.240872
H48   H     H_    0.569665 0.076332 0.678633 0.136835
H49   H     H_    0.507634 0.123286 0.640874 0.149644
H50   H     H_    0.587975 0.178129 0.753050 0.142744
H51   H     H_    0.284796 0.220625 0.667877 0.269238
H52   H     H_    0.313635 0.342286 0.788349 0.151397
H53   H     H_    0.287921 0.390267 0.723118 0.144939
H54   H     H_    0.384866 0.380602 0.750129 0.138166
H55   H     H_    0.152939 0.444122 0.194185 0.136470
H56   H     H_    0.363484 0.484358 0.231970 0.115943
H57   H     H_    0.724280 0.858844 0.465032 0.144164
H58   H     H_    0.838067 0.790899 0.542529 0.103464
N1    N     N_2   0.275387 0.549960 0.350953 -0.518623
N2    N     N_2   0.619009 0.781556 0.523552 -0.485400
N3    N     N_2   0.972352 0.140917 0.739107 -0.529837
N4    N     N_2   0.881349 0.292709 0.703616 -0.531361
N5    N     N_2   0.919806 0.825139 0.964847 -0.526509
N6    N     N_2   0.947275 0.686489 0.967538 -0.466136
N7    N     N_2   0.637430 0.183639 0.670301 -0.515706
N8    N     N_2   0.267726 0.264659 0.658421 -0.494104
O1    O     O_R   0.411310 0.359450 0.448800 -0.514932
O2    O     O_R   0.947570 0.089010 0.536620 -0.472159
O3    O     O_R   0.140880 0.089030 0.551840 -0.501558
O4    O     O_R   0.410660 0.462490 0.551220 -0.517236
O5    O     O_R   0.037150 0.089020 0.448130 -0.508073
O6    O     O_R   0.052430 0.910990 0.463380 -0.505773
O7    O     O_R   0.948700 0.910980 0.359670 -0.510988
O8    O     O_R   0.962850 0.910980 0.551870 -0.513308
O9    O     O_R   0.859120 0.910970 0.448160 -0.509425
O10   O     O_R   0.589930 0.448490 0.538390 -0.515342
O11   O     O_R   0.589280 0.551530 0.640800 -0.486184
O12   O     O_R   0.048900 0.462510 0.908320 -0.513884
O13   O     O_R   0.589340 0.537510 0.448780 -0.519437
O14   O     O_R   0.588690 0.640550 0.551200 -0.456295
O15   O     O_R   0.410720 0.448470 0.359200 -0.530290
O16   O     O_R   0.410070 0.551510 0.461610 -0.496337
O17   O     O_R   0.945860 0.359480 0.908360 -0.541521
O18   O     O_3   0.752157 0.648158 0.657164 -0.548455
O19   O     O_3   0.976540 0.252485 0.612398 -0.565595
O20   O     O_3   0.084329 0.316314 0.849377 -0.592830
O21   O     O_R   0.855710 0.448510 0.907250 -0.522965
O22   O     O_R   0.958760 0.551540 0.907200 -0.488947
O23   O     O_R   0.944780 0.537560 0.085320 -0.495640
O24   O     O_R   0.047820 0.640590 0.085270 -0.511682
O25   O     O_R   0.034920 0.448530 0.086440 -0.513468
O26   O     O_R   0.137970 0.551560 0.086390 -0.503474
O27   O     O_R   0.051300 0.089020 0.640330 -0.522791

loop_
_geom_bond_atom_site_label_1
_geom_bond_atom_site_label_2
_ccdc_geom_bond_type
Cu1   O10   S    
C55   C56   A    
C38   H7    S    
C50   H41   S    
C48   H32   S    
C22   O2    A    
C27   C29   D    
C47   H29   S    
C16   O13   A    
C35   C36   D    
C3    C6    S    
C42   H13   S    
C44   O18   S    
C52   N7    S    
C2    C57   A    
C22   O27   A    
C52   H50   S    
C33   H4    S    
C28   O16   A    
Cu5   Cu6   S    
C15   N2    S    
Cu2   O11   S    
C22   C29   S    
C44   H19   S    
C30   C31   D    
C31   O20   S    
C53   H54   S    
C49   H36   S    
C52   H49   S    
C43   H16   S    
C29   N3    S    
C8    H45   S    
C19   O21   A    
C2    H9    S    
C56   C57   A    
Cu3   O23   S    
C12   C37   A    
C25   O7    A    
Cu1   O13   S    
C44   H21   S    
C10   H56   S    
C48   N4    S    
C46   O19   S    
C16   C17   S    
C19   O22   A    
C21   O25   A    
C23   C41   A    
C28   O15   A    
Cu6   O2    S    
C7    H34   S    
C53   H53   S    
C3    C5    D    
C46   H22   S    
C44   H20   S    
C49   H35   S    
C30   N4    S    
Cu2   O14   S    
C50   H40   S    
C51   H46   S    
C14   H58   S    
C1    C7    S    
C13   C14   D    
C27   C30   S    
C9    H55   S    
Cu3   O25   S    
Cu3   O17   S    
C1    O4    A    
Cu4   O26   S    
C46   H25   S    
C2    C45   A    
C42   H11   S    
C20   O24   A    
H42   N6    S    
Cu6   O5    S    
Cu5   O3    S    
C16   O14   A    
C1    O1    A    
C39   C40   A    
C8    C9    D    
C52   H48   S    
C26   O9    A    
Cu1   Cu2   S    
C40   N6    S    
Cu2   O4    S    
C37   O18   S    
C20   O23   A    
C8    C10   S    
Cu3   Cu4   S    
Cu5   O6    S    
C5    H12   S    
C19   C23   S    
C32   C35   S    
C37   C38   A    
C4    O11   A    
C24   O3    A    
C23   C34   A    
H38   N5    S    
C21   O26   A    
C26   O8    A    
C34   C45   A    
Cu3   O21   S    
C14   C26   S    
H15   N2    S    
Cu4   O22   S    
C48   H31   S    
C50   N5    S    
Cu2   O16   S    
Cu4   O12   S    
C40   C41   A    
H26   N3    S    
C45   C54   A    
C50   H39   S    
C13   C15   S    
C43   H18   S    
Cu6   O9    S    
C11   C28   S    
C11   N1    S    
C53   N8    S    
C12   C54   A    
C43   N2    S    
C13   H57   S    
C36   H6    S    
C42   N1    S    
C57   H1    S    
C32   H3    S    
C46   H24   S    
C24   O5    A    
C15   C17   D    
C48   H33   S    
C4    C54   S    
C3    N8    S    
C47   H28   S    
C18   O12   A    
C18   O17   A    
Cu4   O24   S    
C6    C7    D    
C12   C41   A    
C17   H2    S    
C6    H23   S    
C49   O20   S    
C51   N6    S    
Cu6   O7    S    
C43   H17   S    
C27   O19   S    
C32   C33   D    
C4    O10   A    
C9    C21   S    
C47   N3    S    
C38   C39   A    
C5    C24   S    
C35   H5    S    
Cu1   O1    S    
C51   H43   S    
H51   N8    S    
Cu5   O27   S    
C56   N7    S    
Cu5   O8    S    
C25   O6    A    
H30   N4    S    
C47   H27   S    
C10   C11   D    
C20   C36   S    
Cu1   O15   S    
C34   C55   A    
C42   H14   S    
C51   H44   S    
H10   N1    S    
H47   N7    S    
C39   N5    S    
C18   C31   S    
C55   H8    S    
C53   H52   S    
C25   C33   S    
C49   H37   S    
