data_mof_unit_pretest_189.cif
_audit_creation_date              2012-12-10T20:35:50-0500
_audit_creation_method            fapswitch 2.2
_symmetry_space_group_name_H-M    P1
_symmetry_Int_Tables_number       1
_space_group_crystal_system       triclinic
_cell_length_a                    15.738992
_cell_length_b                    10.688653
_cell_length_c                    9.92298
_cell_angle_alpha                 89.926179
_cell_angle_beta                  90.25142
_cell_angle_gamma                 91.232988
_cell_volume                      1668.92549743

loop_
_atom_site_label
_atom_site_type_symbol
_atom_type_description
_atom_site_fract_x
_atom_site_fract_y
_atom_site_fract_z
_atom_type_partial_charge
C1    C     C_R   0.500717 0.260485 0.500108 0.950138
C2    C     C_3   0.949873 0.409467 0.614984 -0.235958
C3    C     C_3   0.917245 0.508012 0.510500 0.110813
C4    C     C_3   0.953403 0.643266 0.539197 -0.195478
C5    C     C_3   0.051843 0.637597 0.555841 -0.164145
C6    C     C_1   0.825552 0.505646 0.505118 -0.070209
C7    C     C_1   0.174818 0.504166 0.502961 -0.059942
C8    C     C_1   0.249934 0.502012 0.500143 -0.112665
C9    C     C_R   0.486407 0.062754 0.617740 0.128280
C10   C     C_R   0.506819 0.128935 0.501204 -0.051621
C11   C     C_R   0.538243 0.066292 0.388460 -0.204112
C12   C     C_R   0.338553 0.500015 0.499866 0.959184
C13   C     C_R   0.538529 0.936849 0.388396 -0.188846
C14   C     C_R   0.508273 0.871537 0.501674 -0.110189
C15   C     C_R   0.488611 0.935793 0.618991 0.062530
C16   C     C_3   0.416906 0.923234 0.717934 -0.243357
C17   C     C_3   0.413920 0.067033 0.716120 -0.324044
C18   C     C_R   0.450388 0.416376 0.070564 0.198874
C19   C     C_R   0.556395 0.573372 0.072321 -0.021818
C20   C     C_R   0.552198 0.579745 0.928116 -0.009175
C21   C     C_R   0.451231 0.415055 0.928645 0.175796
C22   C     C_3   0.356633 0.401865 0.922599 -0.440780
C23   C     C_R   0.501195 0.739606 0.500032 0.858913
C24   C     C_3   0.356131 0.403278 0.075581 -0.469431
C25   C     C_R   0.661513 0.500528 0.500275 0.883461
C26   C     C_3   0.049126 0.402727 0.606911 -0.256114
C27   C     C_3   0.047439 0.475810 0.365891 -0.378560
C28   C     C_3   0.949595 0.469597 0.369156 -0.392574
C29   C     C_1   0.750303 0.503118 0.501711 -0.118084
C30   C     C_3   0.083248 0.506517 0.508391 0.149640
H1    H     H_    0.559005 0.888715 0.298717 0.169305
H2    H     H_    0.326041 0.484777 0.877078 0.247522
H3    H     H_    0.335475 0.310490 0.879565 0.202720
N1    N     N_R   0.499430 0.499140 0.142800 -0.161714
N2    N     N_R   0.499430 0.499180 0.857150 -0.156394
O1    O     O_R   0.500010 0.316790 0.614690 -0.615249
O2    O     O_R   0.500000 0.316760 0.385350 -0.620515
O3    O     O_R   0.377150 0.500020 0.614720 -0.591192
O4    O     O_R   0.377140 0.499990 0.385380 -0.619938
O5    O     O_R   0.500000 0.683240 0.614650 -0.628283
O6    O     O_R   0.499990 0.683210 0.385310 -0.654570
O7    O     O_R   0.622860 0.500010 0.614620 -0.642356
O8    O     O_R   0.622850 0.499980 0.385280 -0.633885
Zn1   Zn    Zn3+2 0.500010 0.500020 0.653130 0.975607
Zn2   Zn    Zn3+2 0.499990 0.499980 0.346870 0.953611
H4    H     H_    0.924071 0.316121 0.582579 0.198572
C31   C     C_2   0.094056 0.404499 0.742959 0.439419
H5    H     H_    0.091298 0.485552 0.808209 0.060177
O9    O     O_2   0.134423 0.314428 0.780205 -0.556745
C32   C     C_2   0.916234 0.430353 0.756033 0.429940
H6    H     H_    0.938545 0.509468 0.815616 0.054791
O10   O     O_2   0.864360 0.357074 0.804975 -0.521758
H7    H     H_    0.937814 0.701285 0.449400 0.205675
H8    H     H_    0.559159 0.116492 0.299230 0.178842
C33   C     C_2   0.340190 0.853495 0.661632 0.428209
H9    H     H_    0.316139 0.875158 0.561751 0.081814
O11   O     O_2   0.305098 0.771301 0.727807 -0.582563
H10   H     H_    0.438829 0.885894 0.816560 0.214386
C34   C     C_2   0.331479 0.120835 0.664985 0.412956
H11   H     H_    0.277179 0.121891 0.731844 0.121075
O12   O     O_2   0.324132 0.161662 0.550701 -0.578643
H12   H     H_    0.434620 0.109614 0.813365 0.152821
C35   C     C_2   0.625270 0.642311 0.144800 0.523372
H13   H     H_    0.614446 0.687019 0.239763 0.092318
O13   O     O_2   0.697068 0.647876 0.098665 -0.563276
H14   H     H_    0.063781 0.310583 0.560606 0.201759
C36   C     C_2   0.598601 0.681780 0.856462 0.522206
H15   H     H_    0.630538 0.665835 0.762776 0.104845
O14   O     O_2   0.600684 0.787820 0.902235 -0.589793
H16   H     H_    0.325571 0.487176 0.118277 0.227363
H17   H     H_    0.335081 0.312551 0.120522 0.217460
H18   H     H_    0.069129 0.546952 0.291200 0.234586
H19   H     H_    0.071425 0.384345 0.330398 0.186029
H20   H     H_    0.927029 0.372853 0.344223 0.198117
H21   H     H_    0.924016 0.532444 0.289795 0.212825
H22   H     H_    0.068128 0.647367 0.664472 0.111535
C37   C     C_2   0.096474 0.747252 0.486940 0.471370
H23   H     H_    0.140569 0.806031 0.544204 0.091343
O15   O     O_2   0.084905 0.769877 0.367722 -0.565992
C38   C     C_2   0.912646 0.709526 0.656518 0.352067
H24   H     H_    0.857460 0.669423 0.706983 0.096079
O16   O     O_2   0.939153 0.812617 0.691883 -0.518378

loop_
_geom_bond_atom_site_label_1
_geom_bond_atom_site_label_2
_ccdc_geom_bond_type
C33   H9    S    
C35   O13   D    
C4    H7    S    
C18   C21   A    
C20   C36   S    
C19   C20   A    
C3    C6    S    
C28   H20   S    
C25   O8    A    
C24   H16   S    
C7    C8    T    
C31   O9    D    
C37   H23   S    
C2    H4    S    
C22   H2    S    
C18   C24   S    
C3    C28   S    
C4    C38   S    
C23   O5    A    
C2    C32   S    
C20   N2    A    
C19   C35   S    
C16   C17   S    
C32   O10   D    
C9    C10   A    
C1    O2    A    
O4    Zn2   S    
C34   H11   S    
C7    C30   S    
C13   C14   A    
C27   C30   S    
O7    Zn1   S    
C37   O15   D    
C25   C29   S    
C34   O12   D    
C36   H15   S    
C26   H14   S    
C38   O16   D    
C38   H24   S    
C36   O14   D    
C14   C23   S    
O3    Zn1   S    
C17   H12   S    
O8    Zn2   S    
C31   H5    S    
C8    C12   S    
C32   H6    S    
C2    C26   S    
N1    Zn2   S    
C16   H10   S    
N2    Zn1   S    
C18   N1    A    
C11   H8    S    
C26   C31   S    
C17   C34   S    
C9    C17   S    
C26   C30   S    
C33   O11   D    
C22   C24   S    
O1    Zn1   S    
C5    C37   S    
C3    C4    S    
C5    C30   S    
C22   H3    S    
C13   H1    S    
C1    C10   S    
C4    C5    S    
C19   N1    A    
C25   O7    A    
C21   N2    A    
C23   O6    A    
C5    H22   S    
C2    C3    S    
C9    C15   A    
C16   C33   S    
C27   H19   S    
C11   C13   A    
C12   O4    A    
C12   O3    A    
C10   C11   A    
C35   H13   S    
O5    Zn1   S    
C6    C29   T    
C24   H17   S    
C27   C28   S    
O6    Zn2   S    
C14   C15   A    
C21   C22   S    
C28   H21   S    
O2    Zn2   S    
C27   H18   S    
C15   C16   S    
C1    O1    A    
