data_mof_unit_pretest_610.cif
_audit_creation_date              2012-12-10T17:09:56-0500
_audit_creation_method            fapswitch 2.2
_symmetry_space_group_name_H-M    P1
_symmetry_Int_Tables_number       1
_space_group_crystal_system       triclinic
_cell_length_a                    10.767938
_cell_length_b                    12.974397
_cell_length_c                    11.678281
_cell_angle_alpha                 99.62559
_cell_angle_beta                  93.36823
_cell_angle_gamma                 90.586669
_cell_volume                      1605.46132548

loop_
_atom_site_label
_atom_site_type_symbol
_atom_type_description
_atom_site_fract_x
_atom_site_fract_y
_atom_site_fract_z
_atom_type_partial_charge
C1    C     C_R   0.500061 0.299276 0.478801 0.816607
C2    C     C_R   0.070828 0.594285 0.568478 0.091706
C3    C     C_R   0.128996 0.508721 0.502632 -0.090307
C4    C     C_R   0.058933 0.427941 0.433613 -0.197327
C5    C     C_R   0.930766 0.428451 0.432159 -0.203515
C6    C     C_R   0.871107 0.509818 0.499604 -0.088557
C7    C     C_R   0.514616 0.813602 0.532686 -0.043462
C8    C     C_R   0.502593 0.185914 0.466383 -0.158837
C9    C     C_R   0.433010 0.017904 0.358586 -0.193145
C10   C     C_R   0.441556 0.125621 0.368026 -0.258818
C11   C     C_R   0.562581 0.137442 0.553584 0.380226
C12   C     C_R   0.262549 0.502604 0.500960 0.787214
C13   C     C_R   0.546589 0.029415 0.547769 0.081320
C14   C     C_R   0.482681 0.969644 0.448781 0.106325
C15   C     C_R   0.468409 0.862197 0.441520 -0.211177
C16   C     C_R   0.575564 0.872545 0.631944 -0.222748
C17   C     C_R   0.592383 0.979807 0.639149 -0.181838
C18   C     C_R   0.386504 0.399619 0.022529 -0.294756
C19   C     C_R   0.396608 0.409257 0.144386 0.099166
C20   C     C_R   0.549113 0.544262 0.157304 0.073158
C21   C     C_R   0.542469 0.537699 0.034339 -0.002462
C22   C     C_R   0.459570 0.463903 0.966456 0.019996
C23   C     C_R   0.503938 0.700716 0.521146 0.783175
C24   C     C_R   0.451645 0.456201 0.843814 0.044535
C25   C     C_R   0.603746 0.591052 0.854617 0.051291
C26   C     C_R   0.615398 0.601952 0.976784 0.133171
C27   C     C_R   0.737473 0.502849 0.499690 0.773506
C28   C     C_R   0.139669 0.680657 0.632400 -0.175297
C29   C     C_R   0.079368 0.764927 0.694307 -0.122419
C30   C     C_R   0.950084 0.765496 0.692670 -0.116283
C31   C     C_R   0.880328 0.681766 0.629156 -0.170635
C32   C     C_R   0.939486 0.594854 0.566845 0.102320
Cu1   Cu    Cu3+1 0.509250 0.507730 0.615930 0.945030
Cu2   Cu    Cu3+1 0.490750 0.492270 0.384070 0.948807
H1    H     H_    0.103976 0.363169 0.382194 0.142656
H2    H     H_    0.640741 0.023463 0.716342 0.180180
H3    H     H_    0.397383 0.162132 0.299682 0.171565
H4    H     H_    0.388032 0.399874 0.791083 0.137087
H5    H     H_    0.659567 0.640443 0.810885 0.149880
H6    H     H_    0.322016 0.342229 0.972574 0.140263
H7    H     H_    0.340026 0.359282 0.186704 0.119620
H8    H     H_    0.611917 0.599777 0.211820 0.173180
H9    H     H_    0.240051 0.685027 0.633738 0.149861
H10   H     H_    0.133179 0.830631 0.742651 0.140827
H11   H     H_    0.903544 0.831632 0.739689 0.139606
H12   H     H_    0.780169 0.687017 0.627722 0.133248
H13   H     H_    0.877800 0.363815 0.380259 0.146514
H14   H     H_    0.420373 0.816410 0.365193 0.156035
H15   H     H_    0.612646 0.835382 0.702739 0.156887
H16   H     H_    0.384306 0.972675 0.282415 0.157396
N1    N     N_R   0.523180 0.519350 0.790130 -0.205036
N2    N     N_R   0.476820 0.480650 0.209890 -0.193262
O1    O     O_R   0.506570 0.354460 0.582000 -0.545829
O2    O     O_R   0.490940 0.341410 0.386200 -0.596721
O3    O     O_R   0.327470 0.506530 0.597920 -0.587443
O4    O     O_R   0.311840 0.493480 0.402120 -0.577830
O5    O     O_R   0.509060 0.658590 0.613800 -0.600936
O6    O     O_R   0.493430 0.645540 0.418000 -0.582469
O7    O     O_R   0.688160 0.506520 0.597880 -0.595632
O8    O     O_R   0.672530 0.493470 0.402080 -0.572244
O9    O     O_3   0.629695 0.195486 0.648289 -0.613128
C33   C     C_3   0.744946 0.230252 0.613842 0.099689
H17   H     H_    0.770242 0.305972 0.670626 0.187576
H18   H     H_    0.741331 0.245933 0.522645 0.103540
C34   C     C_3   0.847246 0.152059 0.630470 -0.390825
H19   H     H_    0.852833 0.138879 0.722242 0.227114
H20   H     H_    0.824556 0.076233 0.572884 0.222385
C35   C     C_3   0.973416 0.192103 0.601287 -0.890223
H21   H     H_    0.970643 0.203408 0.508952 0.255431
H22   H     H_    0.045783 0.134226 0.614759 0.258909
H23   H     H_    0.999107 0.267549 0.658433 0.259318
Br1   Br    Br    0.731504 0.705472 0.059100 -0.563160

loop_
_geom_bond_atom_site_label_1
_geom_bond_atom_site_label_2
_ccdc_geom_bond_type
Cu1   O3    S    
C23   O6    A    
C20   H8    S    
C9    C14   A    
C25   N1    A    
Cu2   O4    S    
C33   H17   S    
C17   H2    S    
C10   H3    S    
Cu1   N1    S    
C1    C8    S    
C2    C28   A    
C9    C10   A    
C30   H11   S    
Cu2   N2    S    
C31   C32   A    
C27   O7    A    
C13   C17   A    
C30   C31   A    
C1    O2    A    
C34   C35   S    
C1    O1    A    
C20   C21   A    
C24   N1    A    
C7    C15   A    
C2    C3    A    
C4    H1    S    
Cu1   O7    S    
C12   O4    A    
C21   C22   A    
C25   H5    S    
Cu2   O8    S    
C11   C13   A    
C29   C30   A    
C15   H14   S    
C8    C11   A    
C7    C23   S    
C5    C6    A    
C2    C32   A    
C8    C10   A    
C28   C29   A    
C5    H13   S    
C21   C26   A    
Cu1   Cu2   S    
Cu2   O2    S    
C27   O8    A    
C35   H23   S    
C29   H10   S    
Cu1   O1    S    
O9    C33   S    
Cu2   O6    S    
C22   C24   A    
C12   O3    A    
C16   C17   A    
C34   H19   S    
C9    H16   S    
C33   H18   S    
C24   H4    S    
C19   H7    S    
C26   Br1   S    
C16   H15   S    
C20   N2    A    
C18   C19   A    
C23   O5    A    
C35   H22   S    
C18   H6    S    
C14   C15   A    
C35   H21   S    
C6    C32   A    
Cu1   O5    S    
C3    C12   S    
C28   H9    S    
C33   C34   S    
C34   H20   S    
C25   C26   A    
C18   C22   A    
C19   N2    A    
C31   H12   S    
C7    C16   A    
C3    C4    A    
C6    C27   S    
C4    C5    A    
C11   O9    S    
C13   C14   A    
