data_mof_unit_pretest_1415.cif
_audit_creation_date              2012-12-10T19:32:02-0500
_audit_creation_method            fapswitch 2.2
_symmetry_space_group_name_H-M    P1
_symmetry_Int_Tables_number       1
_space_group_crystal_system       triclinic
_cell_length_a                    18.509414
_cell_length_b                    18.967325
_cell_length_c                    18.835109
_cell_angle_alpha                 110.226572
_cell_angle_beta                  108.569461
_cell_angle_gamma                 109.459563
_cell_volume                      5099.42326241

loop_
_atom_site_label
_atom_site_type_symbol
_atom_type_description
_atom_site_fract_x
_atom_site_fract_y
_atom_site_fract_z
_atom_type_partial_charge
C1    C     C_R   0.378362 0.380746 0.499820 0.881621
C2    C     C_3   0.810424 0.498588 0.807090 -0.058467
C3    C     C_3   0.853957 0.549826 0.764463 -0.238752
C4    C     C_3   0.765854 0.544617 0.852398 -0.057135
C5    C     C_R   0.324693 0.247730 0.504942 0.079955
C6    C     C_R   0.315802 0.318675 0.507469 -0.152246
C7    C     C_R   0.246897 0.328312 0.520392 -0.011382
C8    C     C_R   0.183600 0.260441 0.517784 -0.232546
C9    C     C_R   0.187038 0.184667 0.501552 -0.145568
C10   C     C_R   0.257639 0.179271 0.494896 0.092109
C11   C     C_3   0.266733 0.113273 0.431039 -0.239808
C12   C     C_R   0.622318 0.501621 0.620670 0.864393
C13   C     C_3   0.347264 0.190433 0.449897 -0.490034
C14   C     C_R   0.317008 0.495673 0.240805 0.057780
C15   C     C_R   0.310768 0.500640 0.314312 -0.208104
C16   C     C_R   0.246821 0.520118 0.328533 -0.041807
C17   C     C_R   0.184276 0.520439 0.262711 -0.201619
C18   C     C_R   0.186393 0.504603 0.185511 -0.114209
C19   C     C_R   0.257262 0.499690 0.178626 0.090345
C20   C     C_3   0.260641 0.438626 0.105795 -0.520628
C21   C     C_3   0.327619 0.434335 0.174537 -0.184092
C22   C     C_R   0.756527 0.683390 0.498391 0.098834
C23   C     C_R   0.617894 0.619842 0.497297 0.875294
C24   C     C_R   0.681232 0.686415 0.494578 -0.128678
C25   C     C_R   0.675819 0.761632 0.503579 -0.036317
C26   C     C_R   0.741852 0.827553 0.506632 -0.218409
C27   C     C_R   0.813977 0.820337 0.505170 -0.121342
C28   C     C_R   0.822711 0.750773 0.505178 0.033349
C29   C     C_3   0.837191 0.692963 0.441869 -0.207292
C30   C     C_3   0.765217 0.618170 0.433972 -0.479573
C31   C     C_R   0.004234 0.380784 0.883173 0.856993
C32   C     C_R   0.876868 0.496548 0.873506 0.884213
C33   C     C_R   0.999463 0.620296 0.119405 0.907609
C34   C     C_R   0.377165 0.498515 0.379244 0.860945
C35   C     C_R   0.118629 0.499472 0.116710 0.877262
C36   C     C_R   0.998269 0.118586 0.619194 0.875492
C37   C     C_R   0.120221 0.116218 0.497128 0.870475
C38   C     C_R   0.997832 0.877697 0.380785 0.876078
C39   C     C_R   0.879798 0.883019 0.502229 0.879664
C40   C     C_R   0.955208 0.229798 0.790643 0.027307
C41   C     C_R   0.013686 0.316498 0.823742 -0.236655
C42   C     C_R   0.077235 0.338689 0.796666 -0.048689
C43   C     C_R   0.067731 0.273903 0.723046 -0.059193
C44   C     C_R   0.001969 0.187491 0.685417 -0.211610
C45   C     C_3   0.662363 0.409215 0.668156 -0.453592
C46   C     C_R   0.948828 0.165587 0.721075 0.166760
C47   C     C_3   0.947471 0.108846 0.760289 -0.300907
C48   C     C_3   0.961131 0.182003 0.839783 -0.237764
C49   C     C_R   0.921904 0.678302 0.180983 0.144105
C50   C     C_R   0.001393 0.688368 0.185511 -0.135920
C51   C     C_R   0.080708 0.767320 0.250758 -0.023940
C52   C     C_R   0.078045 0.828911 0.315294 -0.237144
C53   C     C_R   0.998546 0.813031 0.314489 -0.107314
C54   C     C_R   0.919899 0.740088 0.244607 0.049693
C55   C     C_3   0.851085 0.670598 0.245332 -0.271419
C56   C     C_3   0.736825 0.404076 0.728517 -0.205379
C57   C     C_3   0.850599 0.603895 0.171814 -0.442888
C58   C     C_3   0.782659 0.538426 0.679982 -0.021672
C59   C     C_3   0.711082 0.561713 0.784057 -0.286921
C60   C     C_3   0.693656 0.504366 0.687489 0.007964
H1    H     H_    0.640729 0.363839 0.599659 0.199240
H2    H     H_    0.878812 0.617108 0.812056 0.142400
H3    H     H_    0.129421 0.265405 0.525170 0.180606
H4    H     H_    0.283141 0.071466 0.454651 0.151966
H5    H     H_    0.410337 0.196124 0.489499 0.183533
H6    H     H_    0.343319 0.197615 0.392803 0.228595
H7    H     H_    0.603361 0.385748 0.674287 0.146530
H8    H     H_    0.132174 0.530376 0.270328 0.188586
H9    H     H_    0.196710 0.377357 0.059270 0.197381
H10   H     H_    0.289714 0.471309 0.074999 0.221995
H11   H     H_    0.394620 0.465977 0.182755 0.136507
H12   H     H_    0.735956 0.882822 0.507790 0.203333
H13   H     H_    0.819019 0.698654 0.383373 0.146936
H14   H     H_    0.705713 0.577163 0.368629 0.190810
H15   H     H_    0.791246 0.582662 0.459852 0.220368
H16   H     H_    0.004618 0.097942 0.772968 0.143645
H17   H     H_    0.028475 0.215768 0.895961 0.170872
H18   H     H_    0.138238 0.888605 0.367090 0.151968
H19   H     H_    0.879006 0.668075 0.305280 0.187187
H20   H     H_    0.767522 0.387047 0.690649 0.138375
H21   H     H_    0.872664 0.561719 0.189709 0.208863
H22   H     H_    0.790249 0.569040 0.107880 0.244339
H23   H     H_    0.758762 0.627426 0.804007 0.143048
O1    O     O_R   0.408690 0.356690 0.448570 -0.617769
O2    O     O_R   0.049530 0.460080 0.906210 -0.655991
O3    O     O_R   0.853510 0.448360 0.905260 -0.557978
O4    O     O_R   0.956950 0.551730 0.905200 -0.645255
O5    O     O_R   0.945130 0.540000 0.088470 -0.602746
O6    O     O_R   0.048570 0.643360 0.088400 -0.633459
O7    O     O_R   0.037700 0.448350 0.089480 -0.610110
O8    O     O_R   0.141150 0.551720 0.089410 -0.618749
O9    O     O_R   0.051500 0.091600 0.643170 -0.630691
O10   O     O_R   0.947510 0.091650 0.539220 -0.610764
O11   O     O_R   0.143610 0.091630 0.552030 -0.618103
O12   O     O_R   0.408080 0.460090 0.551420 -0.633090
O13   O     O_R   0.039620 0.091690 0.448080 -0.631250
O14   O     O_R   0.052490 0.908450 0.460880 -0.622732
O15   O     O_R   0.948500 0.908500 0.356930 -0.638998
O16   O     O_R   0.960380 0.908410 0.552020 -0.645869
O17   O     O_R   0.856390 0.908470 0.448070 -0.614650
O18   O     O_R   0.592400 0.448300 0.540680 -0.627702
O19   O     O_R   0.591790 0.551700 0.643540 -0.623320
O20   O     O_R   0.591920 0.539910 0.448580 -0.649336
O21   O     O_R   0.591310 0.643310 0.551430 -0.612746
O22   O     O_R   0.408210 0.448300 0.356460 -0.605989
O23   O     O_R   0.407600 0.551700 0.459320 -0.629515
O24   O     O_R   0.946090 0.356720 0.906270 -0.596693
Zn1   Zn    Zn3+2 0.500410 0.430960 0.431320 0.935780
Zn2   Zn    Zn3+2 0.499590 0.569040 0.568680 0.957490
Zn3   Zn    Zn3+2 0.928260 0.431020 0.997380 1.047085
Zn4   Zn    Zn3+2 0.066400 0.569060 0.997290 0.943514
Zn5   Zn    Zn3+2 0.069430 0.000010 0.569450 0.934586
Zn6   Zn    Zn3+2 0.930570 0.000090 0.430650 0.937387
C61   C     C_R   0.826111 0.633663 0.941049 0.110045
C62   C     C_R   0.915766 0.691493 0.973500 -0.172510
C63   C     C_R   0.961383 0.773294 0.047492 -0.143454
C64   C     C_R   0.919705 0.801159 0.091304 -0.105239
C65   C     C_R   0.831917 0.746495 0.061538 -0.168213
C66   C     C_R   0.786354 0.663801 0.988893 -0.097227
H24   H     H_    0.953591 0.677967 0.943936 0.155250
H25   H     H_    0.029334 0.815473 0.069817 0.130996
H26   H     H_    0.955407 0.864707 0.148583 0.156077
H27   H     H_    0.798819 0.768035 0.094735 0.131331
H28   H     H_    0.718230 0.623983 0.968994 0.148681
C67   C     C_R   0.818802 0.630621 0.687378 0.020531
C68   C     C_R   0.889009 0.658894 0.669909 -0.151213
C69   C     C_R   0.930025 0.742169 0.682775 -0.138382
C70   C     C_R   0.899456 0.798737 0.709075 -0.109445
C71   C     C_R   0.826535 0.771163 0.720448 -0.127970
C72   C     C_R   0.786218 0.688352 0.709144 -0.182069
H29   H     H_    0.913292 0.616289 0.646660 0.161177
H30   H     H_    0.985261 0.762488 0.671554 0.125524
H31   H     H_    0.930619 0.862971 0.718118 0.121034
H32   H     H_    0.800822 0.814129 0.738021 0.122454
H33   H     H_    0.730297 0.672905 0.718486 0.155821
C73   C     C_R   0.233073 0.403357 0.532216 0.127403
C74   C     C_R   0.288777 0.482649 0.610748 -0.047163
C75   C     C_R   0.266234 0.547631 0.629591 -0.176620
C76   C     C_R   0.186477 0.533105 0.571215 -0.041488
C77   C     C_R   0.129933 0.454125 0.493208 -0.077536
C78   C     C_R   0.153292 0.389772 0.473408 -0.233484
H34   H     H_    0.348052 0.493044 0.658608 0.142366
H35   H     H_    0.309617 0.608427 0.690462 0.122849
H36   H     H_    0.168410 0.582929 0.586443 0.145209
H37   H     H_    0.067948 0.442716 0.448118 0.153738
H38   H     H_    0.107780 0.328084 0.413695 0.139647
C79   C     C_R   0.199907 0.064663 0.334700 0.167236
C80   C     C_R   0.130559 0.079875 0.300320 -0.117668
C81   C     C_R   0.081242 0.044121 0.210824 -0.172192
C82   C     C_R   0.101210 0.994377 0.154516 -0.149782
C83   C     C_R   0.169377 0.978647 0.187424 -0.180129
C84   C     C_R   0.217489 0.012380 0.276647 -0.148572
H39   H     H_    0.115527 0.121668 0.340946 0.142023
H40   H     H_    0.028777 0.056829 0.185230 0.133069
H41   H     H_    0.064127 0.968352 0.085365 0.133127
H42   H     H_    0.185761 0.941235 0.143754 0.117862
H43   H     H_    0.271680 0.001377 0.301080 0.139783
C85   C     C_2   0.240489 0.536320 0.408445 0.410523
H44   H     H_    0.266345 0.511715 0.448203 0.102726
O25   O     O_2   0.205911 0.577990 0.430920 -0.590487
C86   C     C_R   0.298505 0.345474 0.165717 0.218686
C87   C     C_R   0.355255 0.311220 0.167012 -0.119181
C88   C     C_R   0.331914 0.231079 0.162428 -0.153752
C89   C     C_R   0.251677 0.184217 0.156270 -0.111208
C90   C     C_R   0.194417 0.217250 0.154487 -0.140473
C91   C     C_R   0.217438 0.297419 0.159076 -0.146410
H45   H     H_    0.418108 0.346970 0.172511 0.101151
H46   H     H_    0.376232 0.205413 0.163935 0.119933
H47   H     H_    0.234040 0.122329 0.152855 0.144527
H48   H     H_    0.132289 0.180857 0.149824 0.141821
H49   H     H_    0.172524 0.322277 0.158363 0.148852
C92   C     C_R   0.600800 0.771289 0.506591 0.144858
C93   C     C_R   0.517170 0.719234 0.432672 -0.148637
C94   C     C_R   0.445573 0.725523 0.437447 -0.122502
C95   C     C_R   0.456843 0.782875 0.515991 -0.113411
C96   C     C_R   0.540179 0.835422 0.589552 -0.153331
C97   C     C_R   0.612126 0.829856 0.584940 -0.073582
H50   H     H_    0.507443 0.673536 0.371862 0.113219
H51   H     H_    0.381282 0.685857 0.380290 0.147790
H52   H     H_    0.401060 0.786866 0.519734 0.138369
H53   H     H_    0.548913 0.880003 0.650268 0.124661
H54   H     H_    0.676091 0.869501 0.642746 0.136439
C98   C     C_2   0.927193 0.703319 0.481736 0.411654
H55   H     H_    0.981971 0.764472 0.537911 0.082113
O26   O     O_2   0.940068 0.644140 0.449045 -0.570825
C99   C     C_R   0.707160 0.324599 0.740451 0.152531
C100  C     C_R   0.758063 0.283153 0.742142 -0.109749
C101  C     C_R   0.729246 0.204307 0.740237 -0.095202
C102  C     C_R   0.650087 0.165575 0.739029 -0.128150
C103  C     C_R   0.598247 0.204623 0.737005 -0.142022
C104  C     C_R   0.625177 0.282173 0.735734 -0.106750
H56   H     H_    0.819321 0.310424 0.741864 0.091547
H57   H     H_    0.767573 0.172383 0.737317 0.146262
H58   H     H_    0.628018 0.104401 0.737722 0.130073
H59   H     H_    0.535647 0.173437 0.733896 0.131299
H60   H     H_    0.579326 0.305578 0.728647 0.096479
C105  C     C_2   0.159711 0.424164 0.851396 0.492083
H61   H     H_    0.158910 0.484200 0.865939 0.084947
O27   O     O_2   0.230729 0.427596 0.880185 -0.575302
C106  C     C_2   0.127121 0.295038 0.686441 0.439476
H62   H     H_    0.140567 0.246648 0.651779 0.060293
O28   O     O_2   0.159891 0.365964 0.692744 -0.590717
C107  C     C_2   0.860852 0.025387 0.710337 0.347061
H63   H     H_    0.856561 0.973588 0.724126 0.057087
O29   O     O_2   0.795100 0.015869 0.656066 -0.608794
C108  C     C_2   0.891255 0.162117 0.866082 0.458547
H64   H     H_    0.822154 0.121167 0.818193 0.075158
O30   O     O_2   0.912425 0.191647 0.942813 -0.581461
C109  C     C_R   0.168248 0.785320 0.259299 0.135539
C110  C     C_R   0.229821 0.787537 0.328098 -0.178405
C111  C     C_R   0.314925 0.811533 0.340766 -0.139705
C112  C     C_R   0.339012 0.832548 0.284601 -0.102141
C113  C     C_R   0.278279 0.830922 0.216274 -0.175949
C114  C     C_R   0.193611 0.808453 0.204311 -0.082840
H65   H     H_    0.212305 0.772029 0.372581 0.151186
H66   H     H_    0.362621 0.815143 0.394864 0.138115
H67   H     H_    0.404955 0.850942 0.294595 0.128959
H68   H     H_    0.297066 0.848074 0.173211 0.118382
H69   H     H_    0.147803 0.808861 0.152116 0.124066
C115  C     C_R   0.762593 0.666063 0.221189 0.157244
C116  C     C_R   0.748992 0.733643 0.217238 -0.126230
C117  C     C_R   0.667454 0.728397 0.199567 -0.144806
C118  C     C_R   0.598883 0.656111 0.186141 -0.095500
C119  C     C_R   0.611592 0.588693 0.189967 -0.139487
C120  C     C_R   0.692880 0.593522 0.207247 -0.160277
H70   H     H_    0.800905 0.790607 0.228092 0.147866
H71   H     H_    0.657593 0.780709 0.196756 0.124224
H72   H     H_    0.535975 0.652412 0.172944 0.126861
H73   H     H_    0.558597 0.532859 0.179992 0.122782
H74   H     H_    0.702081 0.541211 0.211111 0.140586
C121  C     C_R   0.766232 0.473473 0.587538 0.111156
C122  C     C_R   0.785461 0.404772 0.567124 -0.156173
C123  C     C_R   0.762347 0.348002 0.482448 -0.136392
C124  C     C_R   0.719472 0.357348 0.414099 -0.125900
C125  C     C_R   0.702337 0.425298 0.430988 -0.127697
C126  C     C_R   0.728399 0.483645 0.516185 -0.084167
H75   H     H_    0.817466 0.390351 0.612193 0.117102
H76   H     H_    0.777393 0.295917 0.469890 0.133541
H77   H     H_    0.700504 0.312672 0.348436 0.126369
H78   H     H_    0.669468 0.433481 0.378077 0.126183
H79   H     H_    0.716082 0.536645 0.526595 0.157723
C127  C     C_R   0.939444 0.554685 0.763951 0.160086
C128  C     C_R   0.954830 0.484008 0.745325 -0.076995
C129  C     C_R   0.030241 0.490321 0.740405 -0.126207
C130  C     C_R   0.096722 0.569731 0.763717 -0.120918
C131  C     C_R   0.088379 0.643214 0.793687 -0.163659
C132  C     C_R   0.011483 0.636169 0.795559 -0.164082
H80   H     H_    0.909671 0.423785 0.735576 0.065505
H81   H     H_    0.037678 0.433695 0.719893 0.145200
H82   H     H_    0.155694 0.574751 0.761050 0.143057
H83   H     H_    0.141394 0.705755 0.815339 0.128105
H84   H     H_    0.007981 0.694873 0.820784 0.127576
C133  C     C_R   0.635880 0.572990 0.796565 0.153023
C134  C     C_R   0.649075 0.657652 0.838786 -0.143829
C135  C     C_R   0.584776 0.671322 0.854634 -0.155142
C136  C     C_R   0.505669 0.601024 0.827942 -0.127281
C137  C     C_R   0.489842 0.516897 0.783276 -0.135469
C138  C     C_R   0.552958 0.502730 0.765348 -0.108961
H85   H     H_    0.710312 0.713771 0.861526 0.117965
H86   H     H_    0.596701 0.736640 0.888336 0.126250
H87   H     H_    0.456117 0.611644 0.840816 0.135254
H88   H     H_    0.427833 0.462192 0.761298 0.146537
H89   H     H_    0.535333 0.436565 0.727122 0.086750
C139  C     C_2   0.707503 0.482398 0.871003 0.428462
H90   H     H_    0.639112 0.438575 0.825916 0.053108
O31   O     O_2   0.737307 0.480846 0.938065 -0.576292

loop_
_geom_bond_atom_site_label_1
_geom_bond_atom_site_label_2
_ccdc_geom_bond_type
C92   C97   A    
C48   H17   S    
C84   H43   S    
C87   H45   S    
C74   H34   S    
C45   C60   S    
C40   C41   A    
C103  C104  A    
C31   O2    A    
C59   C133  S    
C26   H12   S    
C41   C42   A    
C54   C55   S    
C138  H89   S    
C38   O15   A    
C119  C120  A    
C86   C87   A    
C75   C76   A    
C81   C82   A    
C7    C8    A    
C123  H76   S    
C13   H5    S    
C66   H28   S    
C69   H30   S    
C1    O1    A    
C40   C46   A    
C107  O29   D    
C26   C27   A    
C90   C91   A    
C67   C68   A    
C21   H11   S    
C117  H71   S    
C14   C21   S    
C4    C61   S    
C28   C29   S    
O3    Zn3   S    
C33   O5    A    
C59   H23   S    
C47   H16   S    
C71   C72   A    
C79   C84   A    
C75   H35   S    
C98   O26   D    
C20   H9    S    
O21   Zn2   S    
C94   C95   A    
C108  O30   D    
O4    Zn4   S    
C112  H67   S    
O16   Zn5   S    
C58   C60   S    
C128  C129  A    
C130  H82   S    
C49   C57   S    
C129  C130  A    
C2    C32   S    
C18   C19   A    
C125  H78   S    
O8    Zn4   S    
C99   C104  A    
C105  O27   D    
C65   C66   A    
C37   O11   A    
C58   C121  S    
C124  H77   S    
C92   C93   A    
C104  H60   S    
C93   H50   S    
C102  H58   S    
C88   C89   A    
C23   O20   A    
C79   C80   A    
C45   C56   S    
C27   C39   S    
C139  H90   S    
C108  H64   S    
C45   H7    S    
C125  C126  A    
C69   C70   A    
O20   Zn1   S    
C22   C30   S    
C123  C124  A    
C131  C132  A    
C15   C34   S    
C5    C13   S    
C86   C91   A    
C1    O12   A    
C13   H6    S    
O5    Zn3   S    
C36   O9    A    
O18   Zn1   S    
C111  H66   S    
C59   C60   S    
C81   H40   S    
C22   C28   A    
C136  H87   S    
C70   C71   A    
C85   O25   D    
C20   H10   S    
C89   H47   S    
C102  C103  A    
C55   C115  S    
C38   O14   A    
C52   H18   S    
C133  C138  A    
C121  C126  A    
C115  C116  A    
C44   C46   A    
C109  C110  A    
C6    C7    A    
C131  H83   S    
C117  C118  A    
C96   H53   S    
O22   Zn1   S    
C21   C86   S    
C129  H81   S    
C16   C85   S    
C51   C52   A    
C34   O23   A    
C47   C48   S    
C24   C25   A    
C118  C119  A    
C11   H4    S    
O12   Zn2   S    
C61   C62   A    
O14   Zn5   S    
C118  H72   S    
C8    C9    A    
O15   Zn6   S    
C127  C132  A    
C50   C51   A    
C33   C50   S    
C132  H84   S    
C32   O4    A    
C29   C98   S    
C116  H70   S    
C15   C16   A    
C45   H1    S    
C137  H88   S    
C37   O13   A    
C101  C102  A    
C3    C127  S    
C1    C6    S    
C126  H79   S    
C2    C4    S    
C64   H26   S    
C35   O7    A    
C98   H55   S    
C12   O19   A    
C29   C30   S    
C133  C134  A    
C33   O6    A    
C116  C117  A    
C55   H19   S    
C76   H36   S    
C51   C109  S    
C39   O16   A    
C111  C112  A    
C14   C15   A    
C113  C114  A    
C83   C84   A    
C32   O3    A    
C136  C137  A    
C20   C21   S    
C9    C37   S    
C17   C18   A    
C47   C107  S    
C23   C24   S    
O10   Zn6   S    
C83   H42   S    
C77   C78   A    
C97   H54   S    
C38   C53   S    
C100  H56   S    
C43   C106  S    
C91   H49   S    
C78   H38   S    
C68   H29   S    
C103  H59   S    
C25   C92   S    
C139  O31   D    
C96   C97   A    
C72   H33   S    
C56   C99   S    
C101  H57   S    
C49   C50   A    
C82   H41   S    
C55   C57   S    
C43   C44   A    
C85   H44   S    
O24   Zn3   S    
C22   C24   A    
C4    C139  S    
C36   C44   S    
C124  C125  A    
O7    Zn3   S    
C135  C136  A    
C80   H39   S    
C137  C138  A    
C52   C53   A    
C87   C88   A    
C18   C35   S    
C3    H2    S    
C90   H48   S    
C40   C48   S    
C135  H86   S    
C89   C90   A    
C17   H8    S    
C31   C41   S    
C127  C128  A    
C36   O10   A    
C34   O22   A    
C31   O24   A    
C14   C19   A    
C42   C105  S    
O9    Zn5   S    
O17   Zn6   S    
C109  C114  A    
C130  C131  A    
C73   C74   A    
O2    Zn4   S    
C77   H37   S    
C19   C20   S    
C76   C77   A    
C62   H24   S    
C53   C54   A    
C95   H52   S    
C74   C75   A    
O6    Zn4   S    
C12   O18   A    
C64   C65   A    
C120  H74   S    
C56   H20   S    
C110  H65   S    
C114  H69   S    
C113  H68   S    
C10   C11   S    
C134  C135  A    
C2    C3    S    
C25   C26   A    
C88   H46   S    
C7    C73   S    
C95   C96   A    
C2    C56   S    
C70   H31   S    
C30   H15   S    
C11   C13   S    
C11   C79   S    
C39   O17   A    
C5    C6    A    
C61   C66   A    
C134  H85   S    
C106  H62   S    
C68   C69   A    
C30   H14   S    
C63   C64   A    
C94   H51   S    
C4    C59   S    
O11   Zn5   S    
C122  C123  A    
O1    Zn1   S    
C73   C78   A    
C115  C120  A    
C9    C10   A    
C57   H21   S    
C65   H27   S    
C110  C111  A    
C23   O21   A    
C105  H61   S    
O13   Zn6   S    
C46   C47   S    
C122  H75   S    
C67   C72   A    
C8    H3    S    
C93   C94   A    
C71   H32   S    
C12   C60   S    
C3    C58   S    
C5    C10   A    
C29   H13   S    
C112  C113  A    
C58   C67   S    
C106  O28   D    
C128  H80   S    
C42   C43   A    
C48   C108  S    
C121  C122  A    
C57   H22   S    
O19   Zn2   S    
C100  C101  A    
C63   H25   S    
C107  H63   S    
C62   C63   A    
C99   C100  A    
C119  H73   S    
C80   C81   A    
C49   C54   A    
C16   C17   A    
C82   C83   A    
C27   C28   A    
O23   Zn2   S    
C35   O8    A    
