data_mof_unit_pretest_785.cif
_audit_creation_date              2012-12-10T17:06:40-0500
_audit_creation_method            fapswitch 2.2
_symmetry_space_group_name_H-M    P1
_symmetry_Int_Tables_number       1
_space_group_crystal_system       triclinic
_cell_length_a                    15.823529
_cell_length_b                    11.071798
_cell_length_c                    10.048149
_cell_angle_alpha                 113.411737
_cell_angle_beta                  97.492864
_cell_angle_gamma                 92.765258
_cell_volume                      1591.94884634

loop_
_atom_site_label
_atom_site_type_symbol
_atom_type_description
_atom_site_fract_x
_atom_site_fract_y
_atom_site_fract_z
_atom_type_partial_charge
C1    C     C_R   0.493029 0.252804 0.437800 0.819877
C2    C     C_R   0.506965 0.747196 0.562200 0.819882
C3    C     C_2   0.506137 0.069247 0.509540 -0.173146
C4    C     C_2   0.493898 0.930753 0.490448 -0.173122
C5    C     C_2   0.513370 0.498251 0.075284 0.081397
C6    C     C_2   0.486634 0.501736 0.924709 0.081404
C7    C     C_R   0.340444 0.501133 0.501434 0.826323
C8    C     C_R   0.659556 0.498861 0.498565 0.826332
C9    C     C_3   0.980018 0.471043 0.609629 0.182553
C10   C     C_3   0.019978 0.528898 0.390365 0.182541
C11   C     C_3   0.028361 0.383761 0.487323 -0.254505
C12   C     C_3   0.971636 0.616183 0.512674 -0.254496
C13   C     C_1   0.251275 0.505449 0.504492 -0.163706
C14   C     C_1   0.748723 0.494524 0.495501 -0.163716
C15   C     C_3   0.036809 0.596160 0.629366 0.020599
C16   C     C_3   0.963188 0.403782 0.370629 0.020605
C17   C     C_3   0.084399 0.509756 0.506707 0.090670
C18   C     C_3   0.915598 0.490185 0.493287 0.090688
C19   C     C_1   0.175941 0.508650 0.505796 -0.063929
C20   C     C_1   0.824056 0.491304 0.494195 -0.063935
C21   C     C_2   0.485060 0.109320 0.399926 0.016255
C22   C     C_2   0.514927 0.890682 0.600074 0.016231
Cu1   Cu    Cu3+1 0.514700 0.521810 0.644910 0.934979
Cu2   Cu    Cu3+1 0.485300 0.478190 0.355090 0.934981
H1    H     H_    0.051941 0.288137 0.477222 0.137999
H2    H     H_    0.948058 0.711808 0.522778 0.138003
H3    H     H_    0.466775 0.857976 0.381526 0.167699
H4    H     H_    0.533297 0.142022 0.618449 0.167702
N1    N     N_2   0.463210 0.445420 0.137360 -0.156422
N2    N     N_2   0.536790 0.554580 0.862640 -0.156427
O1    O     O_R   0.507840 0.332340 0.577400 -0.602078
O2    O     O_R   0.492160 0.667660 0.422600 -0.602078
O3    O     O_R   0.483020 0.295500 0.332650 -0.579774
O4    O     O_R   0.516980 0.704500 0.667350 -0.579781
O5    O     O_R   0.391490 0.518400 0.622350 -0.558218
O6    O     O_R   0.608510 0.481600 0.377650 -0.558221
O7    O     O_R   0.366660 0.481570 0.377600 -0.572156
O8    O     O_R   0.633340 0.518430 0.622400 -0.572154
C23   C     C_3   0.957151 0.431627 0.730605 -0.881876
H5    H     H_    0.016508 0.434253 0.804393 0.230626
H6    H     H_    0.914608 0.500537 0.795467 0.233517
H7    H     H_    0.923201 0.329885 0.680772 0.235968
C24   C     C_3   0.042839 0.568295 0.269374 -0.881870
H8    H     H_    0.983474 0.565799 0.195684 0.230607
H9    H     H_    0.076870 0.669979 0.319194 0.235967
H10   H     H_    0.085302 0.499292 0.204413 0.233534
C25   C     C_R   0.929564 0.290396 0.224396 0.112531
C26   C     C_R   0.986463 0.235127 0.125488 -0.149909
C27   C     C_R   0.956853 0.131801 0.988356 -0.139257
C28   C     C_R   0.870593 0.080335 0.949952 -0.119043
C29   C     C_R   0.813904 0.132012 0.048875 -0.152067
C30   C     C_R   0.843189 0.236026 0.185788 -0.167392
H11   H     H_    0.053873 0.271884 0.154421 0.129595
H12   H     H_    0.001001 0.090843 0.912330 0.141099
H13   H     H_    0.847845 0.999791 0.844082 0.121911
H14   H     H_    0.747165 0.091382 0.019538 0.131133
H15   H     H_    0.797954 0.272776 0.260065 0.142814
C31   C     C_R   0.070449 0.709533 0.775605 0.112468
C32   C     C_R   0.013583 0.764710 0.874614 -0.149892
C33   C     C_R   0.043220 0.867997 0.011768 -0.139272
C34   C     C_R   0.129470 0.919525 0.050091 -0.119088
C35   C     C_R   0.186120 0.867957 0.951057 -0.152087
C36   C     C_R   0.156810 0.763977 0.814122 -0.167358
H16   H     H_    0.946180 0.727910 0.845748 0.129620
H17   H     H_    0.999098 0.908881 0.087874 0.141050
H18   H     H_    0.152240 0.000038 0.155982 0.121909
H19   H     H_    0.252850 0.908643 0.980323 0.131142
H20   H     H_    0.202014 0.727315 0.739755 0.142790
C37   C     C_3   0.548715 0.987640 0.756493 -0.900208
H21   H     H_    0.561637 0.937231 0.831707 0.242343
H22   H     H_    0.609881 0.043535 0.760533 0.228684
H23   H     H_    0.500884 0.057782 0.798376 0.231105
C38   C     C_3   0.451199 0.012368 0.243522 -0.900175
H24   H     H_    0.438196 0.062787 0.168335 0.242303
H25   H     H_    0.499022 0.942238 0.201531 0.231102
H26   H     H_    0.390058 0.956458 0.239579 0.228692
C39   C     C_R   0.396049 0.457380 0.853478 0.193401
C40   C     C_R   0.370038 0.327809 0.746838 -0.117334
C41   C     C_R   0.283021 0.284505 0.693137 -0.180928
C42   C     C_R   0.221211 0.368956 0.747353 -0.121148
C43   C     C_R   0.246294 0.497675 0.853222 -0.151460
C44   C     C_R   0.333333 0.542544 0.905072 -0.145930
H27   H     H_    0.416265 0.257950 0.712405 0.126635
H28   H     H_    0.263443 0.184201 0.612627 0.131732
H29   H     H_    0.153861 0.334235 0.708438 0.133211
H30   H     H_    0.198169 0.561735 0.897020 0.152828
H31   H     H_    0.351811 0.641828 0.989101 0.118069
C45   C     C_R   0.603955 0.542611 0.146520 0.193402
C46   C     C_R   0.666681 0.457451 0.094921 -0.145960
C47   C     C_R   0.753716 0.502328 0.146773 -0.151503
C48   C     C_R   0.778796 0.631049 0.252655 -0.121123
C49   C     C_R   0.716982 0.715496 0.306877 -0.180912
C50   C     C_R   0.629964 0.672185 0.253169 -0.117298
H32   H     H_    0.648201 0.358166 0.010882 0.118060
H33   H     H_    0.801845 0.438276 0.102964 0.152801
H34   H     H_    0.846147 0.665776 0.291571 0.133180
H35   H     H_    0.736557 0.815803 0.387393 0.131726
H36   H     H_    0.583734 0.742044 0.287601 0.126611
C51   C     C_3   0.599057 0.668924 0.947411 -0.536058
H37   H     H_    0.612416 0.722334 0.878944 0.224731
H38   H     H_    0.573490 0.740808 0.041968 0.149854
H39   H     H_    0.661785 0.638409 0.977142 0.196508
C52   C     C_3   0.400939 0.331079 0.052592 -0.536058
H40   H     H_    0.387584 0.277671 0.121058 0.224725
H41   H     H_    0.338210 0.361596 0.022863 0.196507
H42   H     H_    0.426500 0.259191 0.958033 0.149856

loop_
_geom_bond_atom_site_label_1
_geom_bond_atom_site_label_2
_ccdc_geom_bond_type
C1    C21   S    
C38   H24   S    
C9    C23   S    
C43   C44   A    
C1    O3    A    
C47   H33   S    
C23   H6    S    
C39   C40   A    
C32   H16   S    
C35   C36   A    
C35   H19   S    
C3    H4    S    
C41   H28   S    
C11   H1    S    
C10   C17   S    
C27   H12   S    
C21   C38   S    
C1    O1    A    
N1    C52   S    
C2    O2    A    
C29   H14   S    
C8    O6    A    
C46   H32   S    
C37   H22   S    
Cu2   N1    S    
C17   C19   S    
C48   H34   S    
C36   H20   S    
C5    C45   S    
C34   H18   S    
C51   H37   S    
C2    C22   S    
Cu1   Cu2   S    
C22   C37   S    
C43   H30   S    
C2    O4    A    
C32   C33   A    
C38   H25   S    
C34   C35   A    
C8    O8    A    
C40   H27   S    
C16   C25   S    
C49   H35   S    
C28   C29   A    
C23   H7    S    
C5    N1    D    
C26   H11   S    
C13   C19   T    
C29   C30   A    
Cu1   N2    S    
C14   C20   T    
C48   C49   A    
C40   C41   A    
C6    C39   S    
C31   C32   A    
N2    C51   S    
C12   H2    S    
C33   C34   A    
Cu1   O1    S    
C37   H23   S    
C24   H8    S    
Cu2   O2    S    
C42   H29   S    
C4    C22   D    
C11   C16   S    
C25   C26   A    
C12   C15   S    
Cu1   O4    S    
Cu2   O7    S    
C7    O7    A    
C52   H41   S    
Cu2   O6    S    
C24   H9    S    
C10   C12   S    
C26   C27   A    
C6    N2    D    
C33   H17   S    
Cu1   O5    S    
C9    C11   S    
C38   H26   S    
C3    C21   D    
C3    C4    S    
C23   H5    S    
C4    H3    S    
C31   C36   A    
C15   C17   S    
C45   C50   A    
C11   C17   S    
C8    C14   S    
C51   H38   S    
C10   C24   S    
C7    O5    A    
Cu2   O3    S    
C42   C43   A    
C25   C30   A    
Cu1   O8    S    
C28   H13   S    
C9    C15   S    
C10   C16   S    
C47   C48   A    
C5    C6    S    
C39   C44   A    
C49   C50   A    
C15   C31   S    
C52   H42   S    
C18   C20   S    
C37   H21   S    
C24   H10   S    
C30   H15   S    
C41   C42   A    
C9    C18   S    
C7    C13   S    
C51   H39   S    
C45   C46   A    
C16   C18   S    
C27   C28   A    
C12   C18   S    
C52   H40   S    
C46   C47   A    
C50   H36   S    
C44   H31   S    
