data_mof_unit_pretest_1060.cif
_audit_creation_date              2012-10-26T18:52:49-0400
_audit_creation_method            fapswitch 2.2
_symmetry_space_group_name_H-M    P1
_symmetry_Int_Tables_number       1
_space_group_crystal_system       triclinic
_cell_length_a                    10.826897
_cell_length_b                    14.833082
_cell_length_c                    14.994829
_cell_angle_alpha                 63.419324
_cell_angle_beta                  107.04547
_cell_angle_gamma                 103.61697
_cell_volume                      2043.61955008

loop_
_atom_site_label
_atom_site_type_symbol
_atom_type_description
_atom_site_fract_x
_atom_site_fract_y
_atom_site_fract_z
_atom_type_partial_charge
C1    C     C_R   0.480661 0.120350 0.312124 0.544995
C2    C     C_R   0.545461 0.361549 0.084115 0.042325
C3    C     C_R   0.543162 0.322135 0.013522 -0.011595
C4    C     C_R   0.259301 0.998965 0.499772 0.550144
C5    C     C_R   0.582124 0.467052 0.059057 0.032217
C6    C     C_R   0.587482 0.534547 0.956828 0.040466
C7    C     C_R   0.595394 0.492925 0.889377 -0.030444
C8    C     C_R   0.570792 0.387643 0.918302 -0.103756
C9    C     C_R   0.621931 0.506172 0.134561 -0.058083
C10   C     C_R   0.643175 0.610449 0.109205 -0.007999
C11   C     C_R   0.618529 0.678186 0.005315 0.007671
C12   C     C_3   0.875521 0.005630 0.493264 0.019574
C13   C     C_R   0.587020 0.640004 0.928511 0.001397
C14   C     C_R   0.622156 0.783011 0.976271 -0.074120
C15   C     C_R   0.590229 0.848875 0.873939 0.387677
C16   C     C_R   0.524018 0.879697 0.688211 0.582251
C17   C     C_R   0.544993 0.706769 0.826403 -0.182091
C18   C     C_R   0.745858 0.298301 0.647876 -0.134780
C19   C     C_R   0.698748 0.209563 0.632065 0.136554
C20   C     C_R   0.507258 0.283068 0.517864 0.164340
C21   C     C_R   0.544540 0.367790 0.547324 0.021036
C22   C     C_R   0.672691 0.378603 0.602427 0.017149
C23   C     C_3   0.933930 0.915478 0.593249 0.681386
C24   C     C_R   0.466069 0.447433 0.516639 0.018829
C25   C     C_R   0.525687 0.543251 0.519963 0.034451
C26   C     C_R   0.659720 0.553457 0.563163 -0.127943
C27   C     C_R   0.729098 0.470567 0.609801 -0.157584
C28   C     C_R   0.738497 0.003364 0.495807 0.634548
C29   C     C_R   0.329287 0.433364 0.489104 -0.136280
C30   C     C_R   0.258407 0.515546 0.434973 -0.124445
C31   C     C_R   0.318679 0.612508 0.424513 -0.060769
C32   C     C_R   0.448524 0.625332 0.477989 -0.009349
C33   C     C_R   0.247648 0.695535 0.367543 -0.142439
C34   C     C_3   0.960285 0.109104 0.488128 0.352284
C35   C     C_R   0.300865 0.788500 0.372318 0.459044
C36   C     C_R   0.490293 0.718251 0.489962 0.448246
C37   C     C_3   0.019832 0.974501 0.403128 -0.087282
C38   C     C_3   0.878373 0.988217 0.398964 0.124136
C39   C     C_3   0.082901 0.919860 0.603830 0.368671
C40   C     C_3   0.100152 0.105092 0.484787 0.311124
C41   C     C_3   0.118462 0.996913 0.497760 -0.053853
C42   C     C_3   0.011710 0.864425 0.410840 -0.378647
C43   C     C_3   0.685998 0.646769 0.194309 -0.405050
C44   C     C_3   0.060290 0.047966 0.299997 -0.291444
C45   C     C_R   0.489032 0.188995 0.205679 0.031519
C46   C     C_3   0.650298 0.553533 0.794669 -0.363986
C47   C     C_3   0.779936 0.123636 0.698950 -0.237668
C48   C     C_3   0.393208 0.290405 0.428416 -0.284218
C49   C     C_3   0.127195 0.813085 0.650420 -0.266270
C50   C     C_3   0.908403 0.206236 0.397840 -0.305400
C51   C     C_R   0.551171 0.811209 0.797800 0.021078
C52   C     C_R   0.517054 0.217023 0.040225 -0.129886
C53   C     C_R   0.493618 0.150744 0.136641 -0.135166
C54   C     C_R   0.506544 0.294494 0.176173 0.337473
Cu1   Cu    Cu3+1 0.465900 0.918260 0.475680 1.094579
Cu2   Cu    Cu3+1 0.534100 0.081740 0.524320 1.059274
F1    F     F_    0.965226 0.119259 0.576680 -0.546438
F2    F     F_    0.185602 0.133130 0.560206 -0.519373
F3    F     F_    0.148763 0.957573 0.677136 -0.489426
F4    F     F_    0.913945 0.920354 0.678304 -0.515229
F5    F     F_    0.594299 0.948981 0.850462 -0.616200
F6    F     F_    0.474574 0.331380 0.233400 -0.686944
F7    F     F_    0.597711 0.729478 0.559786 -0.613079
F8    F     F_    0.235308 0.870403 0.314840 -0.647114
F9    F     F_    0.825852 0.064715 0.308558 -0.688743
F10   F     F_    0.868267 0.823605 0.591548 -0.645411
H1    H     H_    0.575860 0.356443 0.866531 0.131004
H2    H     H_    0.714391 0.624414 0.562236 0.219575
H3    H     H_    0.274755 0.359272 0.513235 0.162349
H4    H     H_    0.150862 0.687886 0.321713 0.131045
H5    H     H_    0.809878 0.919357 0.398905 0.214053
H6    H     H_    0.125539 0.162895 0.412214 0.041279
H7    H     H_    0.947798 0.808273 0.461709 0.140176
H8    H     H_    0.966522 0.860836 0.335518 0.162003
H9    H     H_    0.105352 0.834373 0.437368 0.209169
H10   H     H_    0.609748 0.687222 0.191449 0.147509
H11   H     H_    0.702994 0.582919 0.270899 0.133014
H12   H     H_    0.503658 0.677509 0.768393 0.157213
H13   H     H_    0.778478 0.698589 0.186421 0.137753
H14   H     H_    0.160143 0.040303 0.300924 0.178336
H15   H     H_    0.993651 0.031305 0.235587 0.195857
H16   H     H_    0.055630 0.128579 0.280294 0.133544
H17   H     H_    0.570292 0.565735 0.725873 0.176233
H18   H     H_    0.706211 0.626892 0.793433 0.201155
H19   H     H_    0.720425 0.511242 0.792085 0.138328
H20   H     H_    0.751616 0.055490 0.683859 0.241197
H21   H     H_    0.882874 0.150443 0.692584 0.190133
H22   H     H_    0.776764 0.100370 0.779738 0.157042
H23   H     H_    0.518199 0.185886 0.987472 0.153180
H24   H     H_    0.300414 0.271825 0.450814 0.136919
H25   H     H_    0.399284 0.367666 0.366070 0.149507
H26   H     H_    0.381172 0.237768 0.394411 0.215824
H27   H     H_    0.079466 0.766306 0.607155 0.097730
H28   H     H_    0.234031 0.818770 0.660829 0.128463
H29   H     H_    0.105042 0.769745 0.727616 0.191312
H30   H     H_    0.925239 0.216684 0.324200 0.140010
H31   H     H_    0.803373 0.207578 0.387836 0.172716
H32   H     H_    0.961238 0.273987 0.412244 0.135147
H33   H     H_    0.480366 0.069697 0.157400 0.175170
H34   H     H_    0.642913 0.455842 0.214575 0.181278
H35   H     H_    0.648122 0.815187 0.032300 0.145171
H36   H     H_    0.830297 0.480158 0.647533 0.120460
H37   H     H_    0.154538 0.502393 0.406388 0.118855
H38   H     H_    0.840552 0.304151 0.697399 0.106551
N1    N     N_R   0.585360 0.204570 0.560800 -0.208007
N2    N     N_R   0.414550 0.795430 0.439160 -0.214071
O1    O     O_R   0.455060 0.022100 0.338110 -0.476052
O2    O     O_R   0.512640 0.160150 0.379180 -0.498894
O3    O     O_R   0.288900 0.930980 0.479450 -0.518066
O4    O     O_R   0.346480 0.069030 0.520520 -0.443372
O5    O     O_R   0.487360 0.839850 0.620820 -0.486273
O6    O     O_R   0.544940 0.977900 0.661890 -0.445635
O7    O     O_R   0.653520 0.930970 0.479480 -0.420639
O8    O     O_R   0.711100 0.069020 0.520550 -0.511190

loop_
_geom_bond_atom_site_label_1
_geom_bond_atom_site_label_2
_ccdc_geom_bond_type
C4    O3    A    
C16   C51   S    
Cu1   Cu2   S    
C50   H30   S    
C17   C51   A    
C7    C8    A    
C39   C41   S    
C53   H33   S    
C12   C23   S    
C26   C27   A    
C29   C30   A    
C12   C28   S    
C34   C40   S    
C32   C36   A    
C23   F10   S    
C44   H16   S    
C28   O7    A    
C30   C31   A    
C11   C14   A    
C19   C47   S    
C4    C41   S    
C43   H13   S    
C18   C19   A    
C37   C42   S    
C24   C29   A    
Cu2   O2    S    
C50   H31   S    
C48   H25   S    
C30   H37   S    
C34   F1    S    
C31   C33   A    
C35   F8    S    
C15   C51   A    
C49   H28   S    
C36   F7    S    
C9    C10   A    
C46   H19   S    
C25   C32   A    
C45   C53   A    
C48   H24   S    
C21   C22   A    
Cu1   O3    S    
C12   C38   S    
C52   H23   S    
Cu2   O4    S    
C29   H3    S    
C23   F4    S    
C42   H8    S    
C34   C50   S    
Cu1   N2    S    
C36   N2    A    
C7    C46   S    
C44   H14   S    
C40   F2    S    
C24   C25   A    
C44   H15   S    
C2    C54   A    
C50   H32   S    
C14   H35   S    
C54   F6    S    
C25   C26   A    
Cu1   O1    S    
C47   H21   S    
C47   H20   S    
C5    C9    A    
C37   C38   S    
C31   C32   A    
C38   F9    S    
C39   F3    S    
C15   F5    S    
C18   H38   S    
C52   C53   A    
C49   H29   S    
C20   C48   S    
C28   O8    A    
C33   H4    S    
C1    O1    A    
C46   H18   S    
C19   N1    A    
C40   C41   S    
C39   C49   S    
C45   C54   A    
C3    C8    A    
C9    H34   S    
C22   C27   A    
C2    C5    A    
C12   C34   S    
C42   H9    S    
C16   O6    A    
C20   N1    A    
C43   H10   S    
C4    O4    A    
C38   H5    S    
C42   H7    S    
C40   H6    S    
Cu1   O5    S    
C10   C43   S    
C18   C22   A    
C3    C52   A    
C6    C7    A    
C43   H11   S    
Cu1   O7    S    
C27   H36   S    
C13   C17   A    
C26   H2    S    
C47   H22   S    
C37   C44   S    
C2    C3    A    
C35   N2    A    
C6    C13   A    
C11   C13   A    
C1    C45   S    
C5    C6    A    
C23   C39   S    
C17   H12   S    
C33   C35   A    
C37   C41   S    
Cu2   N1    S    
C10   C11   A    
C1    O2    A    
C46   H17   S    
C20   C21   A    
C8    H1    S    
C48   H26   S    
C21   C24   A    
Cu2   O8    S    
C14   C15   A    
C49   H27   S    
Cu2   O6    S    
C16   O5    A    
