data_mof_unit_pretest_450.cif
_audit_creation_date              2012-12-10T18:12:34-0500
_audit_creation_method            fapswitch 2.2
_symmetry_space_group_name_H-M    P1
_symmetry_Int_Tables_number       1
_space_group_crystal_system       triclinic
_cell_length_a                    12.607287
_cell_length_b                    13.132249
_cell_length_c                    15.710294
_cell_angle_alpha                 90.631984
_cell_angle_beta                  101.841003
_cell_angle_gamma                 84.966102
_cell_volume                      2535.79669252

loop_
_atom_site_label
_atom_site_type_symbol
_atom_type_description
_atom_site_fract_x
_atom_site_fract_y
_atom_site_fract_z
_atom_type_partial_charge
C1    C     C_R   0.443617 0.685146 0.469813 0.899070
C2    C     C_3   0.499971 0.505091 0.917500 0.148207
C3    C     C_3   0.441033 0.429536 0.017500 -0.198834
C4    C     C_3   0.497612 0.505288 0.082635 0.132049
C5    C     C_3   0.544864 0.414483 0.978908 -0.182883
C6    C     C_3   0.600420 0.490548 0.045218 0.323651
C7    C     C_1   0.500639 0.503907 0.826576 -0.044592
C8    C     C_1   0.497119 0.504065 0.173459 -0.020342
C9    C     C_R   0.732428 0.068998 0.488444 -0.184881
C10   C     C_R   0.592034 0.201592 0.498534 -0.052763
C11   C     C_R   0.310404 0.814647 0.378963 -0.101771
C12   C     C_R   0.500300 0.500497 0.661965 0.922986
C13   C     C_R   0.277399 0.919326 0.366130 0.291909
C14   C     C_R   0.350221 0.992077 0.397897 -0.234859
C15   C     C_R   0.461702 0.961541 0.430357 0.025360
C16   C     C_R   0.495482 0.856685 0.432703 0.060099
C17   C     C_R   0.541561 0.031259 0.456755 0.089051
C18   C     C_R   0.654015 0.997642 0.467803 0.123851
C19   C     C_R   0.685630 0.894213 0.455870 -0.051195
C20   C     C_R   0.606607 0.825355 0.436770 -0.216584
C21   C     C_R   0.512729 0.132945 0.475154 -0.246147
C22   C     C_R   0.701687 0.169608 0.504192 -0.202192
C23   C     C_R   0.558727 0.308868 0.507622 0.871453
C24   C     C_R   0.415788 0.786191 0.426999 -0.212958
C25   C     C_R   0.083006 0.352287 0.372775 0.180880
C26   C     C_R   0.804991 0.621961 0.609213 0.020383
C27   C     C_R   0.912942 0.641968 0.637232 -0.235352
C28   C     C_R   0.992163 0.595627 0.595930 -0.173280
C29   C     C_R   0.964132 0.526291 0.527296 0.045606
C30   C     C_R   0.853354 0.505099 0.503762 0.229020
C31   C     C_R   0.041611 0.475527 0.482791 -0.061023
C32   C     C_R   0.007356 0.402586 0.417364 0.081778
C33   C     C_R   0.898571 0.381139 0.398016 -0.194678
C34   C     C_R   0.499502 0.500106 0.338054 0.870205
C35   C     C_R   0.823570 0.431153 0.440620 -0.218605
C36   C     C_R   0.152260 0.494608 0.500063 -0.085387
C37   C     C_R   0.190758 0.374813 0.393744 -0.045677
C38   C     C_3   0.452841 0.595814 0.021159 -0.217901
C39   C     C_3   0.556723 0.581036 0.982444 -0.186736
C40   C     C_1   0.500729 0.502317 0.751157 -0.186001
C41   C     C_1   0.497866 0.502223 0.248885 -0.141395
C42   C     C_3   0.396129 0.520032 0.954299 -0.148615
H1    H     H_    0.604521 0.642530 0.966284 0.159182
H2    H     H_    0.428793 0.159476 0.473242 0.162024
H3    H     H_    0.320592 0.071520 0.387309 0.179677
H4    H     H_    0.633175 0.747768 0.422114 0.187147
H5    H     H_    0.250061 0.337522 0.360085 0.165952
H6    H     H_    0.869855 0.325050 0.349781 0.216244
H7    H     H_    0.184996 0.549747 0.547207 0.139653
H8    H     H_    0.743261 0.658448 0.640818 0.142238
H9    H     H_    0.415094 0.669690 0.040565 0.147616
H10   H     H_    0.074344 0.614668 0.619823 0.132623
H11   H     H_    0.935092 0.694383 0.690280 0.146457
H12   H     H_    0.742736 0.408677 0.423508 0.217118
H13   H     H_    0.583055 0.340620 0.959901 0.164497
H14   H     H_    0.393566 0.367878 0.033857 0.161737
H15   H     H_    0.312225 0.532148 0.914806 0.145394
H16   H     H_    0.764037 0.222542 0.519619 0.171144
H17   H     H_    0.818141 0.048715 0.491890 0.172329
N1    N     N_R   0.222180 0.444680 0.455580 -0.119657
N2    N     N_R   0.776980 0.554790 0.543960 -0.135155
O1    O     O_R   0.366730 0.627160 0.478790 -0.620062
O2    O     O_R   0.544830 0.662520 0.507160 -0.629409
O3    O     O_R   0.410960 0.482330 0.609040 -0.608353
O4    O     O_R   0.589060 0.517690 0.637410 -0.609311
O5    O     O_R   0.455170 0.337480 0.492840 -0.617695
O6    O     O_R   0.633270 0.372840 0.521210 -0.639861
O7    O     O_R   0.410940 0.482310 0.362590 -0.611097
O8    O     O_R   0.589040 0.517670 0.390960 -0.643660
Zn1   Zn    Zn3+2 0.381080 0.476390 0.481050 0.947657
Zn2   Zn    Zn3+2 0.618920 0.523610 0.518950 0.930434
C43   C     C_R   0.252818 0.738933 0.320094 0.163721
C44   C     C_R   0.177152 0.679658 0.345349 -0.101570
C45   C     C_R   0.123195 0.610465 0.287312 -0.127534
C46   C     C_R   0.146836 0.597578 0.204628 -0.071873
C47   C     C_R   0.223830 0.654629 0.179517 -0.138766
C48   C     C_R   0.276304 0.725332 0.236795 -0.131947
H18   H     H_    0.160771 0.685685 0.409946 0.124602
H19   H     H_    0.063382 0.566433 0.306600 0.153095
H20   H     H_    0.105703 0.543249 0.160153 0.159741
H21   H     H_    0.242624 0.644309 0.115609 0.134539
H22   H     H_    0.335553 0.769395 0.216396 0.135035
Br1   Br    Br    0.135364 0.965786 0.302000 -0.481852
Br2   Br    Br    0.044872 0.254893 0.281871 -0.449524
Br3   Br    Br    0.747429 0.469417 0.113166 -0.503645
C49   C     C_R   0.801503 0.856935 0.466157 0.108146
C50   C     C_R   0.871504 0.862275 0.547830 -0.159905
C51   C     C_R   0.984009 0.848497 0.554930 -0.138436
C52   C     C_R   0.027007 0.827590 0.480982 -0.096828
C53   C     C_R   0.957428 0.817328 0.400140 -0.085960
C54   C     C_R   0.844855 0.831794 0.392646 -0.134184
H23   H     H_    0.838947 0.882333 0.605060 0.132986
H24   H     H_    0.037824 0.855844 0.617488 0.132278
H25   H     H_    0.114228 0.821030 0.486675 0.133781
H26   H     H_    0.990198 0.801741 0.342527 0.173289
H27   H     H_    0.791941 0.828687 0.329125 0.145042

loop_
_geom_bond_atom_site_label_1
_geom_bond_atom_site_label_2
_ccdc_geom_bond_type
C50   C51   A    
C3    C42   S    
C11   C13   A    
C44   C45   A    
C19   C20   A    
C4    C8    S    
C19   C49   S    
C1    O1    A    
C53   H26   S    
C10   C22   A    
C26   C27   A    
C43   C48   A    
C6    Br3   S    
C30   C35   A    
C5    C6    S    
C23   O5    A    
C28   C29   A    
C26   N2    A    
C38   C42   S    
C49   C54   A    
C26   H8    S    
C38   C39   S    
C12   O3    A    
C9    C22   A    
C15   C16   A    
C11   C24   A    
O1    Zn1   S    
C18   C19   A    
C23   O6    A    
C52   H25   S    
O8    Zn2   S    
C25   C37   A    
C54   H27   S    
C7    C40   T    
C2    C39   S    
C2    C7    S    
C25   Br2   S    
C44   H18   S    
O3    Zn1   S    
C37   H5    S    
C46   H20   S    
N2    Zn2   S    
C25   C32   A    
C16   C24   A    
C13   C14   A    
C35   H12   S    
C34   C41   S    
C1    O2    A    
C42   H15   S    
C11   C43   S    
C14   H3    S    
C10   C21   A    
C45   C46   A    
C47   C48   A    
C4    C6    S    
C34   O7    A    
C49   C50   A    
C39   H1    S    
C38   H9    S    
C3    C5    S    
O4    Zn2   S    
C17   C21   A    
C9    H17   S    
C12   C40   S    
C46   C47   A    
C29   C30   A    
C21   H2    S    
C3    H14   S    
C31   C32   A    
C14   C15   A    
N1    Zn1   S    
C16   C20   A    
C17   C18   A    
C8    C41   T    
C34   O8    A    
O2    Zn2   S    
C45   H19   S    
C2    C5    S    
C3    C4    S    
C15   C17   A    
C51   H24   S    
C6    C39   S    
C5    H13   S    
C4    C38   S    
C43   C44   A    
C36   N1    A    
C47   H21   S    
C22   H16   S    
C27   H11   S    
C10   C23   S    
C12   O4    A    
C13   Br1   S    
C32   C33   A    
C29   C31   A    
C28   H10   S    
C53   C54   A    
O5    Zn1   S    
C48   H22   S    
C2    C42   S    
C33   C35   A    
O6    Zn2   S    
C37   N1    A    
C9    C18   A    
C51   C52   A    
C1    C24   S    
O7    Zn1   S    
C30   N2    A    
C27   C28   A    
C33   H6    S    
C31   C36   A    
C52   C53   A    
C50   H23   S    
C20   H4    S    
C36   H7    S    
