data_mof_unit_pretest_1104.cif
_audit_creation_date              2012-12-11T19:49:20-0500
_audit_creation_method            fapswitch 2.2
_symmetry_space_group_name_H-M    P1
_symmetry_Int_Tables_number       1
_space_group_crystal_system       triclinic
_cell_length_a                    8.544944
_cell_length_b                    15.327751
_cell_length_c                    19.12958
_cell_angle_alpha                 101.826976
_cell_angle_beta                  91.880793
_cell_angle_gamma                 99.862151
_cell_volume                      2410.06357618

loop_
_atom_site_label
_atom_site_type_symbol
_atom_type_description
_atom_site_fract_x
_atom_site_fract_y
_atom_site_fract_z
_atom_type_partial_charge
Ba1   Ba    Ba6+2 0.853520 0.540910 0.466490 1.676888
Ba2   Ba    Ba6+2 0.336320 0.459170 0.533520 1.673772
C1    C     C_3   0.681278 0.853192 0.247478 -0.225606
C2    C     C_3   0.616138 0.767364 0.274451 0.390389
C3    C     C_3   0.462896 0.278200 0.294222 0.463865
C4    C     C_3   0.445843 0.216134 0.216314 -0.160777
C5    C     C_3   0.058910 0.242363 0.721990 0.161105
C6    C     C_3   0.147120 0.230861 0.791007 -0.107603
C7    C     C_3   0.482125 0.220856 0.649551 0.428195
C8    C     C_3   0.426790 0.121451 0.651551 -0.124603
C9    C     C_R   0.994096 0.471526 0.049020 0.030867
C10   C     C_R   0.892942 0.431639 0.095359 -0.061013
C11   C     C_R   0.727698 0.403211 0.073775 0.000448
C12   C     C_3   0.179855 0.772223 0.283162 0.352509
C13   C     C_R   0.670211 0.405051 0.004660 0.152110
C14   C     C_R   0.777476 0.429265 0.954320 -0.018069
C15   C     C_R   0.934966 0.470602 0.977987 0.006825
C16   C     C_R   0.728476 0.411131 0.880904 -0.110073
C17   C     C_R   0.819257 0.454140 0.832260 -0.039098
C18   C     C_R   0.974590 0.504413 0.857600 0.027096
C19   C     C_R   0.032821 0.509369 0.930236 0.009044
C20   C     C_R   0.765754 0.445270 0.758931 0.130765
C21   C     C_R   0.875653 0.479015 0.712305 -0.275760
C22   C     C_R   0.025413 0.534979 0.735810 -0.033296
C23   C     C_3   0.124026 0.790852 0.211339 -0.189169
C24   C     C_R   0.075290 0.546228 0.810265 0.023786
C25   C     C_R   0.153976 0.510749 0.073099 0.028404
C26   C     C_R   0.213905 0.509478 0.144181 0.033588
C27   C     C_R   0.111187 0.467624 0.191346 -0.006677
C28   C     C_R   0.956673 0.425199 0.163346 -0.023685
C29   C     C_R   0.227230 0.593567 0.838379 -0.015521
C30   C     C_R   0.285309 0.593909 0.908318 0.004850
C31   C     C_R   0.189609 0.552179 0.955043 0.013146
C32   C     C_R   0.251883 0.552269 0.025891 -0.017477
C33   C     C_R   0.441327 0.634482 0.931120 -0.082685
C34   C     C_3   0.268928 0.743575 0.636210 0.264059
C35   C     C_R   0.507252 0.633193 0.998661 0.102523
C36   C     C_R   0.413263 0.591271 0.047952 0.043617
C37   C     C_R   0.376529 0.547526 0.166730 0.017866
C38   C     C_R   0.476678 0.583485 0.116392 0.094234
C39   C     C_R   0.432365 0.547342 0.238825 -0.008125
C40   C     C_R   0.325624 0.509056 0.284906 -0.276185
C41   C     C_R   0.164609 0.469555 0.264782 0.074750
C42   C     C_R   0.855095 0.171128 0.537630 0.045851
C43   C     C_R   0.781913 0.080666 0.537489 -0.067869
C44   C     C_R   0.646579 0.893241 0.530748 -0.032274
C45   C     C_3   0.312084 0.847061 0.660467 -0.201674
C46   C     C_R   0.792722 0.936171 0.570813 0.176612
C47   C     C_R   0.859048 0.025832 0.571003 -0.131259
C48   C     C_R   0.582400 0.797336 0.520386 0.118396
C49   C     C_R   0.429354 0.764543 0.485596 -0.147570
C50   C     C_R   0.615191 0.193327 0.475387 0.027408
C51   C     C_R   0.543684 0.100647 0.471936 -0.078456
C52   C     C_R   0.628178 0.044147 0.503511 -0.007320
C53   C     C_R   0.390098 0.061854 0.438998 0.164065
C54   C     C_R   0.312285 0.978805 0.450017 0.073882
C55   C     C_R   0.399454 0.917165 0.471955 -0.040067
C56   C     C_3   0.961399 0.222939 0.323005 0.479379
C57   C     C_R   0.559142 0.950695 0.500804 -0.031554
C58   C     C_R   0.334656 0.823335 0.463360 -0.003549
C59   C     C_R   0.777222 0.223204 0.500000 -0.015228
C60   C     C_3   0.999825 0.134477 0.275222 0.104234
C61   C     C_3   0.735951 0.727163 0.709372 0.183831
C62   C     C_3   0.700350 0.782934 0.783382 -0.127480
H1    H     H_    0.391761 0.874218 0.622587 0.021458
H2    H     H_    0.203341 0.876612 0.658842 0.060283
H3    H     H_    0.031364 0.237818 0.374674 -0.042774
H4    H     H_    0.127850 0.143422 0.270221 0.058014
H5    H     H_    0.809888 0.874391 0.264573 0.130603
H6    H     H_    0.738197 0.856245 0.784544 0.149436
H7    H     H_    0.569941 0.770624 0.789125 0.059634
H8    H     H_    0.501239 0.734354 0.243564 -0.038868
H9    H     H_    0.618534 0.908576 0.271973 0.067945
H10   H     H_    0.359412 0.240306 0.183525 0.091460
H11   H     H_    0.178544 0.749947 0.166931 0.067162
H12   H     H_    0.077869 0.316051 0.721551 0.093473
H13   H     H_    0.275160 0.242056 0.783927 0.140473
H14   H     H_    0.597772 0.228150 0.625001 0.056328
H15   H     H_    0.394396 0.240892 0.615552 0.084982
H16   H     H_    0.381657 0.083157 0.596880 0.060448
H17   H     H_    0.327709 0.113029 0.686851 0.123479
H18   H     H_    0.886129 0.385784 0.195000 0.096279
H19   H     H_    0.304910 0.628281 0.805381 0.122795
H20   H     H_    0.515571 0.666434 0.895288 0.093935
H21   H     H_    0.301451 0.812011 0.300189 -0.007463
H22   H     H_    0.370540 0.509749 0.338458 0.047444
H23   H     H_    0.974216 0.051394 0.599032 0.088854
H24   H     H_    0.992681 0.769983 0.202052 0.159850
H25   H     H_    0.375088 0.715551 0.618967 0.048433
H26   H     H_    0.177154 0.728246 0.590827 0.012750
O1    O     O_2   0.871960 0.437280 0.322960 -0.457454
O2    O     O_3   0.659695 0.759535 0.656442 -0.661231
O3    O     O_3   0.073719 0.796678 0.335770 -0.567591
O4    O     O_2   0.317750 0.562750 0.677090 -0.431537
O5    O     O_3   0.068300 0.555620 0.587560 -0.541937
O6    O     O_3   0.528270 0.392500 0.627460 -0.481738
O7    O     O_3   0.209569 0.706546 0.692885 -0.623734
O8    O     O_3   0.609290 0.386840 0.459690 -0.489654
O9    O     O_3   0.105700 0.342700 0.589730 -0.427420
O10   O     O_2   0.173599 0.184789 0.529824 -0.526010
O11   O     O_3   0.119739 0.194362 0.661392 -0.671065
O12   O     O_3   0.121410 0.444460 0.412450 -0.509964
O13   O     O_3   0.580430 0.613240 0.540320 -0.478238
O14   O     O_2   0.337390 0.273050 0.457610 -0.472865
O15   O     O_3   0.511580 0.228242 0.342299 -0.594539
O16   O     O_2   0.421828 0.437034 0.753981 -0.483543
O17   O     O_3   0.494911 0.274754 0.719105 -0.594845
O18   O     O_3   0.661450 0.607570 0.372550 -0.458693
O19   O     O_2   0.764417 0.542934 0.251395 -0.475710
O20   O     O_3   0.996406 0.294427 0.286612 -0.616367
O21   O     O_3   0.727444 0.708365 0.266787 -0.560634
O22   O     O_2   0.852310 0.726980 0.542430 -0.473358
O23   O     O_3   0.084010 0.657370 0.410280 -0.481458
O24   O     O_2   0.005307 0.809460 0.466941 -0.436359
P1    P     P_3+3 0.039430 0.410940 0.333230 0.981954
P2    P     P_3+3 0.676770 0.715000 0.563590 0.991151
P3    P     P_3+3 0.130603 0.773153 0.418682 0.990085
P4    P     P_3+3 0.150290 0.589140 0.666780 0.950627
P5    P     P_3+3 0.058005 0.224198 0.582041 0.959168
P6    P     P_3+3 0.640699 0.600778 0.280747 0.974462
P7    P     P_3+3 0.515110 0.272480 0.435211 0.986293
P8    P     P_3+3 0.554013 0.390024 0.717485 1.037109
N1    N     N_3   0.589178 0.795633 0.349573 -0.518130
H27   H     H_    0.520012 0.740088 0.363221 0.127289
H28   H     H_    0.698274 0.809606 0.379837 0.217453
C63   C     C_2   0.386698 0.877491 0.735636 0.550559
H29   H     H_    0.323191 0.857823 0.779789 0.090391
O25   O     O_2   0.517362 0.926083 0.748173 -0.612303
N2    N     N_3   0.794661 0.207693 0.335063 -0.481210
H30   H     H_    0.730106 0.178141 0.286811 0.218350
H31   H     H_    0.773956 0.158639 0.365669 0.134571
N3    N     N_3   0.924042 0.116225 0.202210 -0.446366
H32   H     H_    0.985205 0.073264 0.168284 0.234779
H33   H     H_    0.807601 0.080495 0.199858 0.220740
N4    N     N_3   0.957288 0.056662 0.308758 -0.560835
H34   H     H_    0.007750 0.003686 0.281016 0.182616
H35   H     H_    0.834347 0.034085 0.303020 0.187506
C64   C     C_2   0.909014 0.744544 0.700437 0.518845
H36   H     H_    0.949547 0.704902 0.654177 -0.040775
O26   O     O_2   0.000430 0.805842 0.740513 -0.591361
C65   C     C_2   0.671707 0.628126 0.703079 0.465598
H37   H     H_    0.679872 0.580359 0.654073 -0.069227
O27   O     O_2   0.606712 0.600653 0.752256 -0.594344
C66   C     C_2   0.780998 0.764788 0.849249 0.515526
H38   H     H_    0.763700 0.804452 0.901318 0.018222
O28   O     O_2   0.864777 0.707193 0.845585 -0.579081
N5    N     N_3   0.311328 0.303276 0.312152 -0.507164
H39   H     H_    0.256898 0.254585 0.337333 0.178472
H40   H     H_    0.331485 0.361427 0.352982 0.146710
N6    N     N_3   0.578217 0.360327 0.295719 -0.466495
H41   H     H_    0.522061 0.398048 0.267074 0.118196
H42   H     H_    0.593684 0.401966 0.346256 0.223425
C67   C     C_2   0.383343 0.117243 0.213261 0.519662
H43   H     H_    0.271767 0.084902 0.183188 0.048014
O29   O     O_2   0.462771 0.071128 0.239188 -0.604464
C68   C     C_2   0.598470 0.219151 0.178255 0.522790
H44   H     H_    0.710175 0.257814 0.204523 0.024785
O30   O     O_2   0.597599 0.178191 0.116251 -0.520773
C69   C     C_2   0.655860 0.841209 0.168064 0.496413
H45   H     H_    0.537153 0.817000 0.141899 -0.003588
O31   O     O_2   0.767801 0.859926 0.132512 -0.531299
C70   C     C_2   0.886873 0.205081 0.722870 0.483734
H46   H     H_    0.847191 0.132657 0.715530 0.021655
O32   O     O_2   0.792757 0.256115 0.733869 -0.588827
N7    N     N_3   0.120480 0.298043 0.853944 -0.464962
H47   H     H_    0.998295 0.295687 0.858502 0.232257
H48   H     H_    0.169752 0.362621 0.846708 0.168228
C71   C     C_2   0.106939 0.135825 0.804392 0.591320
H49   H     H_    0.123183 0.078476 0.763242 -0.046002
O33   O     O_2   0.055556 0.122189 0.860771 -0.498541
N8    N     N_3   0.558928 0.084935 0.676593 -0.486616
H50   H     H_    0.558078 0.092941 0.732198 0.275481
H51   H     H_    0.541118 0.015845 0.654173 0.207801
N9    N     N_3   0.183527 0.675923 0.270531 -0.520427
H52   H     H_    0.259418 0.666032 0.310495 0.114615
H53   H     H_    0.069023 0.640171 0.273473 0.236398
C72   C     C_2   0.610940 0.385928 0.126548 0.530231
H54   H     H_    0.650819 0.402633 0.180942 -0.012349
O34   O     O_2   0.470484 0.353581 0.110414 -0.569855
N10   N     N_3   0.500830 0.396162 0.990005 -0.452079
H55   H     H_    0.475070 0.438062 0.956109 0.146049
H56   H     H_    0.450672 0.328377 0.968658 0.241546
C73   C     C_2   0.841390 0.438874 0.636886 0.529745
H57   H     H_    0.820906 0.477551 0.597410 0.035493
O35   O     O_2   0.817556 0.356992 0.619851 -0.615753
C74   C     C_2   0.602741 0.331208 0.856337 0.604345
H58   H     H_    0.482422 0.340515 0.845904 -0.018186
O36   O     O_2   0.629495 0.255219 0.855307 -0.518786
N11   N     N_3   0.670806 0.675532 0.015155 -0.503259
H59   H     H_    0.683007 0.742670 0.009427 0.225357
H60   H     H_    0.739235 0.642146 0.977791 0.201528
N12   N     N_3   0.645153 0.604487 0.132591 -0.473851
H61   H     H_    0.684865 0.673578 0.138063 0.220272
H62   H     H_    0.702780 0.569891 0.091731 0.188126
N13   N     N_3   0.874813 0.892893 0.615802 -0.446680
H63   H     H_    0.881152 0.930411 0.668405 0.192002
H64   H     H_    0.990665 0.895031 0.599749 0.180505
N14   N     N_3   0.141936 0.962052 0.443268 -0.464278
H65   H     H_    0.100923 0.013026 0.478840 0.186788
H66   H     H_    0.101271 0.961894 0.391208 0.192103
N15   N     N_3   0.313363 0.101506 0.389103 -0.450545
H67   H     H_    0.203333 0.114338 0.406123 0.203786
H68   H     H_    0.292524 0.055161 0.340308 0.182313
N16   N     N_3   0.375408 0.668474 0.470110 -0.460052
H69   H     H_    0.275093 0.650474 0.497016 0.196469
H70   H     H_    0.356877 0.643403 0.415208 0.151083
N17   N     N_3   0.864807 0.307773 0.487575 -0.412275
H71   H     H_    0.980328 0.300354 0.476535 0.181166
H72   H     H_    0.827470 0.322053 0.439930 0.176052
C75   C     C_2   0.171568 0.887704 0.207045 0.473185
H73   H     H_    0.249831 0.934582 0.248735 0.005497
O37   O     O_2   0.126277 0.913611 0.154997 -0.525262

loop_
_geom_bond_atom_site_label_1
_geom_bond_atom_site_label_2
_ccdc_geom_bond_type
C34   H25   S    
C56   C60   S    
O8    P7    S    
C35   N11   S    
C53   C54   A    
N7    H47   S    
C3    N5    S    
Ba2   O4    S    
C44   C57   A    
C39   C40   A    
C47   H23   S    
N5    H39   S    
O22   P2    D    
N8    H50   S    
Ba2   P4    S    
N1    H27   S    
C37   C39   A    
C3    O15   S    
C51   C52   A    
C50   C51   A    
C10   C11   A    
N8    H51   S    
C63   H29   S    
O3    P3    S    
C26   C27   A    
C1    H5    S    
C35   C36   A    
C22   C24   A    
Ba1   Ba2   S    
C50   C59   A    
C65   O27   D    
Ba1   O22   S    
C3    C4    S    
N1    H28   S    
C19   C31   A    
Ba2   O12   S    
C56   N2    S    
C13   C14   A    
C53   N15   S    
C29   H19   S    
C54   C55   A    
C34   C45   S    
C16   C17   A    
C7    H15   S    
C62   H7    S    
O7    P4    S    
N11   H60   S    
O18   P6    S    
N9    H52   S    
O12   P1    S    
C6    C71   S    
C41   P1    S    
C9    C15   A    
C67   H43   S    
C17   C18   A    
N3    H32   S    
C72   O34   D    
C61   O2    S    
C46   C47   A    
C21   C22   A    
C69   O31   D    
C4    H10   S    
C34   O7    S    
C40   H22   S    
Ba1   P2    S    
C62   H6    S    
C67   O29   D    
C7    C8    S    
Ba1   O13   S    
C12   O3    S    
C54   N14   S    
C10   C28   A    
C71   O33   D    
C24   C29   A    
N7    H48   S    
C32   C36   A    
C13   N10   S    
C27   C41   A    
C1    C69   S    
N15   H68   S    
C23   C75   S    
Ba1   O23   S    
C20   C21   A    
N10   H56   S    
C9    C25   A    
C20   P8    S    
C70   O32   D    
C52   C57   A    
C51   C53   A    
C25   C32   A    
O24   P3    D    
C5    C70   S    
C44   C46   A    
N17   H71   S    
O11   P5    S    
C30   C33   A    
C60   N3    S    
N4    H34   S    
C17   C20   A    
C66   O28   D    
C6    N7    S    
C37   C38   A    
C8    H16   S    
C14   C15   A    
C55   C58   A    
O14   P7    D    
C62   C66   S    
C26   C37   A    
C48   C49   A    
C8    N8    S    
Ba2   O6    S    
C16   C74   S    
C23   H24   S    
C15   C19   A    
C3    N6    S    
N13   H63   S    
C2    N1    S    
O21   P6    S    
C23   H11   S    
N12   H62   S    
C60   N4    S    
C28   H18   S    
C73   H57   S    
C21   C73   S    
C27   C28   A    
C33   H20   S    
C50   P7    S    
C69   H45   S    
C38   N12   S    
Ba2   O14   S    
Ba1   O5    S    
O16   P8    D    
C31   C32   A    
C61   C65   S    
O15   P7    S    
C58   P3    S    
O10   P5    D    
N16   H69   S    
O2    P2    S    
N14   H65   S    
C64   O26   D    
C59   N17   S    
O23   P3    S    
N3    H33   S    
C71   H49   S    
C2    O21   S    
N16   H70   S    
Ba2   O9    S    
C72   H54   S    
C75   O37   D    
C11   C13   A    
C46   N13   S    
C5    O11   S    
C6    H13   S    
C61   C64   S    
N6    H42   S    
C55   C57   A    
C40   C41   A    
C74   O36   D    
C1    C2    S    
C49   N16   S    
C2    H8    S    
C42   C43   A    
C33   C35   A    
C45   C63   S    
C70   H46   S    
C34   H26   S    
N4    H35   S    
C68   H44   S    
C63   O25   D    
C45   H2    S    
N5    H40   S    
O5    P4    S    
C56   O20   S    
C29   C30   A    
C12   H21   S    
C66   H38   S    
Ba2   O5    S    
Ba1   O8    S    
C43   C52   A    
C9    C10   A    
C5    H12   S    
C60   H4    S    
C42   C59   A    
C7    O17   S    
C39   P6    S    
C44   C48   A    
C8    H17   S    
C22   P4    S    
C42   P5    S    
N15   H67   S    
O6    P8    S    
N12   H61   S    
C73   O35   D    
O13   P2    S    
N2    H30   S    
C12   N9    S    
C65   H37   S    
C30   C31   A    
C36   C38   A    
O4    P4    D    
C18   C24   A    
Ba2   O13   S    
C11   C72   S    
O20   P1    S    
C68   O30   D    
O1    P1    D    
C43   C47   A    
C48   P2    S    
C7    H14   S    
C12   C23   S    
N11   H59   S    
C1    H9    S    
N9    H53   S    
C4    C67   S    
C5    C6    S    
C64   H36   S    
Ba1   O18   S    
O9    P5    S    
C61   C62   S    
C56   H3    S    
C18   C19   A    
Ba2   O8    S    
C14   C16   A    
C75   H73   S    
Ba1   O1    S    
C25   C26   A    
N17   H72   S    
N6    H41   S    
N14   H66   S    
C49   C58   A    
Ba1   P1    S    
O17   P8    S    
N2    H31   S    
C74   H58   S    
Ba1   O12   S    
C45   H1    S    
C4    C68   S    
N10   H55   S    
O19   P6    D    
N13   H64   S    
