data_mof_unit_pretest_980.cif
_audit_creation_date              2012-12-10T20:34:56-0500
_audit_creation_method            fapswitch 2.2
_symmetry_space_group_name_H-M    P1
_symmetry_Int_Tables_number       1
_space_group_crystal_system       triclinic
_cell_length_a                    10.681581
_cell_length_b                    10.711096
_cell_length_c                    9.950688
_cell_angle_alpha                 88.791606
_cell_angle_beta                  87.923814
_cell_angle_gamma                 92.951383
_cell_volume                      1135.91551264

loop_
_atom_site_label
_atom_site_type_symbol
_atom_type_description
_atom_site_fract_x
_atom_site_fract_y
_atom_site_fract_z
_atom_type_partial_charge
C1    C     C_R   0.508715 0.260570 0.500056 0.924227
C2    C     C_3   0.878356 0.509832 0.492993 -0.096701
C3    C     C_3   0.933366 0.628713 0.565033 0.310746
C4    C     C_3   0.933669 0.508032 0.347059 -0.331303
C5    C     C_R   0.566784 0.064119 0.610188 0.096110
C6    C     C_R   0.538985 0.131268 0.495443 -0.272200
C7    C     C_R   0.544438 0.070748 0.371742 -0.245737
C8    C     C_R   0.538483 0.941290 0.369881 0.677957
C9    C     C_R   0.533763 0.873184 0.492817 -0.202260
C10   C     C_R   0.566130 0.936003 0.608987 -0.000579
C11   C     C_3   0.513565 0.923285 0.749765 -0.468214
C12   C     C_R   0.257520 0.501018 0.500943 0.905353
C13   C     C_3   0.510004 0.063815 0.747793 0.473629
C14   C     C_R   0.484313 0.391674 0.076692 0.119090
C15   C     C_R   0.530275 0.605723 0.067735 -0.065217
C16   C     C_R   0.530703 0.605431 0.924536 -0.079298
C17   C     C_R   0.482744 0.390356 0.935202 0.182103
C18   C     C_3   0.374722 0.291613 0.953865 0.175665
C19   C     C_3   0.380063 0.299534 0.104253 -0.440987
C20   C     C_R   0.505422 0.740497 0.498246 0.961628
C21   C     C_R   0.741966 0.505341 0.497461 0.931962
C22   C     C_3   0.058561 0.386012 0.567596 0.506525
C23   C     C_3   0.916073 0.389262 0.566470 -0.507946
C24   C     C_3   0.076790 0.619788 0.576172 -0.538413
C25   C     C_3   0.076455 0.513441 0.350646 -0.302275
C26   C     C_3   0.120407 0.504924 0.499030 -0.080813
H1    H     H_    0.083104 0.384518 0.673642 0.195798
H2    H     H_    0.902972 0.587701 0.285223 0.244767
H3    H     H_    0.130338 0.705656 0.537671 0.240847
H4    H     H_    0.542759 0.121597 0.277313 0.199422
H5    H     H_    0.418928 0.874731 0.758030 0.181036
H6    H     H_    0.583604 0.889821 0.819916 0.245414
H7    H     H_    0.413467 0.096719 0.748182 0.074806
H8    H     H_    0.553826 0.691686 0.117719 0.226826
H9    H     H_    0.555416 0.690158 0.868384 0.152037
H10   H     H_    0.400605 0.197989 0.926026 0.150028
H11   H     H_    0.299393 0.341999 0.156311 0.244671
H12   H     H_    0.409067 0.212168 0.152076 0.189916
H13   H     H_    0.876302 0.304888 0.516211 0.234739
H14   H     H_    0.877582 0.385270 0.672192 0.191235
H15   H     H_    0.099092 0.610537 0.684195 0.204141
H16   H     H_    0.891096 0.629834 0.668888 0.121371
H17   H     H_    0.114983 0.602161 0.301216 0.221338
H18   H     H_    0.111502 0.434805 0.290888 0.232918
H19   H     H_    0.900726 0.420794 0.297200 0.206480
N1    N     N_R   0.499150 0.499140 0.142800 -0.116207
N2    N     N_R   0.499150 0.499180 0.857150 -0.097251
O1    O     O_R   0.500020 0.316790 0.614690 -0.629160
O2    O     O_R   0.500000 0.316760 0.385350 -0.620969
O3    O     O_R   0.314800 0.500000 0.614670 -0.587369
O4    O     O_R   0.314790 0.499960 0.385330 -0.625004
O5    O     O_R   0.500000 0.683240 0.614650 -0.636576
O6    O     O_R   0.499980 0.683210 0.385310 -0.557603
O7    O     O_R   0.685210 0.500040 0.614670 -0.631407
O8    O     O_R   0.685200 0.500000 0.385330 -0.606545
Zn1   Zn    Zn3+2 0.500010 0.500020 0.653130 1.016119
Zn2   Zn    Zn3+2 0.499990 0.499980 0.346870 1.013677
S1    S     S_3+6 0.898953 0.775861 0.484248 0.019164
O9    O     O_2   0.999975 0.816209 0.380873 -0.268332
O10   O     O_2   0.776285 0.764571 0.415766 -0.337788
O11   O     O_3   0.890905 0.885376 0.602445 -0.507513
H20   H     H_    0.862118 0.960317 0.554983 0.399474
F1    F     F_    0.526061 0.885328 0.249781 -0.652558
F2    F     F_    0.591728 0.119264 0.836519 -0.638741
F3    F     F_    0.098380 0.279377 0.505638 -0.629263
S2    S     S_3+6 0.224529 0.323386 0.895372 0.026101
O12   O     O_2   0.124304 0.285106 0.000306 -0.236044
O13   O     O_2   0.216141 0.459871 0.861445 -0.328465
O14   O     O_3   0.203683 0.233022 0.761245 -0.517098
H21   H     H_    0.272771 0.259681 0.696514 0.358512

loop_
_geom_bond_atom_site_label_1
_geom_bond_atom_site_label_2
_ccdc_geom_bond_type
S2    O13   D    
C1    O1    A    
C13   H7    S    
C6    C7    A    
O4    Zn2   S    
C19   H12   S    
O7    Zn1   S    
C18   S2    S    
C17   N2    A    
C9    C10   A    
C15   H8    S    
C5    C13   S    
O1    Zn1   S    
C22   H1    S    
C12   O4    A    
C25   H17   S    
C2    C21   S    
C17   C18   S    
S1    O9    D    
C11   H5    S    
C5    C10   A    
C22   F3    S    
C7    H4    S    
S2    O12   D    
C24   H15   S    
C11   C13   S    
C14   C17   A    
C3    C24   S    
C21   O7    A    
C13   F2    S    
C18   H10   S    
S1    O11   S    
C23   H13   S    
C2    C4    S    
C14   C19   S    
C25   H18   S    
C4    H2    S    
N2    Zn1   S    
C24   C26   S    
C11   H6    S    
C4    C25   S    
C2    C3    S    
C4    H19   S    
O8    Zn2   S    
C16   H9    S    
O11   H20   S    
C9    C20   S    
O14   H21   S    
S2    O14   S    
C10   C11   S    
C8    F1    S    
S1    O10   D    
C23   H14   S    
C3    S1    S    
O5    Zn1   S    
C7    C8    A    
C3    H16   S    
O2    Zn2   S    
C16   N2    A    
C20   O5    A    
C18   C19   S    
C22   C26   S    
C2    C23   S    
C5    C6    A    
O6    Zn2   S    
C22   C23   S    
C20   O6    A    
C21   O8    A    
C19   H11   S    
C15   N1    A    
C25   C26   S    
C24   H3    S    
C1    O2    A    
N1    Zn2   S    
C12   O3    A    
C15   C16   A    
O3    Zn1   S    
C1    C6    S    
C12   C26   S    
C8    C9    A    
C14   N1    A    
