data_mof_unit_pretest_1023.cif
_audit_creation_date              2012-12-10T17:33:57-0500
_audit_creation_method            fapswitch 2.2
_symmetry_space_group_name_H-M    P1
_symmetry_Int_Tables_number       1
_space_group_crystal_system       triclinic
_cell_length_a                    10.634399
_cell_length_b                    11.970665
_cell_length_c                    12.894023
_cell_angle_alpha                 93.322235
_cell_angle_beta                  90.379258
_cell_angle_gamma                 86.375793
_cell_volume                      1635.37689799

loop_
_atom_site_label
_atom_site_type_symbol
_atom_type_description
_atom_site_fract_x
_atom_site_fract_y
_atom_site_fract_z
_atom_type_partial_charge
C1    C     C_R   0.498927 0.522036 0.700452 0.920439
C2    C     C_R   0.509749 0.446099 0.974005 0.071816
C3    C     C_R   0.479211 0.552296 0.025608 0.071310
C4    C     C_R   0.742116 0.500615 0.500937 0.936984
C5    C     C_R   0.475301 0.559430 0.132582 -0.282949
C6    C     C_R   0.527613 0.359408 0.138026 -0.243163
C7    C     C_R   0.532250 0.348373 0.029855 0.224957
C8    C     C_R   0.385497 0.954459 0.400027 -0.338012
C9    C     C_R   0.396022 0.838133 0.409939 0.024586
C10   C     C_R   0.548816 0.858259 0.543521 -0.061196
C11   C     C_R   0.541410 0.975724 0.536467 0.095112
C12   C     C_3   0.121217 0.500493 0.503166 0.045106
C13   C     C_R   0.458570 0.024272 0.463599 0.095875
C14   C     C_R   0.451201 0.141717 0.456491 -0.061471
C15   C     C_R   0.603882 0.161892 0.590158 0.015684
C16   C     C_R   0.501118 0.477945 0.299529 0.921451
C17   C     C_R   0.614425 0.045562 0.600082 -0.337770
C18   C     C_R   0.257663 0.500012 0.500893 0.877116
C19   C     C_3   0.929971 0.450270 0.604192 -0.007743
C20   C     C_3   0.076651 0.442064 0.601024 0.018309
C21   C     C_3   0.932536 0.427943 0.406574 0.022416
C22   C     C_3   0.919853 0.623427 0.497890 -0.414187
C23   C     C_3   0.076788 0.434955 0.403616 -0.513044
C24   C     C_3   0.878347 0.501413 0.502176 0.015285
C25   C     C_3   0.870860 0.375362 0.226432 -0.802604
C26   C     C_3   0.445387 0.858611 0.974618 -0.809388
C27   C     C_3   0.617491 0.149411 0.029612 -0.817825
C28   C     C_3   0.841900 0.453445 0.782316 -0.764886
C29   C     C_3   0.196613 0.405677 0.762231 -0.802373
C30   C     C_3   0.062320 0.623092 0.502575 -0.416833
C31   C     C_R   0.500964 0.464496 0.188209 -0.105358
C32   C     C_R   0.495868 0.535197 0.811712 -0.101529
C33   C     C_R   0.456574 0.649943 0.969704 0.226204
C34   C     C_R   0.464797 0.639572 0.861718 -0.243757
C35   C     C_R   0.519704 0.440005 0.867338 -0.300998
H1    H     H_    0.454080 0.639871 0.173475 0.179522
H2    H     H_    0.885424 0.661644 0.425575 0.184835
H3    H     H_    0.878912 0.678471 0.563224 0.178524
H4    H     H_    0.090884 0.673751 0.572822 0.174486
H5    H     H_    0.899261 0.362841 0.604922 0.119075
H6    H     H_    0.095438 0.665000 0.433724 0.186256
H7    H     H_    0.898309 0.537866 0.285065 0.235873
H8    H     H_    0.818917 0.409195 0.158900 0.249033
H9    H     H_    0.820992 0.302989 0.252035 0.245100
H10   H     H_    0.968201 0.347053 0.201895 0.237851
H11   H     H_    0.105995 0.477142 0.333688 0.186494
H12   H     H_    0.544673 0.286973 0.183689 0.175448
H13   H     H_    0.339157 0.757989 0.064020 0.212702
H14   H     H_    0.436098 0.929786 0.033758 0.242223
H15   H     H_    0.375140 0.874350 0.912185 0.232299
H16   H     H_    0.542464 0.854542 0.942662 0.250098
H17   H     H_    0.486206 0.217870 0.925144 0.220487
H18   H     H_    0.646614 0.080111 0.972128 0.242461
H19   H     H_    0.551230 0.117099 0.085225 0.233772
H20   H     H_    0.703203 0.177077 0.070879 0.251812
H21   H     H_    0.546674 0.360576 0.826655 0.179032
H22   H     H_    0.918181 0.589968 0.715577 0.246190
H23   H     H_    0.444417 0.711608 0.816114 0.172614
H24   H     H_    0.926071 0.412530 0.818806 0.253477
H25   H     H_    0.775980 0.389057 0.756244 0.234451
H26   H     H_    0.792970 0.511771 0.841211 0.241180
H27   H     H_    0.320983 0.989354 0.343258 0.139872
H28   H     H_    0.612088 0.819278 0.598886 0.122196
H29   H     H_    0.173983 0.561513 0.696486 0.219827
H30   H     H_    0.222546 0.447656 0.837708 0.244494
H31   H     H_    0.283396 0.369135 0.722890 0.260827
H32   H     H_    0.134774 0.337181 0.777556 0.236115
H33   H     H_    0.122272 0.348442 0.397683 0.163659
H34   H     H_    0.387971 0.180685 0.401092 0.120404
H35   H     H_    0.660085 0.215789 0.639260 0.124049
H36   H     H_    0.678897 0.010684 0.656891 0.141592
H37   H     H_    0.339744 0.784272 0.360878 0.121459
H38   H     H_    0.106773 0.351150 0.588955 0.134882
H39   H     H_    0.912440 0.339177 0.418352 0.145948
N1    N     N_R   0.523380 0.207800 0.519350 -0.101145
N2    N     N_R   0.476620 0.792180 0.480650 -0.100572
N3    N     N_2   0.873935 0.461680 0.309557 -0.291566
N4    N     N_2   0.422301 0.755692 0.022999 -0.312552
N5    N     N_2   0.556465 0.241105 0.975984 -0.314609
N6    N     N_2   0.878410 0.515363 0.695454 -0.290997
N7    N     N_2   0.131929 0.486395 0.697970 -0.290026
O1    O     O_R   0.506240 0.421700 0.658830 -0.638979
O2    O     O_R   0.491240 0.609310 0.646410 -0.630072
O3    O     O_R   0.692710 0.406190 0.506230 -0.640101
O4    O     O_R   0.677700 0.593810 0.493810 -0.625189
O5    O     O_R   0.508760 0.390690 0.353590 -0.627429
O6    O     O_R   0.493760 0.578300 0.341170 -0.628437
O7    O     O_R   0.322300 0.406190 0.506190 -0.630006
O8    O     O_R   0.307290 0.593810 0.493770 -0.638222
Zn1   Zn    Zn3+2 0.510020 0.374730 0.508290 0.927712
Zn2   Zn    Zn3+2 0.489980 0.625270 0.491710 0.934006

loop_
_geom_bond_atom_site_label_1
_geom_bond_atom_site_label_2
_ccdc_geom_bond_type
C2    C35   A    
C15   N1    A    
C8    C13   A    
O6    Zn2   S    
C19   C20   S    
C9    H37   S    
C25   H8    S    
C10   H28   S    
O4    Zn2   S    
C27   H19   S    
C16   C31   S    
C12   C23   S    
C26   N4    S    
C25   N3    S    
C27   N5    S    
C26   H15   S    
C4    C24   S    
C27   H20   S    
C33   N4    S    
C3    C33   A    
C22   H3    S    
C5    H1    S    
H13   N4    S    
N1    Zn1   S    
C29   H32   S    
C10   N2    A    
C2    C7    A    
C8    C9    A    
C20   H38   S    
C16   O6    A    
C30   H6    S    
C9    N2    A    
O8    Zn2   S    
H17   N5    S    
C28   H26   S    
C6    C31   A    
C23   H11   S    
C20   N7    S    
C16   O5    A    
H22   N6    S    
O3    Zn1   S    
C25   H9    S    
C28   H25   S    
C6    H12   S    
C32   C35   A    
O5    Zn1   S    
C26   H14   S    
C4    O4    A    
C1    O1    A    
C22   H2    S    
C21   H39   S    
C1    C32   S    
C18   O7    A    
C32   C34   A    
C23   H33   S    
C29   N7    S    
C4    O3    A    
C12   C20   S    
C33   C34   A    
C29   H30   S    
O7    Zn1   S    
C17   H36   S    
C10   C11   A    
C21   C23   S    
C14   H34   S    
C22   C24   S    
C12   C18   S    
C25   H10   S    
C7    N5    S    
C28   H24   S    
C15   C17   A    
C15   H35   S    
C11   C17   A    
C22   C30   S    
C12   C30   S    
C35   H21   S    
C18   O8    A    
C3    C5    A    
C27   H18   S    
C6    C7    A    
C1    O2    A    
O2    Zn2   S    
O1    Zn1   S    
C14   N1    A    
C2    C3    A    
C26   H16   S    
C11   C13   A    
C30   H4    S    
C19   C24   S    
C19   N6    S    
C28   N6    S    
H29   N7    S    
C19   H5    S    
N2    Zn2   S    
C29   H31   S    
H7    N3    S    
C21   C24   S    
C21   N3    S    
C34   H23   S    
C13   C14   A    
C8    H27   S    
C5    C31   A    
