data_mof_unit_pretest_249.cif
_audit_creation_date              2012-12-10T16:57:04-0500
_audit_creation_method            fapswitch 2.2
_symmetry_space_group_name_H-M    P1
_symmetry_Int_Tables_number       1
_space_group_crystal_system       triclinic
_cell_length_a                    7.747032
_cell_length_b                    8.632574
_cell_length_c                    16.47611
_cell_angle_alpha                 91.837879
_cell_angle_beta                  80.938245
_cell_angle_gamma                 93.483365
_cell_volume                      1085.82432639

loop_
_atom_site_label
_atom_site_type_symbol
_atom_type_description
_atom_site_fract_x
_atom_site_fract_y
_atom_site_fract_z
_atom_type_partial_charge
C1    C     C_R   0.545577 0.794394 0.498299 0.916408
C2    C     C_R   0.387554 0.492227 0.216989 0.518089
C3    C     C_R   0.525949 0.255136 0.835929 -0.260541
C4    C     C_R   0.383689 0.432820 0.137243 -0.261709
C5    C     C_R   0.383470 0.301155 0.892892 0.132129
C6    C     C_R   0.510137 0.331532 0.100316 0.138104
C7    C     C_R   0.270188 0.406709 0.870696 -0.180855
C8    C     C_R   0.648662 0.299150 0.140629 -0.178135
C9    C     C_R   0.304651 0.473013 0.793738 -0.293258
C10   C     C_R   0.656779 0.360881 0.218722 -0.308174
C11   C     C_2   0.369380 0.265014 0.979809 -0.207612
C12   C     C_R   0.454403 0.205621 0.501944 0.917736
C13   C     C_2   0.514273 0.277698 0.015017 -0.196318
C14   C     C_3   0.862319 0.332593 0.725083 -0.271058
C15   C     C_3   0.095600 0.530382 0.258480 -0.272492
C16   C     C_3   0.700970 0.012654 0.346219 -0.769185
C17   C     C_3   0.298333 0.988825 0.654377 -0.748746
C18   C     C_2   0.567920 0.955331 0.485682 -0.012346
C19   C     C_2   0.432171 0.044761 0.514816 -0.016477
C20   C     C_R   0.476115 0.491773 0.654586 0.884887
C21   C     C_R   0.521556 0.494384 0.344901 0.892850
C22   C     C_R   0.453661 0.435307 0.738334 -0.152428
C23   C     C_R   0.525719 0.455439 0.257819 -0.139939
C24   C     C_R   0.565764 0.325041 0.759613 0.501774
H1    H     H_    0.762609 0.329736 0.249679 0.173518
H2    H     H_    0.977092 0.620118 0.560444 0.191011
H3    H     H_    0.886498 0.281967 0.783216 0.143770
H4    H     H_    0.867435 0.461694 0.730459 0.148863
H5    H     H_    0.970309 0.300209 0.676054 0.204178
H6    H     H_    0.084393 0.409466 0.281301 0.135459
H7    H     H_    0.047750 0.533652 0.198503 0.153420
H8    H     H_    0.008239 0.600375 0.303230 0.210229
H9    H     H_    0.834694 0.962225 0.440613 0.240772
H10   H     H_    0.821831 0.065523 0.309864 0.230478
H11   H     H_    0.589384 0.082419 0.337916 0.239328
H12   H     H_    0.215484 0.554741 0.777640 0.168706
H13   H     H_    0.678438 0.892123 0.322746 0.235163
H14   H     H_    0.165250 0.037180 0.559459 0.238225
H15   H     H_    0.178422 0.933974 0.690557 0.230070
H16   H     H_    0.317424 0.109879 0.677703 0.235075
H17   H     H_    0.411590 0.921573 0.663126 0.237893
H18   H     H_    0.643065 0.274414 0.977886 0.142060
H19   H     H_    0.241219 0.268547 0.017524 0.142209
H20   H     H_    0.159652 0.443361 0.914322 0.135347
H21   H     H_    0.750505 0.225768 0.111637 0.139396
H22   H     H_    0.285809 0.470717 0.103350 0.140140
H23   H     H_    0.609303 0.167908 0.851476 0.145099
H24   H     H_    0.022794 0.379386 0.439859 0.188189
N1    N     N_2   0.953500 0.457650 0.478520 -0.166798
N2    N     N_2   0.046500 0.542350 0.521480 -0.168163
N3    N     N_2   0.721157 0.011626 0.432022 -0.292938
N4    N     N_2   0.278905 0.988432 0.568448 -0.296567
O1    O     O_R   0.388470 0.738640 0.505270 -0.578049
O2    O     O_3   0.267852 0.597314 0.252866 -0.605362
O3    O     O_R   0.611530 0.261360 0.494730 -0.565377
O4    O     O_R   0.679650 0.711510 0.491500 -0.644721
O5    O     O_R   0.320350 0.288490 0.508500 -0.652989
O6    O     O_R   0.337210 0.515200 0.623500 -0.628064
O7    O     O_R   0.662790 0.484800 0.376500 -0.639854
O8    O     O_R   0.628380 0.488060 0.609730 -0.576688
O9    O     O_R   0.371620 0.511940 0.390270 -0.577074
O10   O     O_3   0.702293 0.272884 0.702768 -0.599003
Zn1   Zn    Zn3+2 0.305580 0.518120 0.509190 0.953327
Zn2   Zn    Zn3+2 0.694420 0.481880 0.490810 0.957017

loop_
_geom_bond_atom_site_label_1
_geom_bond_atom_site_label_2
_ccdc_geom_bond_type
C9    H12   S    
C2    C4    A    
O4    Zn2   S    
C11   H19   S    
C1    O1    A    
C14   H3    S    
C20   O8    A    
C11   C13   D    
C21   O9    A    
C16   N3    S    
C16   H13   S    
O8    Zn2   S    
C16   H10   S    
O3    Zn2   S    
H2    N2    S    
O7    Zn2   S    
C5    C7    A    
C15   H8    S    
C16   H11   S    
N1    Zn2   S    
C4    H22   S    
C7    H20   S    
C6    C13   S    
C15   H7    S    
N2    Zn1   S    
O1    Zn1   S    
C3    C24   A    
C6    C8    A    
C12   O5    A    
C10   H1    S    
C3    H23   S    
H24   N1    S    
C1    O4    A    
C20   C22   S    
C18   N3    S    
C21   O7    A    
C22   C24   A    
C21   C23   S    
C5    C11   S    
C2    O2    S    
C10   C23   A    
N1    N2    D    
C17   H17   S    
C9    C22   A    
C12   O3    A    
H9    N3    S    
C14   H5    S    
C20   O6    A    
C14   O10   S    
C15   O2    S    
C2    C23   A    
H14   N4    S    
C17   N4    S    
C15   H6    S    
C7    C9    A    
C18   C19   D    
C17   H15   S    
O6    Zn1   S    
O9    Zn1   S    
C1    C18   S    
C8    H21   S    
C13   H18   S    
C24   O10   S    
C12   C19   S    
C14   H4    S    
C4    C6    A    
C19   N4    S    
C8    C10   A    
O5    Zn1   S    
C3    C5    A    
C17   H16   S    
