data_mof_unit_pretest_1506.cif
_audit_creation_date              2013-03-05T16:10:54-0500
_audit_creation_method            fapswitch 2.2
_symmetry_space_group_name_H-M    P1
_symmetry_Int_Tables_number       1
_space_group_crystal_system       triclinic
_cell_length_a                    37.508301
_cell_length_b                    30.369346
_cell_length_c                    21.5958
_cell_angle_alpha                 90.004356
_cell_angle_beta                  54.076995
_cell_angle_gamma                 90.007278
_cell_volume                      19921.0942465

loop_
_atom_site_label
_atom_site_type_symbol
_atom_site_description
_atom_site_fract_x
_atom_site_fract_y
_atom_site_fract_z
_atom_type_partial_charge
O1    O     O_R   0.935720 0.537180 0.564270 -0.515601
O2    O     O_R   0.064280 0.537180 0.435730 -0.515541
O3    O     O_R   0.435720 0.037180 0.564270 -0.515602
O4    O     O_R   0.564280 0.037180 0.435730 -0.515550
O5    O     O_R   0.935680 0.462770 0.564310 -0.611515
O6    O     O_R   0.064320 0.462770 0.435690 -0.610627
O7    O     O_R   0.435680 0.962770 0.564310 -0.611442
O8    O     O_R   0.564320 0.962770 0.435690 -0.610694
C1    C     C_R   0.914963 0.500047 0.583854 0.851800
C2    C     C_R   0.085032 0.500051 0.416171 0.852571
C3    C     C_R   0.414964 0.000047 0.583853 0.851855
C4    C     C_R   0.585032 0.000051 0.416169 0.852505
O9    O     O_R   0.999990 0.537180 0.408860 -0.560633
O10   O     O_R   0.000010 0.537180 0.591140 -0.560003
O11   O     O_R   0.499990 0.037180 0.408860 -0.560583
O12   O     O_R   0.500010 0.037180 0.591140 -0.560049
O13   O     O_R   0.999950 0.462770 0.408890 -0.614835
O14   O     O_R   0.000050 0.462770 0.591110 -0.614698
O15   O     O_R   0.499950 0.962770 0.408890 -0.614824
O16   O     O_R   0.500050 0.962770 0.591110 -0.614711
C5    C     C_R   0.001675 0.499944 0.378375 0.915923
C6    C     C_R   0.998304 0.499949 0.621647 0.915442
C7    C     C_R   0.501677 0.999944 0.378373 0.915882
C8    C     C_R   0.498306 0.999949 0.621645 0.915478
Cu1   Cu    Cu3+1 1.000000 0.544030 0.500000 1.179275
Cu2   Cu    Cu3+1 0.500000 0.044030 0.500000 1.179286
Cu3   Cu    Cu3+1 0.000000 0.455920 0.500000 0.943428
Cu4   Cu    Cu3+1 0.500000 0.955920 0.500000 0.943427
C9    C     C_3   0.952354 0.502557 0.336921 0.155914
C10   C     C_3   0.047665 0.501849 0.663053 0.155861
C11   C     C_3   0.452352 0.002493 0.336924 0.155900
C12   C     C_3   0.547664 0.001902 0.663054 0.155860
H1    H     H_    0.941783 0.536600 0.359761 0.147660
H2    H     H_    0.058755 0.535710 0.639582 0.148221
H3    H     H_    0.441736 0.036521 0.359819 0.147701
H4    H     H_    0.558716 0.035776 0.639630 0.148177
C13   C     C_3   0.950102 0.501677 0.267028 0.130129
C14   C     C_3   0.049908 0.501050 0.732966 0.129784
C15   C     C_3   0.450100 0.001620 0.267029 0.130103
C16   C     C_3   0.549908 0.001097 0.732966 0.129811
H5    H     H_    0.935857 0.533394 0.266614 0.088754
H6    H     H_    0.064514 0.532631 0.732920 0.089018
H7    H     H_    0.435822 0.033324 0.266656 0.088778
H8    H     H_    0.564487 0.032688 0.732954 0.088997
H9    H     H_    0.004181 0.571031 0.291377 0.127588
H10   H     H_    0.996878 0.571049 0.707679 0.127385
H11   H     H_    0.504089 0.071032 0.291461 0.127574
H12   H     H_    0.496801 0.071049 0.707748 0.127400
C17   C     C_3   0.025264 0.542219 0.259119 0.069970
C18   C     C_3   0.975341 0.542563 0.740332 0.070312
C19   C     C_3   0.525211 0.042249 0.259167 0.069999
C20   C     C_3   0.475296 0.042538 0.740372 0.070285
C21   C     C_3   0.024436 0.457125 0.260315 0.347717
C22   C     C_3   0.974953 0.457452 0.740283 0.346836
C23   C     C_3   0.524489 0.957153 0.260262 0.347643
C24   C     C_3   0.474998 0.957428 0.740238 0.346902
C25   C     C_3   0.001522 0.499760 0.309846 -0.258294
C26   C     C_3   0.998457 0.499768 0.690182 -0.258090
C27   C     C_3   0.501524 0.999760 0.309844 -0.258270
C28   C     C_3   0.498458 0.999768 0.690180 -0.258104
H13   H     H_    0.007210 0.427850 0.296519 0.090850
H14   H     H_    0.991729 0.427948 0.704438 0.091097
H15   H     H_    0.507302 0.927857 0.296434 0.090870
H16   H     H_    0.491807 0.927940 0.704367 0.091079
C29   C     C_3   0.998655 0.498987 0.190205 -0.229409
C30   C     C_3   0.001334 0.498945 0.809814 -0.229332
C31   C     C_3   0.498656 0.998983 0.190203 -0.229401
C32   C     C_3   0.501335 0.998949 0.809813 -0.229337
C33   C     C_3   0.028646 0.537960 0.184076 0.219390
C34   C     C_3   0.971842 0.538289 0.815473 0.219028
C35   C     C_3   0.528603 0.037989 0.184117 0.219354
C36   C     C_3   0.471806 0.038265 0.815506 0.219056
C37   C     C_3   0.020691 0.456037 0.192451 -0.535462
C38   C     C_3   0.978773 0.456264 0.808067 -0.535396
C39   C     C_3   0.520739 0.956057 0.192404 -0.535454
C40   C     C_3   0.478812 0.956248 0.808029 -0.535402
H17   H     H_    0.002524 0.426125 0.196645 0.196165
H18   H     H_    0.996628 0.426147 0.804102 0.195791
H19   H     H_    0.502600 0.926126 0.196576 0.196133
H20   H     H_    0.496689 0.926146 0.804046 0.195818
H21   H     H_    0.054024 0.452097 0.137755 0.212572
H22   H     H_    0.945419 0.452678 0.862844 0.212977
H23   H     H_    0.554074 0.952149 0.137702 0.212609
H24   H     H_    0.445459 0.952635 0.862799 0.212947
H25   H     H_    0.062697 0.526572 0.139673 0.221733
H26   H     H_    0.937644 0.527299 0.859939 0.221734
H27   H     H_    0.562667 0.026638 0.139707 0.221730
H28   H     H_    0.437619 0.027246 0.859968 0.221734
C41   C     C_R   0.797971 0.467766 0.735496 -0.148989
C42   C     C_R   0.202012 0.468056 0.264043 -0.148475
C43   C     C_R   0.297972 0.967781 0.735521 -0.148952
C44   C     C_R   0.702014 0.968033 0.264081 -0.148516
H29   H     H_    0.780951 0.443582 0.780869 0.146481
H30   H     H_    0.219028 0.444086 0.218308 0.146666
H31   H     H_    0.280951 0.943609 0.780914 0.146492
H32   H     H_    0.719029 0.944045 0.218377 0.146650
C45   C     C_R   0.843782 0.468986 0.689841 -0.187883
C46   C     C_R   0.156202 0.469280 0.309710 -0.186462
C47   C     C_R   0.343782 0.969001 0.689866 -0.187778
C48   C     C_R   0.656203 0.969256 0.309747 -0.186578
H33   H     H_    0.861362 0.445899 0.701121 0.166764
H34   H     H_    0.138616 0.446417 0.298086 0.167610
H35   H     H_    0.361362 0.945926 0.701165 0.166820
H36   H     H_    0.638617 0.946374 0.298151 0.167535
C49   C     C_R   0.866744 0.500089 0.630921 -0.123238
C50   C     C_R   0.133245 0.500104 0.369103 -0.123344
C51   C     C_R   0.366744 0.000089 0.630920 -0.123239
C52   C     C_R   0.633246 0.000104 0.369101 -0.123331
C53   C     C_R   0.843165 0.529732 0.616915 0.361182
C54   C     C_R   0.156818 0.529452 0.383583 0.360940
C55   C     C_R   0.343167 0.029715 0.616887 0.361173
C56   C     C_R   0.656819 0.029477 0.383541 0.360961
C57   C     C_R   0.797228 0.527711 0.662251 -0.194001
C58   C     C_R   0.202758 0.527428 0.338208 -0.193736
C59   C     C_R   0.297229 0.027695 0.662225 -0.193974
C60   C     C_R   0.702759 0.027453 0.338169 -0.193758
H37   H     H_    0.779319 0.550794 0.651700 0.166955
H38   H     H_    0.220667 0.550290 0.349113 0.167070
H39   H     H_    0.279320 0.050766 0.651655 0.166958
H40   H     H_    0.720669 0.050335 0.349044 0.167057
C61   C     C_R   0.774384 0.497182 0.722112 0.031861
C62   C     C_R   0.225603 0.497187 0.277874 0.031518
C63   C     C_R   0.274385 0.997182 0.722112 0.031839
C64   C     C_R   0.725604 0.997188 0.277875 0.031548
C65   C     C_R   0.702741 0.499827 0.738824 -0.149495
C66   C     C_R   0.297254 0.499495 0.261184 -0.149400
C67   C     C_R   0.202741 0.999810 0.738823 -0.149485
C68   C     C_R   0.797255 0.999525 0.261183 -0.149407
H41   H     H_    0.720124 0.501352 0.677370 0.150633
H42   H     H_    0.279876 0.500748 0.322653 0.150622
H43   H     H_    0.220125 0.001320 0.677369 0.150632
H44   H     H_    0.779875 0.000801 0.322652 0.150622
C69   C     C_R   0.656891 0.500719 0.785442 -0.167461
C70   C     C_R   0.343106 0.500392 0.214574 -0.167414
C71   C     C_R   0.156891 0.000702 0.785441 -0.167457
C72   C     C_R   0.843106 0.000421 0.214573 -0.167421
H45   H     H_    0.639865 0.503185 0.758873 0.163762
H46   H     H_    0.360132 0.502588 0.241172 0.163794
H47   H     H_    0.139865 0.003154 0.758871 0.163764
H48   H     H_    0.860132 0.002639 0.241168 0.163790
C73   C     C_R   0.633457 0.498622 0.865303 -0.037451
C74   C     C_R   0.366540 0.498626 0.134691 -0.037508
C75   C     C_R   0.133457 0.998622 0.865304 -0.037455
C76   C     C_R   0.866540 0.998626 0.134691 -0.037503
C77   C     C_R   0.656707 0.495219 0.897637 -0.171775
C78   C     C_R   0.343287 0.495556 0.102322 -0.171804
C79   C     C_R   0.156707 0.995236 0.897639 -0.171778
C80   C     C_R   0.843287 0.995529 0.102325 -0.171801
H49   H     H_    0.639533 0.493467 0.959009 0.162254
H50   H     H_    0.360458 0.494072 0.040931 0.162304
H51   H     H_    0.139534 0.993498 0.959013 0.162256
H52   H     H_    0.860458 0.994022 0.040936 0.162301
C81   C     C_R   0.702558 0.494174 0.850957 -0.145234
C82   C     C_R   0.297435 0.494520 0.148989 -0.145213
C83   C     C_R   0.202559 0.994192 0.850960 -0.145231
C84   C     C_R   0.797435 0.994493 0.148993 -0.145217
H53   H     H_    0.719800 0.492231 0.877204 0.144953
H54   H     H_    0.280195 0.492849 0.122715 0.145116
H55   H     H_    0.219801 0.992262 0.877209 0.144964
H56   H     H_    0.780196 0.992798 0.122721 0.145102
C85   C     C_R   0.725912 0.496681 0.771241 0.119707
C86   C     C_R   0.274080 0.496688 0.228736 0.119736
C87   C     C_R   0.225912 0.996680 0.771242 0.119709
C88   C     C_R   0.774080 0.996689 0.228737 0.119734
O17   O     O_R   0.962770 0.564220 0.037230 -0.585703
O18   O     O_R   0.037230 0.564220 0.962770 -0.585774
O19   O     O_R   0.462770 0.064220 0.037230 -0.585711
O20   O     O_R   0.537230 0.064220 0.962770 -0.585773
C89   C     C_R   0.000002 0.585073 0.999993 0.843290
C90   C     C_R   0.500002 0.085073 0.999994 0.843302
O21   O     O_R   0.962780 0.499950 0.128370 -0.551436
O22   O     O_R   0.037220 0.499950 0.871630 -0.552107
O23   O     O_R   0.462780 0.999950 0.128370 -0.551497
O24   O     O_R   0.537220 0.999950 0.871630 -0.552056
O25   O     O_R   0.037180 0.500000 0.053970 -0.589131
O26   O     O_R   0.962820 0.500000 0.946030 -0.589553
O27   O     O_R   0.537180 0.000000 0.053970 -0.589170
O28   O     O_R   0.462820 0.000000 0.946030 -0.589523
C91   C     C_R   0.999558 0.499075 0.120474 0.899763
C92   C     C_R   0.000439 0.499042 0.879533 0.901219
C93   C     C_R   0.499558 0.999072 0.120473 0.899893
C94   C     C_R   0.500439 0.999045 0.879533 0.901109
Cu5   Cu    Cu3+1 0.955920 0.499940 0.044070 1.046561
Cu6   Cu    Cu3+1 0.044080 0.499940 0.955930 1.046502
Cu7   Cu    Cu3+1 0.455920 0.999940 0.044070 1.046549
Cu8   Cu    Cu3+1 0.544080 0.999940 0.955930 1.046502
O29   O     O_R   0.962780 0.435670 0.037210 -0.576808
O30   O     O_R   0.037220 0.435670 0.962790 -0.576407
O31   O     O_R   0.462780 0.935670 0.037210 -0.576774
O32   O     O_R   0.537220 0.935670 0.962790 -0.576438
C95   C     C_R   0.999998 0.414836 0.000003 0.791648
C96   C     C_R   0.499998 0.914836 0.000003 0.791659
O33   O     O_R   0.499930 0.435710 0.947300 -0.584430
O34   O     O_R   0.500070 0.435710 0.052700 -0.584500
O35   O     O_R   0.999930 0.935710 0.947300 -0.584433
O36   O     O_R   0.000070 0.935710 0.052700 -0.584496
C97   C     C_R   0.500001 0.414926 0.999997 0.801027
C98   C     C_R   0.000001 0.914926 0.999997 0.801026
O37   O     O_R   0.564240 0.499990 0.883000 -0.584518
O38   O     O_R   0.435760 0.499990 0.117000 -0.584535
O39   O     O_R   0.064240 0.999990 0.883000 -0.584518
O40   O     O_R   0.935760 0.999990 0.117000 -0.584534
O41   O     O_R   0.564250 0.499990 0.988510 -0.587418
O42   O     O_R   0.435750 0.499990 0.011490 -0.587415
O43   O     O_R   0.064250 0.999990 0.988510 -0.587419
O44   O     O_R   0.935750 0.999990 0.011490 -0.587415
C99   C     C_R   0.585032 0.499668 0.914598 0.791441
C100  C     C_R   0.414966 0.499669 0.085402 0.791473
C101  C     C_R   0.085033 0.999668 0.914598 0.791443
C102  C     C_R   0.914966 0.999669 0.085402 0.791470
Cu9   Cu    Cu3+1 0.499970 0.499990 0.937550 0.972644
Cu10  Cu    Cu3+1 0.500030 0.499990 0.062450 0.972597
Cu11  Cu    Cu3+1 0.999970 0.999990 0.937550 0.972644
Cu12  Cu    Cu3+1 0.000030 0.999990 0.062450 0.972595
O45   O     O_R   0.500010 0.564260 0.947230 -0.585392
O46   O     O_R   0.499990 0.564260 0.052770 -0.585346
O47   O     O_R   0.000010 0.064260 0.947230 -0.585387
O48   O     O_R   0.999990 0.064260 0.052770 -0.585351
C103  C     C_R   0.499999 0.585014 0.000003 0.785680
C104  C     C_R   0.999999 0.085014 0.000003 0.785679
C105  C     C_R   0.039386 0.702674 0.972721 0.308858
C106  C     C_R   0.960639 0.702670 0.027230 0.308858
C107  C     C_R   0.539385 0.202674 0.972728 0.308861
C108  C     C_R   0.460640 0.202670 0.027223 0.308854
C109  C     C_R   0.038702 0.656630 0.973813 -0.220246
C110  C     C_R   0.961316 0.656626 0.026148 -0.218852
C111  C     C_R   0.538701 0.156630 0.973820 -0.220131
C112  C     C_R   0.461317 0.156626 0.026142 -0.218956
H57   H     H_    0.068783 0.638833 0.953104 0.214293
H58   H     H_    0.931232 0.638827 0.046863 0.214122
H59   H     H_    0.568781 0.138833 0.953117 0.214277
H60   H     H_    0.431233 0.138826 0.046851 0.214136
C113  C     C_R   0.000007 0.633461 0.999984 -0.173452
C114  C     C_R   0.500007 0.133461 0.999985 -0.173450
C115  C     C_R   0.000014 0.725950 0.999973 -0.178719
C116  C     C_R   0.500014 0.225950 0.999973 -0.178719
C117  C     C_R   0.494947 0.297279 0.949436 -0.054335
C118  C     C_R   0.505081 0.297284 0.050515 -0.054428
C119  C     C_R   0.994944 0.797279 0.949440 -0.054327
C120  C     C_R   0.005085 0.797284 0.050510 -0.054437
H61   H     H_    0.491051 0.279652 0.910136 0.142068
H62   H     H_    0.508979 0.279660 0.089811 0.141909
H63   H     H_    0.991045 0.779652 0.910144 0.142080
H64   H     H_    0.008986 0.779660 0.089802 0.141894
C121  C     C_R   0.495040 0.343147 0.949282 -0.164781
C122  C     C_R   0.504979 0.343151 0.050684 -0.164819
C123  C     C_R   0.995036 0.843147 0.949286 -0.164787
C124  C     C_R   0.004983 0.843152 0.050680 -0.164813
H65   H     H_    0.491056 0.360258 0.909713 0.161780
H66   H     H_    0.508959 0.360266 0.090259 0.161729
H67   H     H_    0.991049 0.860259 0.909721 0.161779
H68   H     H_    0.008966 0.860266 0.090251 0.161726
C125  C     C_R   0.500006 0.366498 0.999988 -0.044671
C126  C     C_R   0.000006 0.866498 0.999988 -0.044670
C127  C     C_R   0.500016 0.274276 0.999972 0.202751
C128  C     C_R   0.000016 0.774276 0.999972 0.202751
C129  C     C_R   0.037286 0.297351 0.982020 -0.160000
C130  C     C_R   0.962695 0.297344 0.018017 -0.160063
C131  C     C_R   0.537286 0.797351 0.982020 -0.160004
C132  C     C_R   0.462695 0.797344 0.018017 -0.160059
H69   H     H_    0.066457 0.279930 0.967534 0.139415
H70   H     H_    0.933523 0.279917 0.032505 0.139356
H71   H     H_    0.566457 0.779930 0.967534 0.139412
H72   H     H_    0.433522 0.779917 0.032506 0.139358
C133  C     C_R   0.037420 0.343234 0.981438 -0.161099
C134  C     C_R   0.962565 0.343227 0.018587 -0.161249
C135  C     C_R   0.537420 0.843234 0.981439 -0.161107
C136  C     C_R   0.462565 0.843227 0.018588 -0.161233
H73   H     H_    0.066622 0.360478 0.967192 0.157574
H74   H     H_    0.933366 0.360466 0.032829 0.157507
H75   H     H_    0.566622 0.860478 0.967193 0.157569
H76   H     H_    0.433366 0.860466 0.032830 0.157510
C137  C     C_R   0.999994 0.366506 0.000010 -0.016610
C138  C     C_R   0.499994 0.866506 0.000010 -0.016607
C139  C     C_R   0.999989 0.274151 0.000021 0.094329
C140  C     C_R   0.499989 0.774151 0.000021 0.094329
C141  C     C_R   0.486872 0.702565 0.960369 -0.157751
C142  C     C_R   0.513108 0.702573 0.039670 -0.157830
C143  C     C_R   0.986872 0.202565 0.960369 -0.157744
C144  C     C_R   0.013108 0.202573 0.039670 -0.157838
H77   H     H_    0.476904 0.719989 0.929064 0.135194
H78   H     H_    0.523073 0.720002 0.070978 0.135156
H79   H     H_    0.976905 0.219989 0.929064 0.135199
H80   H     H_    0.023073 0.220002 0.070978 0.135150
C145  C     C_R   0.487186 0.656680 0.959874 -0.171903
C146  C     C_R   0.512800 0.656687 0.040155 -0.171845
C147  C     C_R   0.987186 0.156680 0.959874 -0.171903
C148  C     C_R   0.012800 0.156687 0.040155 -0.171845
H81   H     H_    0.477026 0.639461 0.928698 0.156127
H82   H     H_    0.522963 0.639474 0.071326 0.156137
H83   H     H_    0.977026 0.139461 0.928697 0.156129
H84   H     H_    0.022963 0.139474 0.071326 0.156135
C149  C     C_R   0.499995 0.633385 0.000011 -0.031633
C150  C     C_R   0.999995 0.133384 0.000011 -0.031633
C151  C     C_R   0.499988 0.725765 0.000022 0.100020
C152  C     C_R   0.999988 0.225765 0.000022 0.100019
N1    N     N_R   0.068199 0.551745 0.244603 0.172394
O49   O     O_R   0.071236 0.584448 0.280229 -0.303809
O50   O     O_R   0.104379 0.532849 0.189400 -0.298814
N2    N     N_R   0.932568 0.552787 0.754683 0.172957
O51   O     O_R   0.930000 0.585740 0.718941 -0.302636
O52   O     O_R   0.896123 0.534282 0.809907 -0.298009
N3    N     N_R   0.568133 0.051836 0.244665 0.172441
O53   O     O_R   0.571130 0.084562 0.280300 -0.303707
O54   O     O_R   0.604336 0.032975 0.189458 -0.298746
N4    N     N_R   0.432512 0.052711 0.754736 0.172915
O55   O     O_R   0.429909 0.085645 0.719003 -0.302712
O56   O     O_R   0.396086 0.034176 0.809958 -0.298065
N5    N     N_R   0.865149 0.560896 0.555502 0.115398
O57   O     O_R   0.882952 0.595760 0.561791 -0.308713
O58   O     O_R   0.857979 0.560123 0.503434 -0.330057
N6    N     N_R   0.134831 0.560277 0.445534 0.114639
O59   O     O_R   0.116691 0.595153 0.440138 -0.309391
O60   O     O_R   0.142287 0.559241 0.497233 -0.331385
N7    N     N_R   0.365151 0.060860 0.555444 0.115339
O61   O     O_R   0.382970 0.095727 0.561685 -0.308740
O62   O     O_R   0.357969 0.060069 0.503390 -0.330194
N8    N     N_R   0.634833 0.060330 0.445447 0.114696
O63   O     O_R   0.616722 0.095206 0.439976 -0.309334
O64   O     O_R   0.642265 0.059316 0.497178 -0.331297
O65   O     O_3   0.919921 0.477374 0.402445 -0.525517
C153  C     C_3   0.924127 0.431126 0.395014 -0.144374
H85   H     H_    0.939929 0.418633 0.336385 0.158216
H86   H     H_    0.890596 0.416699 0.430347 0.195735
H87   H     H_    0.941490 0.418579 0.418781 0.143600
O66   O     O_3   0.079686 0.476118 0.597993 -0.525792
C154  C     C_3   0.074893 0.429938 0.606408 -0.142477
H88   H     H_    0.058782 0.417823 0.665335 0.157381
H89   H     H_    0.108244 0.415091 0.571609 0.195747
H90   H     H_    0.057502 0.417422 0.582666 0.143483
O67   O     O_3   0.419954 0.977263 0.402408 -0.525552
C155  C     C_3   0.424212 0.931021 0.394892 -0.144211
H91   H     H_    0.440040 0.918559 0.336237 0.158145
H92   H     H_    0.390695 0.916556 0.430179 0.195734
H93   H     H_    0.441576 0.918477 0.418657 0.143594
O68   O     O_3   0.579715 0.976211 0.597959 -0.525777
C156  C     C_3   0.574966 0.930026 0.606302 -0.142610
H94   H     H_    0.558876 0.917883 0.665208 0.157442
H95   H     H_    0.608329 0.915210 0.571465 0.195746
H96   H     H_    0.557577 0.917508 0.582558 0.143493
N9    N     N_R   0.080351 0.725068 0.942831 0.129387
O69   O     O_R   0.109577 0.707341 0.949385 -0.323450
O70   O     O_R   0.090941 0.760312 0.901175 -0.343710
N10   N     N_R   0.919677 0.725060 0.057118 0.129417
O71   O     O_R   0.890449 0.707329 0.050561 -0.323153
O72   O     O_R   0.909089 0.760302 0.098779 -0.343660
N11   N     N_R   0.580348 0.225068 0.942845 0.129388
O73   O     O_R   0.609573 0.207342 0.949406 -0.323432
O74   O     O_R   0.590941 0.260312 0.901187 -0.343716
N12   N     N_R   0.419679 0.225060 0.057104 0.129416
O75   O     O_R   0.390454 0.207328 0.050540 -0.323163
O76   O     O_R   0.409088 0.260302 0.098765 -0.343654
N13   N     N_R   0.918618 0.468558 0.275762 0.168323
O77   O     O_R   0.876732 0.474776 0.327683 -0.293262
O78   O     O_R   0.930745 0.434963 0.230089 -0.385999
N14   N     N_R   0.080994 0.467609 0.724753 0.168086
O79   O     O_R   0.122947 0.473290 0.672685 -0.293357
O80   O     O_R   0.068465 0.434267 0.771042 -0.386397
N15   N     N_R   0.418652 0.968470 0.275716 0.168298
O81   O     O_R   0.376760 0.974639 0.327651 -0.293284
O82   O     O_R   0.430816 0.934898 0.229986 -0.386036
N16   N     N_R   0.581022 0.967679 0.724715 0.168104
O83   O     O_R   0.622971 0.973400 0.672658 -0.293355
O84   O     O_R   0.568522 0.934318 0.770958 -0.386367
O85   O     O_3   0.027618 0.579012 0.152919 -0.555698
C157  C     C_3   0.985758 0.598683 0.190496 -0.250488
H97   H     H_    0.967079 0.599068 0.253560 0.139668
H98   H     H_    0.966624 0.583321 0.172007 0.153355
H99   H     H_    0.990537 0.633612 0.172207 0.208035
O86   O     O_3   0.973347 0.579297 0.846232 -0.556083
C158  C     C_3   0.015429 0.598499 0.808458 -0.250569
H100  H     H_    0.034113 0.598725 0.745394 0.140171
H101  H     H_    0.034399 0.582893 0.827070 0.154135
H102  H     H_    0.011044 0.633465 0.826425 0.207985
O87   O     O_3   0.527532 0.079038 0.152997 -0.555734
C159  C     C_3   0.485651 0.098666 0.190594 -0.250501
H103  H     H_    0.466972 0.099035 0.253658 0.139710
H104  H     H_    0.466532 0.083283 0.172093 0.153427
H105  H     H_    0.490395 0.133599 0.172337 0.208031
O88   O     O_3   0.473276 0.079277 0.846295 -0.556053
C160  C     C_3   0.515342 0.098513 0.808535 -0.250568
H106  H     H_    0.534026 0.098751 0.745471 0.140134
H107  H     H_    0.534324 0.082925 0.827139 0.154077
H108  H     H_    0.510929 0.133477 0.826526 0.207989
O89   O     O_3   0.069281 0.456097 0.233010 -0.517049
C161  C     C_3   0.084524 0.412415 0.223885 -0.280634
H109  H     H_    0.120556 0.413219 0.195435 0.195713
H110  H     H_    0.078568 0.392773 0.187275 0.147379
H111  H     H_    0.068885 0.396295 0.280488 0.152795
O90   O     O_3   0.930078 0.457081 0.767725 -0.517088
C162  C     C_3   0.914204 0.413629 0.777386 -0.281212
H112  H     H_    0.878173 0.414953 0.805957 0.195957
H113  H     H_    0.919950 0.393831 0.814119 0.147524
H114  H     H_    0.929546 0.397365 0.720975 0.152512
O91   O     O_3   0.569337 0.956182 0.232947 -0.517053
C163  C     C_3   0.584635 0.912520 0.223774 -0.280683
H115  H     H_    0.578698 0.892865 0.187152 0.147393
H116  H     H_    0.569021 0.896387 0.280359 0.152771
H117  H     H_    0.620667 0.913370 0.195314 0.195732
O92   O     O_3   0.430124 0.957008 0.767670 -0.517084
C164  C     C_3   0.414297 0.913538 0.777290 -0.281166
H118  H     H_    0.420058 0.893752 0.814015 0.147511
H119  H     H_    0.429661 0.897285 0.720865 0.152532
H120  H     H_    0.378266 0.914824 0.805852 0.195938

loop_
_geom_bond_atom_site_label_1
_geom_bond_atom_site_label_2
_geom_bond_distance
_ccdc_geom_bond_type
C162  H114  1.112021 S    
C47   H35   1.083682 S    
C69   H45   1.082879 S    
C23   C27   1.574981 S    
C74   C78   1.404762 A    
C153  H86   1.108996 S    
O46   C103  1.302112 A    
C132  H72   1.083259 S    
C156  H94   1.103486 S    
C75   C101  1.471215 S    
C71   H47   1.082880 S    
C32   C94   1.486200 S    
C110  C113  1.399384 A    
O30   C95   1.295628 A    
C129  H69   1.083258 S    
O21   Cu5   1.982468 S    
C163  H116  1.112018 S    
C115  C128  1.467629 S    
C82   H54   1.083124 S    
C131  H71   1.083258 S    
O33   Cu9   1.963386 S    
O34   C97   1.302758 A    
O19   Cu7   1.963179 S    
C9    H1    1.113534 S    
C120  H64   1.083345 S    
C10   C14   1.560874 S    
C16   N16   1.476479 S    
C11   C27   1.576373 S    
C18   N2    1.477485 S    
C96   C138  1.467766 S    
C22   C38   1.552667 S    
O42   C100  1.302137 A    
O32   C96   1.295628 A    
O66   C154  1.412052 S    
C148  C150  1.404083 A    
O4    C4    1.292313 A    
C79   C83   1.393085 A    
C143  H79   1.083276 S    
C159  H105  1.109199 S    
C72   H48   1.082875 S    
O35   C98   1.302768 A    
C45   C49   1.402554 A    
N5    O58   1.300816 A    
C164  H119  1.112021 S    
C48   C52   1.402488 A    
O38   C100  1.303268 A    
C17   C33   1.554971 S    
C19   C35   1.554958 S    
C108  C112  1.398498 A    
C37   H21   1.113478 S    
N13   O78   1.301620 A    
O17   C89   1.296190 A    
C129  C139  1.402210 A    
C59   C63   1.401853 A    
O17   Cu5   1.963179 S    
C129  C133  1.393482 A    
N3    O54   1.301480 A    
C4    C52   1.465130 S    
O16   Cu4   1.979637 S    
C46   H34   1.083707 S    
C121  C125  1.405674 A    
O13   C5    1.289579 A    
O7    Cu4   1.964930 S    
C81   C85   1.402619 A    
C24   O92   1.419176 S    
Cu8   O32   1.962906 S    
C161  H110  1.112630 S    
Cu5   Cu6   2.678059 S    
C20   C36   1.554842 S    
C63   C87   1.472417 S    
O4    Cu2   1.963719 S    
N3    O53   1.301538 A    
C141  C151  1.402114 A    
C32   C36   1.583661 S    
C61   C85   1.472411 S    
N4    O55   1.301535 A    
C54   N6    1.432392 S    
C131  C140  1.402210 A    
O40   Cu12  1.966416 S    
C17   N1    1.477481 S    
O28   C94   1.294775 A    
O43   Cu12  1.959266 S    
C160  H106  1.107282 S    
O8    Cu4   1.964888 S    
C9    O65   1.430784 S    
C161  H111  1.112019 S    
C156  H96   1.106882 S    
N2    O51   1.301535 A    
C41   C61   1.401645 A    
C33   O85   1.427997 S    
O3    Cu2   1.963682 S    
O68   C156  1.412045 S    
C13   N13   1.476531 S    
C6    C26   1.483444 S    
O25   C91   1.294871 A    
O87   C159  1.409160 S    
C122  C125  1.405672 A    
C46   C50   1.402483 A    
C44   C64   1.401684 A    
C18   C34   1.554828 S    
O85   C157  1.409153 S    
C19   N3    1.477481 S    
C30   C34   1.583646 S    
C10   O66   1.430803 S    
C116  C127  1.467632 S    
N12   O75   1.301483 A    
C67   H43   1.083145 S    
O3    C3    1.292352 A    
O34   Cu10  1.963355 S    
C153  H87   1.106818 S    
C65   H41   1.083146 S    
H12   C20   1.108954 S    
C66   C70   1.392971 A    
O65   C153  1.411966 S    
C136  C138  1.403764 A    
N15   O81   1.301588 A    
C37   H17   1.106857 S    
C22   H14   1.107490 S    
C119  H63   1.083347 S    
C39   H19   1.106860 S    
C124  H68   1.082821 S    
O88   C160  1.409217 S    
C111  H59   1.083151 S    
C105  C109  1.398508 A    
C11   O67   1.430785 S    
C48   H36   1.083704 S    
O24   C94   1.287190 A    
O86   C158  1.409220 S    
C7    C27   1.483345 S    
O23   Cu7   1.982468 S    
C89   C113  1.469515 S    
C12   H4    1.113529 S    
C107  C111  1.398508 A    
N16   O83   1.301578 A    
C134  C137  1.403765 A    
C56   N8    1.432379 S    
C30   C38   1.560390 S    
C145  H81   1.083033 S    
C68   C88   1.403076 A    
C17   C25   1.584635 S    
N6    O59   1.300617 A    
N8    O64   1.300825 A    
C20   C28   1.584909 S    
O5    Cu3   1.964930 S    
C21   H13   1.107441 S    
C103  C149  1.468971 S    
C136  H76   1.083081 S    
C13   C29   1.590743 S    
C160  H108  1.109200 S    
C24   H16   1.107484 S    
C15   N15   1.476524 S    
O43   C101  1.302143 A    
C132  C136  1.393489 A    
C54   C58   1.397104 A    
C23   C39   1.552527 S    
C98   C126  1.470730 S    
C71   C75   1.404392 A    
C78   H50   1.082873 S    
N1    O50   1.301480 A    
O21   C91   1.287132 A    
C130  H70   1.083262 S    
O39   C101  1.303235 A    
C159  H104  1.108294 S    
N9    O70   1.301304 A    
C120  C128  1.399606 A    
O20   Cu8   1.963222 S    
C10   H2    1.113530 S    
C83   H55   1.083132 S    
O13   Cu3   1.979672 S    
C84   H56   1.083123 S    
C41   C45   1.392138 A    
C155  H91   1.103527 S    
Cu12  O48   1.963108 S    
C154  H89   1.108996 S    
C83   C87   1.402620 A    
C110  H58   1.083145 S    
C141  C145  1.393560 A    
C60   H40   1.083646 S    
C143  C147  1.393557 A    
C79   H51   1.082875 S    
O5    C1    1.295722 A    
C104  C150  1.468971 S    
O36   Cu12  1.963355 S    
O44   C102  1.302137 A    
O48   C104  1.302112 A    
O8    C4    1.295663 A    
C158  H102  1.109198 S    
N14   O80   1.301638 A    
O15   Cu4   1.979672 S    
C157  H99   1.109201 S    
C57   H37   1.083658 S    
C133  C137  1.403761 A    
C74   C100  1.471273 S    
C38   H18   1.106906 S    
C2    C50   1.465114 S    
C31   C39   1.560207 S    
C130  C134  1.393489 A    
C56   C60   1.397098 A    
C164  H120  1.109201 S    
C33   H25   1.110558 S    
C160  H107  1.108234 S    
C162  H113  1.112631 S    
C49   C53   1.413562 A    
O14   C6    1.289686 A    
C51   C55   1.413560 A    
C82   C86   1.402644 A    
C40   H20   1.106900 S    
O92   C164  1.411909 S    
O1    Cu1   1.963682 S    
Cu7   O31   1.962949 S    
C73   C77   1.404748 A    
C32   C40   1.560373 S    
C59   H39   1.083657 S    
C62   C86   1.472537 S    
C117  H61   1.083348 S    
C118  C127  1.399601 A    
O10   C6    1.291206 A    
O9    C5    1.291236 A    
O27   C93   1.294862 A    
C144  C152  1.402121 A    
C20   N4    1.477482 S    
C41   H29   1.083095 S    
C107  C116  1.416789 A    
C43   H31   1.083095 S    
C132  C140  1.402218 A    
C123  C126  1.405672 A    
C16   H8    1.104162 S    
C57   C61   1.401847 A    
N10   O71   1.301478 A    
C43   C47   1.392138 A    
C95   C137  1.467766 S    
C34   H26   1.110610 S    
C155  H93   1.106829 S    
C40   H24   1.113461 S    
C76   C102  1.471270 S    
N13   O77   1.301590 A    
Cu11  Cu12  2.698639 S    
O47   C104  1.302104 A    
C148  H84   1.083037 S    
C67   C71   1.392949 A    
C68   C72   1.392970 A    
C50   C54   1.413549 A    
C66   H42   1.083139 S    
C158  H100  1.107280 S    
C119  C123  1.392984 A    
C133  H73   1.083083 S    
C157  H97   1.107322 S    
C121  H65   1.082821 S    
C31   C93   1.486272 S    
C135  H75   1.083086 S    
N4    O56   1.301450 A    
C106  N10   1.440850 S    
O22   C92   1.287193 A    
O20   C90   1.296191 A    
C153  H85   1.103533 S    
O23   C93   1.287139 A    
N7    O61   1.300623 A    
C105  C115  1.416791 A    
C15   C31   1.590726 S    
C38   H22   1.113458 S    
C156  H95   1.108995 S    
N2    O52   1.301449 A    
C42   H30   1.083091 S    
O12   Cu2   1.979439 S    
C106  C115  1.416786 A    
C146  H82   1.083036 S    
C18   C26   1.584934 S    
C80   H52   1.082873 S    
O1    C1    1.292354 A    
C163  H115  1.112632 S    
O36   C98   1.302758 A    
N11   O73   1.301485 A    
C21   C25   1.575000 S    
H11   C19   1.109007 S    
C29   C91   1.486281 S    
N5    O57   1.300627 A    
C30   C92   1.486194 S    
C109  H57   1.083147 S    
C24   C28   1.574817 S    
O7    C3    1.295715 A    
O67   C155  1.411975 S    
C144  C148  1.393560 A    
C164  H118  1.112633 S    
Cu5   O29   1.962949 S    
C70   C74   1.404389 A    
Cu9   Cu10  2.698639 S    
H9    C17   1.109012 S    
C118  C122  1.392979 A    
O18   Cu6   1.963222 S    
N12   O76   1.301308 A    
O39   Cu11  1.966416 S    
C105  N9    1.440845 S    
C35   H27   1.110561 S    
O44   Cu11  1.959266 S    
C9    C25   1.576363 S    
C123  H67   1.082823 S    
C22   C26   1.574800 S    
C11   H3    1.113534 S    
C12   C28   1.576401 S    
C22   O90   1.419174 S    
C112  H60   1.083147 S    
C23   O91   1.419224 S    
O89   C161  1.411916 S    
C111  C114  1.399380 A    
C141  H77   1.083275 S    
C67   C87   1.403041 A    
C142  C146  1.393560 A    
C130  C139  1.402215 A    
Cu2   Cu4   2.675840 S    
C117  C127  1.399607 A    
C65   C85   1.403036 A    
O6    C2    1.295658 A    
C107  N11   1.440849 S    
O91   C163  1.411915 S    
O90   C162  1.411908 S    
C47   C51   1.402550 A    
C69   C73   1.404394 A    
C109  C113  1.399385 A    
C161  H109  1.109195 S    
C108  C116  1.416787 A    
C154  H88   1.103482 S    
C72   C76   1.404390 A    
C36   O88   1.428027 S    
C39   H23   1.113477 S    
Cu7   Cu8   2.678059 S    
N16   O84   1.301637 A    
C29   C33   1.583919 S    
C142  C151  1.402123 A    
O42   Cu9   1.959266 S    
N6    O60   1.300826 A    
O2    Cu1   1.963719 S    
C31   C35   1.583892 S    
O10   Cu1   1.979439 S    
C81   H53   1.083131 S    
O35   Cu11  1.963386 S    
C131  C135  1.393482 A    
O27   Cu8   1.976554 S    
C52   C56   1.413552 A    
C14   N14   1.476474 S    
C16   C32   1.590561 S    
C9    C13   1.560695 S    
C119  C128  1.399606 A    
C120  C124  1.392979 A    
C80   C84   1.393082 A    
C1    C49   1.465326 S    
C77   H49   1.082874 S    
O25   Cu6   1.976554 S    
C64   C88   1.472525 S    
O26   Cu5   1.976555 S    
Cu9   O45   1.963076 S    
C135  C138  1.403761 A    
C24   C40   1.552656 S    
C12   O68   1.430804 S    
N1    O49   1.301540 A    
O15   C7    1.289591 A    
C163  H117  1.109196 S    
C44   H32   1.083091 S    
C76   C80   1.404760 A    
C73   C99   1.471215 S    
C162  H112  1.109201 S    
N9    O69   1.301484 A    
C75   C79   1.404752 A    
C90   C114  1.469518 S    
O38   Cu10  1.966416 S    
C155  H92   1.108995 S    
C14   H6    1.104163 S    
O45   C103  1.302104 A    
C124  C126  1.405674 A    
C21   O89   1.419231 S    
C106  C110  1.398498 A    
C143  C152  1.402115 A    
C29   C37   1.560190 S    
O28   Cu7   1.976555 S    
C60   C64   1.401897 A    
Cu10  O46   1.963108 S    
C158  H101  1.108230 S    
C78   C82   1.393082 A    
C112  C114  1.399384 A    
C35   O87   1.428001 S    
C77   C81   1.393085 A    
O11   C7    1.291232 A    
C97   C125  1.470733 S    
O12   C8    1.291211 A    
C13   H5    1.104136 S    
C42   C62   1.401690 A    
O9    Cu1   1.979409 S    
O40   C102  1.303265 A    
C68   H44   1.083142 S    
C36   H28   1.110606 S    
H10   C18   1.108950 S    
O19   C90   1.296189 A    
N7    O62   1.300820 A    
C117  C121  1.392981 A    
O16   C8    1.289675 A    
C134  H74   1.083082 S    
C140  C151  1.469463 S    
Cu11  O47   1.963076 S    
O11   Cu2   1.979409 S    
C15   H7    1.104140 S    
O41   C99   1.302143 A    
C34   O86   1.428031 S    
Cu6   O30   1.962906 S    
C146  C149  1.404081 A    
C23   H15   1.107447 S    
O31   C96   1.295636 A    
C5    C25   1.483338 S    
N8    O63   1.300619 A    
N11   O74   1.301305 A    
O22   Cu6   1.982468 S    
C55   N7    1.432267 S    
O6    Cu3   1.964888 S    
O26   C92   1.294767 A    
C8    C28   1.483438 S    
O37   C99   1.303231 A    
N15   O82   1.301622 A    
C58   H38   1.083645 S    
N10   O72   1.301307 A    
C3    C51   1.465314 S    
C147  H83   1.083032 S    
O41   Cu10  1.959266 S    
C19   C27   1.584659 S    
C145  C149  1.404085 A    
O2    C2    1.292308 A    
C159  H103  1.107319 S    
C44   C48   1.392138 A    
C122  H66   1.082820 S    
C65   C69   1.392949 A    
C14   C30   1.590547 S    
O29   C95   1.295636 A    
C21   C37   1.552511 S    
O14   Cu3   1.979637 S    
C144  H80   1.083276 S    
C70   H46   1.082877 S    
C154  H90   1.106885 S    
C55   C59   1.397033 A    
C53   C57   1.397032 A    
Cu1   Cu3   2.675840 S    
C118  H62   1.083347 S    
C108  N12   1.440848 S    
C147  C150  1.404087 A    
O24   Cu8   1.982468 S    
O33   C97   1.302768 A    
C10   C26   1.576408 S    
N14   O79   1.301577 A    
C11   C15   1.560710 S    
O37   Cu9   1.966416 S    
C12   C16   1.560860 S    
C157  H98   1.108301 S    
C139  C152  1.469463 S    
C58   C62   1.401900 A    
C84   C88   1.402641 A    
O18   C89   1.296192 A    
C142  H78   1.083274 S    
C53   N5    1.432262 S    
C43   C63   1.401648 A    
C66   C86   1.403079 A    
C42   C46   1.392135 A    
C45   H33   1.083685 S    
