data_mof_unit_pretest_1640.cif
_audit_creation_date              2012-12-10T21:39:39-0500
_audit_creation_method            fapswitch 2.2
_symmetry_space_group_name_H-M    P1
_symmetry_Int_Tables_number       1
_space_group_crystal_system       triclinic
_cell_length_a                    16.140351
_cell_length_b                    16.586647
_cell_length_c                    23.491725
_cell_angle_alpha                 90.956999
_cell_angle_beta                  89.477666
_cell_angle_gamma                 87.107439
_cell_volume                      6279.86955138

loop_
_atom_site_label
_atom_site_type_symbol
_atom_type_description
_atom_site_fract_x
_atom_site_fract_y
_atom_site_fract_z
_atom_type_partial_charge
C1    C     C_R   0.489067 0.653957 0.495503 0.987744
C2    C     C_R   0.510883 0.346850 0.506563 0.992861
C3    C     C_R   0.544662 0.441634 0.760792 -0.079843
C4    C     C_R   0.570674 0.541306 0.238900 -0.093947
C5    C     C_R   0.540167 0.437727 0.701180 0.178562
C6    C     C_R   0.562190 0.548326 0.298393 0.181526
C7    C     C_R   0.495997 0.499594 0.672216 -0.213250
C8    C     C_R   0.506934 0.499048 0.327050 -0.266883
C9    C     C_R   0.456504 0.564415 0.702484 0.127675
C10   C     C_R   0.455435 0.448894 0.295718 0.185193
C11   C     C_R   0.447952 0.560279 0.761402 0.318993
C12   C     C_R   0.452093 0.455123 0.236724 0.313841
C13   C     C_R   0.494904 0.500973 0.791087 0.049771
C14   C     C_R   0.512392 0.497817 0.207878 0.037995
C15   C     C_R   0.483254 0.741792 0.483558 -0.265702
C16   C     C_R   0.516453 0.260886 0.523162 -0.261487
C17   C     C_R   0.556864 0.784069 0.473333 0.215198
C18   C     C_R   0.443551 0.223372 0.541496 0.196005
C19   C     C_R   0.550733 0.867036 0.464422 0.262473
C20   C     C_R   0.445070 0.139622 0.546825 0.270492
C21   C     C_R   0.474945 0.910004 0.473278 0.107805
C22   C     C_R   0.518660 0.093811 0.535616 0.110028
C23   C     C_R   0.498305 0.500348 0.610403 0.984080
C24   C     C_R   0.502138 0.499950 0.389327 0.979243
C25   C     C_R   0.401047 0.869582 0.476941 -0.174229
C26   C     C_R   0.594220 0.131150 0.529845 -0.179790
C27   C     C_R   0.404693 0.784718 0.478953 0.229107
C28   C     C_R   0.593730 0.215430 0.524202 0.248661
C29   C     C_R   0.764280 0.477859 0.462085 0.021107
C30   C     C_R   0.234649 0.519473 0.537965 0.008458
C31   C     C_R   0.851164 0.487236 0.459557 -0.194113
C32   C     C_R   0.147962 0.508937 0.540030 -0.189744
C33   C     C_R   0.890536 0.524851 0.505790 0.224270
C34   C     C_R   0.109405 0.473226 0.492800 0.227255
C35   C     C_R   0.839743 0.560219 0.550080 -0.140486
C36   C     C_R   0.160992 0.440164 0.448229 -0.149656
C37   C     C_R   0.753232 0.550535 0.549902 0.018536
C38   C     C_R   0.247346 0.450626 0.449291 0.009038
C39   C     C_R   0.519638 0.427079 0.116814 0.648060
C40   C     C_R   0.518198 0.569649 0.880959 0.650474
C41   C     C_R   0.504103 0.571009 0.119510 0.578583
C42   C     C_R   0.472797 0.434852 0.880667 0.577308
C43   C     C_R   0.508096 0.572902 0.060278 -0.055600
C44   C     C_R   0.483586 0.430838 0.939354 -0.053790
C45   C     C_R   0.505018 0.499966 0.029319 -0.043130
C46   C     C_R   0.500428 0.501698 0.969719 -0.041176
C47   C     C_R   0.505952 0.425541 0.057833 -0.109599
C48   C     C_R   0.512431 0.574175 0.940637 -0.110181
C49   C     C_R   0.513510 0.645865 0.031651 -0.150621
C50   C     C_R   0.478199 0.357867 0.967960 -0.150481
C51   C     C_R   0.518664 0.647018 0.972409 0.320282
C52   C     C_R   0.492179 0.353831 0.026347 0.321898
H1    H     H_    0.515803 0.702324 0.055320 0.224298
H2    H     H_    0.465429 0.302975 0.944717 0.224254
H3    H     H_    0.714151 0.578321 0.583188 0.186189
H4    H     H_    0.286621 0.424322 0.415977 0.207580
N1    N     N_R   0.512606 0.498775 0.146717 -0.336065
N2    N     N_R   0.493999 0.502274 0.852265 -0.337836
N3    N     N_2   0.473927 0.993865 0.483792 -0.080062
N4    N     N_2   0.516687 0.010019 0.526072 -0.081267
N5    N     N_R   0.716910 0.509720 0.507000 -0.130562
N6    N     N_R   0.283090 0.490280 0.493000 -0.135518
N7    N     N_2   0.979388 0.529528 0.508339 -0.090381
N8    N     N_2   0.020664 0.468247 0.489737 -0.091226
O1    O     O_R   0.422540 0.612660 0.497490 -0.563302
O2    O     O_R   0.577460 0.387340 0.502510 -0.552164
O3    O     O_R   0.561840 0.618900 0.501990 -0.589950
O4    O     O_R   0.438160 0.381100 0.498010 -0.592033
O5    O     O_R   0.430330 0.496900 0.581600 -0.610748
O6    O     O_R   0.569670 0.503100 0.418400 -0.607605
O7    O     O_R   0.569640 0.503140 0.586090 -0.606527
O8    O     O_R   0.430360 0.496860 0.413910 -0.603592
O9    O     O_2   0.539655 0.358411 0.144504 -0.442816
O10   O     O_2   0.549115 0.630616 0.851568 -0.438331
O11   O     O_2   0.491998 0.640608 0.149734 -0.501605
O12   O     O_2   0.443225 0.371446 0.851926 -0.497140
Zn1   Zn    Zn3+2 0.406980 0.495830 0.497000 1.065628
Zn2   Zn    Zn3+2 0.593020 0.504170 0.503000 1.070695
Br1   Br    Br    0.301727 0.731223 0.468124 -0.298824
Br2   Br    Br    0.699661 0.265537 0.525741 -0.267266
C53   C     C_2   0.272536 0.559608 0.586331 1.054991
O13   O     O_2   0.297839 0.627081 0.580832 -0.506992
O14   O     O_R   0.272377 0.523032 0.639551 -0.764410
H5    H     H_    0.290297 0.559996 0.671327 0.374859
C54   C     C_2   0.724865 0.437003 0.413728 1.045826
O15   O     O_2   0.689626 0.374615 0.420894 -0.542384
O16   O     O_R   0.732411 0.467438 0.358895 -0.762425
H6    H     H_    0.704977 0.433128 0.329083 0.358165
C55   C     C_2   0.099636 0.529089 0.593253 1.018473
O17   O     O_2   0.052336 0.480644 0.612305 -0.552911
O18   O     O_R   0.109194 0.602498 0.622002 -0.744158
H7    H     H_    0.075385 0.607471 0.658588 0.370717
C56   C     C_2   0.898913 0.463364 0.406832 1.031475
O19   O     O_2   0.945414 0.510624 0.385419 -0.552822
O20   O     O_R   0.889409 0.387780 0.381122 -0.742981
H8    H     H_    0.921705 0.380600 0.344019 0.369353
C57   C     C_2   0.874757 0.610805 0.595582 0.991361
O21   O     O_2   0.842572 0.614241 0.642964 -0.567017
O22   O     O_R   0.942236 0.657574 0.583710 -0.737131
H9    H     H_    0.957750 0.692465 0.617421 0.376082
C58   C     C_2   0.127232 0.390756 0.401649 0.998429
O23   O     O_2   0.159141 0.390416 0.354206 -0.543989
O24   O     O_R   0.061516 0.341366 0.412581 -0.740313
H10   H     H_    0.047294 0.307086 0.378251 0.373059
Br3   Br    Br    0.525584 0.751920 0.939406 -0.240800
Br4   Br    Br    0.482780 0.249196 0.059309 -0.241498
C59   C     C_2   0.603076 0.386060 0.791492 1.038752
O25   O     O_2   0.650595 0.413345 0.826300 -0.592557
O26   O     O_R   0.602451 0.302702 0.781830 -0.691458
H11   H     H_    0.644557 0.271508 0.805798 0.371565
C60   C     C_2   0.640652 0.577573 0.208737 1.047003
O27   O     O_2   0.683043 0.536382 0.174786 -0.592798
O28   O     O_R   0.656621 0.658877 0.217472 -0.684612
H12   H     H_    0.705296 0.676144 0.193828 0.371536
Br5   Br    Br    0.598957 0.351428 0.658832 -0.353309
Br6   Br    Br    0.623372 0.627289 0.339723 -0.299972
Br7   Br    Br    0.428960 0.664994 0.665557 -0.310654
Br8   Br    Br    0.395982 0.364972 0.331500 -0.332985
Br9   Br    Br    0.370200 0.634553 0.800602 -0.279769
Br10  Br    Br    0.361988 0.408482 0.196128 -0.262995
Br11  Br    Br    0.342471 0.283613 0.565086 -0.306682
Br12  Br    Br    0.668657 0.734664 0.471174 -0.299159
Br13  Br    Br    0.347575 0.085846 0.570567 -0.272745
Br14  Br    Br    0.645093 0.924033 0.438684 -0.282181
C61   C     C_2   0.320479 0.916947 0.479649 1.073719
O29   O     O_2   0.308095 0.974234 0.448181 -0.546539
O30   O     O_R   0.259454 0.897275 0.518957 -0.694146
H13   H     H_    0.207750 0.934407 0.516917 0.379617
C62   C     C_2   0.673060 0.080899 0.528737 1.076235
O31   O     O_2   0.683760 0.026765 0.563036 -0.542691
O32   O     O_R   0.734257 0.094022 0.487880 -0.700268
H14   H     H_    0.784688 0.055532 0.491489 0.381492

loop_
_geom_bond_atom_site_label_1
_geom_bond_atom_site_label_2
_ccdc_geom_bond_type
C16   C28   A    
O16   H6    S    
C58   O23   D    
C8    C24   S    
O6    Zn2   S    
C9    Br7   S    
C23   O5    A    
N6    Zn1   S    
O5    Zn1   S    
O20   H8    S    
C11   Br9   S    
C42   N2    A    
C57   O21   D    
C24   O6    A    
C54   O15   D    
C50   H2    S    
C35   C37   A    
C21   N3    S    
C27   Br1   S    
C22   N4    S    
C49   H1    S    
C39   N1    A    
C18   C20   A    
C7    C9    A    
C25   C61   S    
C20   Br13  S    
C17   C19   A    
C12   Br10  S    
C2    O4    A    
C1    O1    A    
C48   C51   A    
O14   H5    S    
C49   C51   A    
C50   C52   A    
C59   O25   D    
C31   C33   A    
C1    C15   S    
C55   O18   S    
C2    C16   S    
C41   C43   A    
C29   C54   S    
C3    C13   A    
C51   Br3   S    
C45   C47   A    
C52   Br4   S    
N3    N4    D    
C58   O24   S    
C5    Br5   S    
C59   O26   S    
O3    Zn2   S    
C42   C44   A    
C57   O22   S    
C44   C46   A    
C53   O13   D    
C46   C48   A    
C54   O16   S    
O2    Zn2   S    
C29   N5    A    
C19   Br14  S    
O1    Zn1   S    
C23   O7    A    
C40   N2    A    
C4    C6    A    
O18   H7    S    
C5    C7    A    
C43   C49   A    
C6    C8    A    
C13   N2    S    
C3    C5    A    
C31   C56   S    
C36   C58   S    
C32   C34   A    
O8    Zn1   S    
C10   Br8   S    
C41   O11   S    
C9    C11   A    
C15   C27   A    
O22   H9    S    
N5    Zn2   S    
C33   N7    S    
C34   N8    S    
C60   O28   S    
C56   O19   D    
C43   C45   A    
C6    Br6   S    
C26   C62   S    
C10   C12   A    
C8    C10   A    
C4    C60   S    
C12   C14   A    
C30   N6    A    
C32   C55   S    
C61   O29   D    
O32   H14   S    
C24   O8    A    
C39   C47   A    
O28   H12   S    
C44   C50   A    
O4    Zn1   S    
C15   C17   A    
C14   N1    S    
C21   C25   A    
C40   C48   A    
C60   O27   D    
C19   C21   A    
C42   O12   S    
C20   C22   A    
C2    O2    A    
C53   O14   S    
C37   N5    A    
C47   C52   A    
C1    O3    A    
C25   C27   A    
C26   C28   A    
C3    C59   S    
C30   C53   S    
C36   C38   A    
C62   O31   D    
C41   N1    A    
C29   C31   A    
O26   H11   S    
C30   C32   A    
C11   C13   A    
C56   O20   S    
C7    C23   S    
C33   C35   A    
C40   O10   S    
C34   C36   A    
C39   O9    S    
C4    C14   A    
C28   Br2   S    
C18   Br11  S    
N7    N8    D    
C37   H3    S    
C45   C46   A    
C17   Br12  S    
C38   H4    S    
C16   C18   A    
C22   C26   A    
O24   H10   S    
C61   O30   S    
C38   N6    A    
C55   O17   D    
C35   C57   S    
O7    Zn2   S    
O30   H13   S    
C62   O32   S    
