data_mof_unit_pretest_1952.cif
_audit_creation_date              2013-03-05T15:41:04-0500
_audit_creation_method            fapswitch 2.2
_symmetry_space_group_name_H-M    P1
_symmetry_Int_Tables_number       1
_space_group_crystal_system       triclinic
_cell_length_a                    43.170174
_cell_length_b                    43.155876
_cell_length_c                    43.190176
_cell_angle_alpha                 90.00107
_cell_angle_beta                  89.99909
_cell_angle_gamma                 89.989424
_cell_volume                      80465.3124395

loop_
_atom_site_label
_atom_site_type_symbol
_atom_site_description
_atom_site_fract_x
_atom_site_fract_y
_atom_site_fract_z
_atom_type_partial_charge
O1    O     O_R   0.194520 0.495330 0.040070 -0.594865
O2    O     O_R   0.959930 0.504670 0.194520 -0.597114
O3    O     O_R   0.805480 0.495330 0.959930 -0.595228
O4    O     O_R   0.040070 0.504670 0.805480 -0.595424
O5    O     O_R   0.194520 0.504670 0.959930 -0.592904
O6    O     O_R   0.959930 0.495330 0.805480 -0.595938
O7    O     O_R   0.805480 0.504670 0.040070 -0.595266
O8    O     O_R   0.040070 0.495330 0.194520 -0.596338
O9    O     O_R   0.504670 0.040070 0.805480 -0.591134
O10   O     O_R   0.495330 0.194520 0.040070 -0.593158
O11   O     O_R   0.504670 0.959930 0.194520 -0.591116
O12   O     O_R   0.495330 0.805480 0.959930 -0.593148
O13   O     O_R   0.495330 0.959930 0.805480 -0.591125
O14   O     O_R   0.504670 0.805480 0.040070 -0.593196
O15   O     O_R   0.495330 0.040070 0.194520 -0.591051
O16   O     O_R   0.504670 0.194520 0.959930 -0.593178
O17   O     O_R   0.959930 0.805480 0.495330 -0.597345
O18   O     O_R   0.805480 0.040070 0.504670 -0.592526
O19   O     O_R   0.040070 0.194520 0.495330 -0.597226
O20   O     O_R   0.194520 0.959930 0.504670 -0.592390
O21   O     O_R   0.040070 0.805480 0.504670 -0.597438
O22   O     O_R   0.194520 0.040070 0.495330 -0.592430
O23   O     O_R   0.959930 0.194520 0.504670 -0.597247
O24   O     O_R   0.805480 0.959930 0.495330 -0.595949
O25   O     O_R   0.694520 0.995330 0.040070 -0.595253
O26   O     O_R   0.959930 0.004670 0.694520 -0.595661
O27   O     O_R   0.305480 0.995330 0.959930 -0.595274
O28   O     O_R   0.040070 0.004670 0.305480 -0.595702
O29   O     O_R   0.694520 0.004670 0.959930 -0.595288
O30   O     O_R   0.959930 0.995330 0.305480 -0.595548
O31   O     O_R   0.305480 0.004670 0.040070 -0.595273
O32   O     O_R   0.040070 0.995330 0.694520 -0.595650
O33   O     O_R   0.004670 0.040070 0.305480 -0.591105
O34   O     O_R   0.995330 0.694520 0.040070 -0.593357
O35   O     O_R   0.004670 0.959930 0.694520 -0.591085
O36   O     O_R   0.995330 0.305480 0.959930 -0.591255
O37   O     O_R   0.995330 0.959930 0.305480 -0.591153
O38   O     O_R   0.004670 0.305480 0.040070 -0.592842
O39   O     O_R   0.995330 0.040070 0.694520 -0.591071
O40   O     O_R   0.004670 0.694520 0.959930 -0.593108
O41   O     O_R   0.959930 0.305480 0.995330 -0.596144
O42   O     O_R   0.305480 0.040070 0.004670 -0.592425
O43   O     O_R   0.040070 0.694520 0.995330 -0.597687
O44   O     O_R   0.694520 0.959930 0.004670 -0.592394
O45   O     O_R   0.040070 0.305480 0.004670 -0.596886
O46   O     O_R   0.694520 0.040070 0.995330 -0.592381
O47   O     O_R   0.959930 0.694520 0.004670 -0.597387
O48   O     O_R   0.305480 0.959930 0.995330 -0.592420
O49   O     O_R   0.694520 0.495330 0.540070 -0.592079
O50   O     O_R   0.459930 0.504670 0.694520 -0.596853
O51   O     O_R   0.305480 0.495330 0.459930 -0.593278
O52   O     O_R   0.540070 0.504670 0.305480 -0.595534
O53   O     O_R   0.694520 0.504670 0.459930 -0.591431
O54   O     O_R   0.459930 0.495330 0.305480 -0.595529
O55   O     O_R   0.305480 0.504670 0.540070 -0.595295
O56   O     O_R   0.540070 0.495330 0.694520 -0.594684
O57   O     O_R   0.504670 0.540070 0.305480 -0.591128
O58   O     O_R   0.495330 0.694520 0.540070 -0.593295
O59   O     O_R   0.504670 0.459930 0.694520 -0.592063
O60   O     O_R   0.495330 0.305480 0.459930 -0.593088
O61   O     O_R   0.495330 0.459930 0.305480 -0.591120
O62   O     O_R   0.504670 0.305480 0.540070 -0.592812
O63   O     O_R   0.495330 0.540070 0.694520 -0.591706
O64   O     O_R   0.504670 0.694520 0.459930 -0.591607
O65   O     O_R   0.459930 0.305480 0.495330 -0.596078
O66   O     O_R   0.305480 0.540070 0.504670 -0.593628
O67   O     O_R   0.540070 0.694520 0.495330 -0.597318
O68   O     O_R   0.694520 0.459930 0.504670 -0.596054
O69   O     O_R   0.540070 0.305480 0.504670 -0.597216
O70   O     O_R   0.694520 0.540070 0.495330 -0.596196
O71   O     O_R   0.459930 0.694520 0.504670 -0.596182
O72   O     O_R   0.305480 0.459930 0.495330 -0.595962
O73   O     O_R   0.194520 0.995330 0.540070 -0.595292
O74   O     O_R   0.459930 0.004670 0.194520 -0.595655
O75   O     O_R   0.805480 0.995330 0.459930 -0.591835
O76   O     O_R   0.540070 0.004670 0.805480 -0.595671
O77   O     O_R   0.194520 0.004670 0.459930 -0.595273
O78   O     O_R   0.459930 0.995330 0.805480 -0.595696
O79   O     O_R   0.805480 0.004670 0.540070 -0.595273
O80   O     O_R   0.540070 0.995330 0.194520 -0.595866
O81   O     O_R   0.004670 0.540070 0.805480 -0.591173
O82   O     O_R   0.995330 0.194520 0.540070 -0.593140
O83   O     O_R   0.004670 0.459930 0.194520 -0.591395
O84   O     O_R   0.995330 0.805480 0.459930 -0.593094
O85   O     O_R   0.995330 0.459930 0.805480 -0.591040
O86   O     O_R   0.004670 0.805480 0.540070 -0.593223
O87   O     O_R   0.995330 0.540070 0.194520 -0.592937
O88   O     O_R   0.004670 0.194520 0.459930 -0.593137
O89   O     O_R   0.459930 0.805480 0.995330 -0.597230
O90   O     O_R   0.805480 0.540070 0.004670 -0.592375
O91   O     O_R   0.540070 0.194520 0.995330 -0.597454
O92   O     O_R   0.194520 0.459930 0.004670 -0.592890
O93   O     O_R   0.540070 0.805480 0.004670 -0.597468
O94   O     O_R   0.194520 0.540070 0.995330 -0.594836
O95   O     O_R   0.459930 0.194520 0.004670 -0.597495
O96   O     O_R   0.805480 0.459930 0.995330 -0.592381
O97   O     O_R   0.259400 0.459100 0.004040 -0.618834
O98   O     O_R   0.995960 0.540900 0.259400 -0.617115
O99   O     O_R   0.740600 0.459100 0.995960 -0.616765
O100  O     O_R   0.004040 0.540900 0.740600 -0.617753
O101  O     O_R   0.259400 0.540900 0.995960 -0.618393
O102  O     O_R   0.995960 0.459100 0.740600 -0.617182
O103  O     O_R   0.740600 0.540900 0.004040 -0.616765
O104  O     O_R   0.004040 0.459100 0.259400 -0.615369
O105  O     O_R   0.540900 0.004040 0.740600 -0.622359
O106  O     O_R   0.459100 0.259400 0.004040 -0.620819
O107  O     O_R   0.540900 0.995960 0.259400 -0.622116
O108  O     O_R   0.459100 0.740600 0.995960 -0.620973
O109  O     O_R   0.459100 0.995960 0.740600 -0.622475
O110  O     O_R   0.540900 0.740600 0.004040 -0.620798
O111  O     O_R   0.459100 0.004040 0.259400 -0.622360
O112  O     O_R   0.540900 0.259400 0.995960 -0.620715
O113  O     O_R   0.995960 0.740600 0.459100 -0.615931
O114  O     O_R   0.740600 0.004040 0.540900 -0.617551
O115  O     O_R   0.004040 0.259400 0.459100 -0.616021
O116  O     O_R   0.259400 0.995960 0.540900 -0.620892
O117  O     O_R   0.004040 0.740600 0.540900 -0.615450
O118  O     O_R   0.259400 0.004040 0.459100 -0.620867
O119  O     O_R   0.995960 0.259400 0.540900 -0.615956
O120  O     O_R   0.740600 0.995960 0.459100 -0.618928
O121  O     O_R   0.759400 0.959100 0.004040 -0.616781
O122  O     O_R   0.995960 0.040900 0.759400 -0.617792
O123  O     O_R   0.240600 0.959100 0.995960 -0.616833
O124  O     O_R   0.004040 0.040900 0.240600 -0.617844
O125  O     O_R   0.759400 0.040900 0.995960 -0.616774
O126  O     O_R   0.995960 0.959100 0.240600 -0.617835
O127  O     O_R   0.240600 0.040900 0.004040 -0.616850
O128  O     O_R   0.004040 0.959100 0.759400 -0.617796
O129  O     O_R   0.040900 0.004040 0.240600 -0.622477
O130  O     O_R   0.959100 0.759400 0.004040 -0.620688
O131  O     O_R   0.040900 0.995960 0.759400 -0.622440
O132  O     O_R   0.959100 0.240600 0.995960 -0.620702
O133  O     O_R   0.959100 0.995960 0.240600 -0.622390
O134  O     O_R   0.040900 0.240600 0.004040 -0.621886
O135  O     O_R   0.959100 0.004040 0.759400 -0.622437
O136  O     O_R   0.040900 0.759400 0.995960 -0.620796
O137  O     O_R   0.995960 0.240600 0.959100 -0.615395
O138  O     O_R   0.240600 0.004040 0.040900 -0.620869
O139  O     O_R   0.004040 0.759400 0.959100 -0.615310
O140  O     O_R   0.759400 0.995960 0.040900 -0.620848
O141  O     O_R   0.004040 0.240600 0.040900 -0.617068
O142  O     O_R   0.759400 0.004040 0.959100 -0.620881
O143  O     O_R   0.995960 0.759400 0.040900 -0.615338
O144  O     O_R   0.240600 0.995960 0.959100 -0.620872
O145  O     O_R   0.759400 0.459100 0.504040 -0.621955
O146  O     O_R   0.495960 0.540900 0.759400 -0.617438
O147  O     O_R   0.240600 0.459100 0.495960 -0.618405
O148  O     O_R   0.504040 0.540900 0.240600 -0.617757
O149  O     O_R   0.759400 0.540900 0.495960 -0.621775
O150  O     O_R   0.495960 0.459100 0.240600 -0.617854
O151  O     O_R   0.240600 0.540900 0.504040 -0.618181
O152  O     O_R   0.504040 0.459100 0.759400 -0.616167
O153  O     O_R   0.540900 0.504040 0.240600 -0.622401
O154  O     O_R   0.459100 0.759400 0.504040 -0.621784
O155  O     O_R   0.540900 0.495960 0.759400 -0.622336
O156  O     O_R   0.459100 0.240600 0.495960 -0.620790
O157  O     O_R   0.459100 0.495960 0.240600 -0.622273
O158  O     O_R   0.540900 0.240600 0.504040 -0.620774
O159  O     O_R   0.459100 0.504040 0.759400 -0.621919
O160  O     O_R   0.540900 0.759400 0.495960 -0.621050
O161  O     O_R   0.495960 0.240600 0.459100 -0.615400
O162  O     O_R   0.240600 0.504040 0.540900 -0.617602
O163  O     O_R   0.504040 0.759400 0.459100 -0.615948
O164  O     O_R   0.759400 0.495960 0.540900 -0.615645
O165  O     O_R   0.504040 0.240600 0.540900 -0.616921
O166  O     O_R   0.759400 0.504040 0.459100 -0.615921
O167  O     O_R   0.495960 0.759400 0.540900 -0.615821
O168  O     O_R   0.240600 0.495960 0.459100 -0.618825
O169  O     O_R   0.259400 0.959100 0.504040 -0.616797
O170  O     O_R   0.495960 0.040900 0.259400 -0.617731
O171  O     O_R   0.740600 0.959100 0.495960 -0.618420
O172  O     O_R   0.504040 0.040900 0.740600 -0.617883
O173  O     O_R   0.259400 0.040900 0.495960 -0.616843
O174  O     O_R   0.495960 0.959100 0.740600 -0.617801
O175  O     O_R   0.740600 0.040900 0.504040 -0.619906
O176  O     O_R   0.504040 0.959100 0.259400 -0.617208
O177  O     O_R   0.040900 0.504040 0.740600 -0.622183
O178  O     O_R   0.959100 0.259400 0.504040 -0.621177
O179  O     O_R   0.040900 0.495960 0.259400 -0.620873
O180  O     O_R   0.959100 0.740600 0.495960 -0.621174
O181  O     O_R   0.959100 0.495960 0.740600 -0.622060
O182  O     O_R   0.040900 0.740600 0.504040 -0.620849
O183  O     O_R   0.959100 0.504040 0.259400 -0.621972
O184  O     O_R   0.040900 0.259400 0.495960 -0.621061
O185  O     O_R   0.495960 0.740600 0.959100 -0.615952
O186  O     O_R   0.740600 0.504040 0.040900 -0.620843
O187  O     O_R   0.504040 0.259400 0.959100 -0.615360
O188  O     O_R   0.259400 0.495960 0.040900 -0.618457
O189  O     O_R   0.504040 0.740600 0.040900 -0.615383
O190  O     O_R   0.259400 0.504040 0.959100 -0.618888
O191  O     O_R   0.495960 0.259400 0.040900 -0.615306
O192  O     O_R   0.740600 0.495960 0.959100 -0.620823
C1    C     C_R   0.183913 0.470251 0.029755 0.905771
C2    C     C_R   0.970249 0.529759 0.183921 0.903703
C3    C     C_R   0.816087 0.470236 0.970257 0.905870
C4    C     C_R   0.029749 0.529757 0.816082 0.908780
C5    C     C_R   0.183913 0.529764 0.970258 0.905777
C6    C     C_R   0.970250 0.470242 0.816081 0.908114
C7    C     C_R   0.816088 0.529762 0.029742 0.905819
C8    C     C_R   0.029755 0.470249 0.183906 0.908710
C9    C     C_R   0.529750 0.029758 0.816081 0.908738
C10   C     C_R   0.470243 0.183910 0.029747 0.904152
C11   C     C_R   0.529750 0.970242 0.183919 0.908062
C12   C     C_R   0.470241 0.816089 0.970253 0.904781
C13   C     C_R   0.470250 0.970243 0.816081 0.908735
C14   C     C_R   0.529757 0.816090 0.029747 0.904122
C15   C     C_R   0.470251 0.029757 0.183918 0.908663
C16   C     C_R   0.529760 0.183911 0.970252 0.904205
C17   C     C_R   0.970241 0.816089 0.470253 0.904821
C18   C     C_R   0.816087 0.029761 0.529742 0.905708
C19   C     C_R   0.029759 0.183911 0.470253 0.904794
C20   C     C_R   0.183912 0.970238 0.529743 0.905863
C21   C     C_R   0.029757 0.816090 0.529747 0.904218
C22   C     C_R   0.183913 0.029764 0.470257 0.905878
C23   C     C_R   0.970243 0.183910 0.529747 0.904742
C24   C     C_R   0.816087 0.970236 0.470257 0.905811
C25   C     C_R   0.683912 0.970238 0.029742 0.905850
C26   C     C_R   0.970251 0.029757 0.683918 0.908651
C27   C     C_R   0.316087 0.970236 0.970257 0.905886
C28   C     C_R   0.029750 0.029758 0.316081 0.908713
C29   C     C_R   0.683913 0.029764 0.970257 0.905859
C30   C     C_R   0.970250 0.970243 0.316082 0.908789
C31   C     C_R   0.316088 0.029761 0.029742 0.905838
C32   C     C_R   0.029749 0.970243 0.683919 0.908658
C33   C     C_R   0.970243 0.683910 0.029747 0.904136
C34   C     C_R   0.970242 0.316091 0.970254 0.908654
C35   C     C_R   0.029753 0.316077 0.029754 0.903682
C36   C     C_R   0.029760 0.683912 0.970252 0.904097
C37   C     C_R   0.683920 0.470243 0.529749 0.906568
C38   C     C_R   0.470245 0.529754 0.683920 0.905707
C39   C     C_R   0.316086 0.470235 0.470257 0.903845
C40   C     C_R   0.529749 0.529757 0.316082 0.908726
C41   C     C_R   0.683913 0.529764 0.470258 0.906103
C42   C     C_R   0.470250 0.470243 0.316082 0.908717
C43   C     C_R   0.316092 0.529759 0.529746 0.906741
C44   C     C_R   0.529752 0.470246 0.683917 0.908954
C45   C     C_R   0.470240 0.683914 0.529744 0.903177
C46   C     C_R   0.470241 0.316089 0.470253 0.906323
C47   C     C_R   0.529754 0.316078 0.529752 0.903761
C48   C     C_R   0.529759 0.683910 0.470253 0.906693
C49   C     C_R   0.269647 0.470084 0.029882 0.840614
C50   C     C_R   0.969887 0.530141 0.269325 0.839783
C51   C     C_R   0.730353 0.470087 0.970117 0.840607
C52   C     C_R   0.030030 0.530045 0.730532 0.840711
C53   C     C_R   0.269651 0.529887 0.970097 0.840590
C54   C     C_R   0.969887 0.469858 0.730675 0.839703
C55   C     C_R   0.730354 0.529917 0.029884 0.840612
C56   C     C_R   0.030113 0.469859 0.269324 0.844272
C57   C     C_R   0.530030 0.030045 0.730532 0.840631
C58   C     C_R   0.469884 0.269323 0.030134 0.844101
C59   C     C_R   0.530112 0.969860 0.269326 0.839655
C60   C     C_R   0.469969 0.730534 0.969960 0.845044
C61   C     C_R   0.469970 0.969954 0.730532 0.840629
C62   C     C_R   0.530117 0.730677 0.030134 0.844067
C63   C     C_R   0.469971 0.030045 0.269468 0.840564
C64   C     C_R   0.530115 0.269323 0.969865 0.844106
C65   C     C_R   0.969969 0.730534 0.469960 0.844967
C66   C     C_R   0.730352 0.029915 0.529882 0.840621
C67   C     C_R   0.030031 0.269466 0.469961 0.844943
C68   C     C_R   0.269646 0.970083 0.529883 0.840645
C69   C     C_R   0.030116 0.730676 0.530134 0.844058
C70   C     C_R   0.269647 0.029913 0.470117 0.840614
C71   C     C_R   0.969967 0.269466 0.530039 0.844920
C72   C     C_R   0.730348 0.970113 0.470098 0.840635
C73   C     C_R   0.769646 0.970083 0.029884 0.840644
C74   C     C_R   0.969971 0.030045 0.769468 0.840504
C75   C     C_R   0.230353 0.970086 0.970117 0.840621
C76   C     C_R   0.030030 0.030045 0.230532 0.840541
C77   C     C_R   0.769647 0.029913 0.970117 0.840607
C78   C     C_R   0.969970 0.969954 0.230532 0.840634
C79   C     C_R   0.230354 0.029917 0.029884 0.840617
C80   C     C_R   0.030029 0.969955 0.769468 0.840502
C81   C     C_R   0.969883 0.769323 0.030135 0.844218
C82   C     C_R   0.969885 0.230677 0.969865 0.843985
C83   C     C_R   0.030116 0.230675 0.030133 0.839530
C84   C     C_R   0.030114 0.769323 0.969865 0.844137
C85   C     C_R   0.769651 0.470109 0.529903 0.840657
C86   C     C_R   0.469888 0.530140 0.769326 0.839607
C87   C     C_R   0.230348 0.470113 0.470098 0.840625
C88   C     C_R   0.530030 0.530045 0.230532 0.840584
C89   C     C_R   0.769650 0.529889 0.470096 0.840480
C90   C     C_R   0.469970 0.469954 0.230532 0.840602
C91   C     C_R   0.230353 0.529916 0.529882 0.843154
C92   C     C_R   0.530029 0.469955 0.769468 0.842778
C93   C     C_R   0.469884 0.769324 0.530134 0.841593
C94   C     C_R   0.469885 0.230677 0.469865 0.844075
C95   C     C_R   0.530116 0.230676 0.530134 0.841784
C96   C     C_R   0.530031 0.769466 0.469961 0.844957
Zn1   Zn    Zn3+2 0.227650 0.523950 0.023950 1.031401
Zn2   Zn    Zn3+2 0.976050 0.476050 0.227650 1.031736
Zn3   Zn    Zn3+2 0.772350 0.523950 0.976050 1.032134
Zn4   Zn    Zn3+2 0.023950 0.476050 0.772350 1.032207
Zn5   Zn    Zn3+2 0.227650 0.476050 0.976050 1.033227
Zn6   Zn    Zn3+2 0.976050 0.523950 0.772350 1.031184
Zn7   Zn    Zn3+2 0.772350 0.476050 0.023950 1.032091
Zn8   Zn    Zn3+2 0.023950 0.523950 0.227650 1.031114
Zn9   Zn    Zn3+2 0.476050 0.023950 0.772350 1.030805
Zn10  Zn    Zn3+2 0.523950 0.227650 0.023950 1.032066
Zn11  Zn    Zn3+2 0.476050 0.976050 0.227650 1.031175
Zn12  Zn    Zn3+2 0.523950 0.772350 0.976050 1.031770
Zn13  Zn    Zn3+2 0.523950 0.976050 0.772350 1.031057
Zn14  Zn    Zn3+2 0.476050 0.772350 0.023950 1.032209
Zn15  Zn    Zn3+2 0.523950 0.023950 0.227650 1.030853
Zn16  Zn    Zn3+2 0.476050 0.227650 0.976050 1.031818
Zn17  Zn    Zn3+2 0.976050 0.772350 0.523950 1.031555
Zn18  Zn    Zn3+2 0.772350 0.023950 0.476050 1.032927
Zn19  Zn    Zn3+2 0.023950 0.227650 0.523950 1.031937
Zn20  Zn    Zn3+2 0.227650 0.976050 0.476050 1.031827
Zn21  Zn    Zn3+2 0.023950 0.772350 0.476050 1.031650
Zn22  Zn    Zn3+2 0.227650 0.023950 0.523950 1.031691
Zn23  Zn    Zn3+2 0.976050 0.227650 0.476050 1.031714
Zn24  Zn    Zn3+2 0.772350 0.976050 0.523950 1.030902
Zn25  Zn    Zn3+2 0.727650 0.023950 0.023950 1.032013
Zn26  Zn    Zn3+2 0.976050 0.976050 0.727650 1.030855
Zn27  Zn    Zn3+2 0.272350 0.023950 0.976050 1.031677
Zn28  Zn    Zn3+2 0.023950 0.976050 0.272350 1.030882
Zn29  Zn    Zn3+2 0.727650 0.976050 0.976050 1.031906
Zn30  Zn    Zn3+2 0.976050 0.023950 0.272350 1.031188
Zn31  Zn    Zn3+2 0.272350 0.976050 0.023950 1.031704
Zn32  Zn    Zn3+2 0.023950 0.023950 0.727650 1.030885
Zn33  Zn    Zn3+2 0.023950 0.727650 0.023950 1.031397
Zn34  Zn    Zn3+2 0.023950 0.272350 0.976050 1.032407
Zn35  Zn    Zn3+2 0.976050 0.272350 0.023950 1.031947
Zn36  Zn    Zn3+2 0.976050 0.727650 0.976050 1.032071
Zn37  Zn    Zn3+2 0.727650 0.523950 0.523950 1.031830
Zn38  Zn    Zn3+2 0.476050 0.476050 0.727650 1.031267
Zn39  Zn    Zn3+2 0.272350 0.523950 0.476050 1.033139
Zn40  Zn    Zn3+2 0.523950 0.476050 0.272350 1.031427
Zn41  Zn    Zn3+2 0.727650 0.476050 0.476050 1.031892
Zn42  Zn    Zn3+2 0.476050 0.523950 0.272350 1.031679
Zn43  Zn    Zn3+2 0.272350 0.476050 0.523950 1.031279
Zn44  Zn    Zn3+2 0.523950 0.523950 0.727650 1.031621
Zn45  Zn    Zn3+2 0.523950 0.727650 0.523950 1.031555
Zn46  Zn    Zn3+2 0.523950 0.272350 0.476050 1.031796
Zn47  Zn    Zn3+2 0.476050 0.272350 0.523950 1.031584
Zn48  Zn    Zn3+2 0.476050 0.727650 0.476050 1.032489
C97   C     C_R   0.452763 0.452527 0.207122 -0.035122
C98   C     C_R   0.793759 0.546581 0.453186 -0.031990
C99   C     C_R   0.547236 0.452528 0.792882 -0.035149
C100  C     C_R   0.206251 0.546842 0.546572 -0.031083
C101  C     C_R   0.452408 0.547963 0.792226 -0.034098
C102  C     C_R   0.793757 0.453412 0.546818 -0.031877
C103  C     C_R   0.547237 0.547472 0.207122 -0.035141
C104  C     C_R   0.206234 0.453426 0.453191 -0.030410
C105  C     C_R   0.547605 0.207783 0.547960 -0.034991
C106  C     C_R   0.547243 0.792877 0.452535 -0.036092
C107  C     C_R   0.452393 0.792215 0.547962 -0.034348
C108  C     C_R   0.452398 0.207785 0.452041 -0.035154
C109  C     C_R   0.952762 0.952527 0.207123 -0.035045
C110  C     C_R   0.793751 0.046836 0.953430 -0.032541
C111  C     C_R   0.047234 0.952530 0.792885 -0.034906
C112  C     C_R   0.206254 0.046845 0.046578 -0.032489
C113  C     C_R   0.952764 0.047471 0.792884 -0.034912
C114  C     C_R   0.793745 0.953154 0.046578 -0.032605
C115  C     C_R   0.047237 0.047472 0.207122 -0.034887
C116  C     C_R   0.206248 0.953165 0.953431 -0.032516
C117  C     C_R   0.047606 0.207784 0.047961 -0.034012
C118  C     C_R   0.047600 0.792217 0.952043 -0.035236
C119  C     C_R   0.952392 0.792212 0.047964 -0.035359
C120  C     C_R   0.952398 0.207785 0.952041 -0.035312
C121  C     C_R   0.952403 0.452033 0.707784 -0.034090
C122  C     C_R   0.293765 0.546574 0.953191 -0.030356
C123  C     C_R   0.047593 0.452035 0.292223 -0.035327
C124  C     C_R   0.706255 0.546846 0.046578 -0.032613
C125  C     C_R   0.952405 0.547966 0.292222 -0.033975
C126  C     C_R   0.293751 0.453159 0.046571 -0.030334
C127  C     C_R   0.047238 0.547473 0.707122 -0.035206
C128  C     C_R   0.706248 0.453165 0.953430 -0.032637
C129  C     C_R   0.547607 0.707786 0.047962 -0.035357
C130  C     C_R   0.452763 0.952527 0.707123 -0.034991
C131  C     C_R   0.547601 0.292216 0.952042 -0.035305
C132  C     C_R   0.452764 0.047472 0.292883 -0.034911
C133  C     C_R   0.452394 0.292215 0.047962 -0.035294
C134  C     C_R   0.547237 0.047472 0.707122 -0.034938
C135  C     C_R   0.452756 0.707125 0.952534 -0.036209
C136  C     C_R   0.547591 0.952039 0.292227 -0.033926
C137  C     C_R   0.293751 0.046836 0.453429 -0.032511
C138  C     C_R   0.047605 0.707784 0.547960 -0.035275
C139  C     C_R   0.706234 0.953427 0.453193 -0.030272
C140  C     C_R   0.952749 0.292873 0.547471 -0.036152
C141  C     C_R   0.706249 0.046841 0.546571 -0.030757
C142  C     C_R   0.952755 0.707126 0.452533 -0.035999
C143  C     C_R   0.293745 0.953155 0.546577 -0.032522
C144  C     C_R   0.047243 0.292878 0.452536 -0.036177
C145  C     C_R   0.403427 0.403038 0.136649 0.070814
C146  C     C_R   0.865324 0.595016 0.404277 0.072883
C147  C     C_R   0.596564 0.403044 0.863375 0.070965
C148  C     C_R   0.134667 0.595712 0.595035 0.072916
C149  C     C_R   0.402502 0.598041 0.861906 0.069695
C150  C     C_R   0.865301 0.404967 0.595766 0.072850
C151  C     C_R   0.596574 0.596971 0.136656 0.070930
C152  C     C_R   0.134661 0.405001 0.404290 0.072859
C153  C     C_R   0.597513 0.138139 0.598097 0.070134
C154  C     C_R   0.596571 0.863360 0.403033 0.071325
C155  C     C_R   0.402478 0.861852 0.598108 0.070082
C156  C     C_R   0.402489 0.138130 0.401933 0.070153
C157  C     C_R   0.903422 0.903030 0.136657 0.070889
C158  C     C_R   0.865337 0.095709 0.904989 0.072839
C159  C     C_R   0.096561 0.903047 0.863379 0.070853
C160  C     C_R   0.134674 0.095720 0.095046 0.072743
C161  C     C_R   0.903433 0.096959 0.863375 0.070847
C162  C     C_R   0.865322 0.904278 0.095047 0.072855
C163  C     C_R   0.096574 0.096970 0.136656 0.071082
C164  C     C_R   0.134658 0.904296 0.904992 0.072831
C165  C     C_R   0.097519 0.138148 0.098108 0.069906
C166  C     C_R   0.097504 0.861877 0.901937 0.070189
C167  C     C_R   0.902474 0.861848 0.098112 0.070185
C168  C     C_R   0.902490 0.138128 0.901934 0.070206
C169  C     C_R   0.902481 0.401934 0.638141 0.069640
C170  C     C_R   0.365337 0.595001 0.904291 0.072762
C171  C     C_R   0.097495 0.401960 0.361906 0.069948
C172  C     C_R   0.634676 0.595723 0.095047 0.072835
C173  C     C_R   0.902493 0.598056 0.361893 0.069570
C174  C     C_R   0.365335 0.404292 0.095033 0.072726
C175  C     C_R   0.096573 0.596966 0.636651 0.070844
C176  C     C_R   0.634659 0.404295 0.904990 0.072956
C177  C     C_R   0.597521 0.638151 0.098110 0.070241
C178  C     C_R   0.403424 0.903033 0.636655 0.071013
C179  C     C_R   0.597506 0.361875 0.901935 0.070000
C180  C     C_R   0.403432 0.096960 0.363373 0.070805
C181  C     C_R   0.402483 0.361860 0.098099 0.070213
C182  C     C_R   0.596570 0.096964 0.636649 0.070895
C183  C     C_R   0.403423 0.636645 0.903030 0.071379
C184  C     C_R   0.597492 0.901964 0.361911 0.069687
C185  C     C_R   0.365336 0.095710 0.404988 0.072852
C186  C     C_R   0.097515 0.638141 0.598099 0.070128
C187  C     C_R   0.634659 0.905003 0.404294 0.072751
C188  C     C_R   0.903402 0.363324 0.597022 0.071513
C189  C     C_R   0.634664 0.095709 0.595033 0.072648
C190  C     C_R   0.903418 0.636654 0.403021 0.071398
C191  C     C_R   0.365325 0.904282 0.595045 0.072766
C192  C     C_R   0.096572 0.363359 0.403031 0.071147
C193  C     C_R   0.074128 0.614034 0.925832 -0.129840
C194  C     C_R   0.072312 0.388015 0.072478 -0.139040
C195  C     C_R   0.925876 0.614025 0.074146 -0.130102
C196  C     C_R   0.925879 0.385972 0.925838 -0.129839
C197  C     C_R   0.387013 0.926634 0.926819 -0.138777
C198  C     C_R   0.612990 0.073367 0.926817 -0.138751
C199  C     C_R   0.387026 0.073356 0.073156 -0.138769
C200  C     C_R   0.612978 0.926639 0.073159 -0.138724
C201  C     C_R   0.072308 0.927539 0.611978 -0.138822
C202  C     C_R   0.927690 0.927535 0.388008 -0.138797
C203  C     C_R   0.927696 0.072456 0.611975 -0.138828
C204  C     C_R   0.072313 0.072465 0.388006 -0.138845
C205  C     C_R   0.574128 0.114033 0.925833 -0.129937
C206  C     C_R   0.074119 0.885980 0.574140 -0.129964
C207  C     C_R   0.425884 0.114017 0.074138 -0.129979
C208  C     C_R   0.925876 0.885969 0.425835 -0.129845
C209  C     C_R   0.574121 0.885979 0.074142 -0.129952
C210  C     C_R   0.074125 0.114030 0.425836 -0.129938
C211  C     C_R   0.425877 0.885970 0.925836 -0.129956
C212  C     C_R   0.925887 0.114014 0.574136 -0.129975
C213  C     C_R   0.887014 0.926634 0.426820 -0.138801
C214  C     C_R   0.112989 0.573367 0.926819 -0.138732
C215  C     C_R   0.887027 0.073354 0.573154 -0.138788
C216  C     C_R   0.112977 0.426857 0.073371 -0.138839
C217  C     C_R   0.112988 0.073364 0.426819 -0.138772
C218  C     C_R   0.887014 0.426635 0.926820 -0.138682
C219  C     C_R   0.112977 0.926641 0.573157 -0.138751
C220  C     C_R   0.887018 0.573364 0.073163 -0.138880
C221  C     C_R   0.074117 0.425874 0.114011 -0.129978
C222  C     C_R   0.427688 0.927534 0.888006 -0.138851
C223  C     C_R   0.927683 0.572470 0.111989 -0.139199
C224  C     C_R   0.572315 0.072467 0.888004 -0.138837
C225  C     C_R   0.927689 0.427534 0.888006 -0.138772
C226  C     C_R   0.572311 0.927536 0.111982 -0.138812
C227  C     C_R   0.072313 0.572466 0.888006 -0.138707
C228  C     C_R   0.427695 0.072458 0.111976 -0.138826
C229  C     C_R   0.574123 0.614028 0.425838 -0.129807
C230  C     C_R   0.573288 0.386912 0.573363 -0.138163
C231  C     C_R   0.426632 0.612977 0.573159 -0.138891
C232  C     C_R   0.425875 0.385967 0.425834 -0.129867
C233  C     C_R   0.387011 0.426631 0.426818 -0.138881
C234  C     C_R   0.612985 0.573362 0.426822 -0.138731
C235  C     C_R   0.385982 0.574109 0.574141 -0.129938
C236  C     C_R   0.613083 0.426651 0.573287 -0.138119
C237  C     C_R   0.573354 0.426728 0.613074 -0.138300
C238  C     C_R   0.427689 0.427533 0.388006 -0.138663
C239  C     C_R   0.427526 0.572301 0.611983 -0.138979
C240  C     C_R   0.572309 0.572461 0.388010 -0.138821
C241  C     C_R   0.414137 0.374460 0.125621 -0.204302
C242  C     C_R   0.878885 0.621303 0.417702 -0.208885
C243  C     C_R   0.585854 0.374473 0.874410 -0.203909
C244  C     C_R   0.122679 0.623668 0.583556 -0.199325
C245  C     C_R   0.414144 0.625594 0.874486 -0.204381
C246  C     C_R   0.878862 0.378675 0.582346 -0.208699
C247  C     C_R   0.585862 0.625548 0.125628 -0.204269
C248  C     C_R   0.121105 0.378711 0.417712 -0.208401
C249  C     C_R   0.622676 0.123665 0.583554 -0.200000
C250  C     C_R   0.378895 0.417735 0.121298 -0.208432
C251  C     C_R   0.621104 0.878711 0.417714 -0.208497
C252  C     C_R   0.377339 0.583490 0.876370 -0.199877
C253  C     C_R   0.377310 0.876322 0.583569 -0.199588
C254  C     C_R   0.621109 0.582277 0.121307 -0.208715
C255  C     C_R   0.377324 0.123661 0.416473 -0.199782
C256  C     C_R   0.621094 0.417736 0.878723 -0.208912
C257  C     C_R   0.877324 0.583509 0.376353 -0.199847
C258  C     C_R   0.585858 0.125540 0.625619 -0.204871
C259  C     C_R   0.122659 0.416511 0.376369 -0.199849
C260  C     C_R   0.414135 0.874455 0.625627 -0.204755
C261  C     C_R   0.121107 0.582271 0.621301 -0.208502
C262  C     C_R   0.414141 0.125532 0.374407 -0.204467
C263  C     C_R   0.877306 0.416481 0.623684 -0.199594
C264  C     C_R   0.585850 0.874412 0.374490 -0.204382
C265  C     C_R   0.914132 0.874452 0.125630 -0.204312
C266  C     C_R   0.877325 0.123661 0.916474 -0.199617
C267  C     C_R   0.085850 0.874476 0.874413 -0.204435
C268  C     C_R   0.122688 0.123679 0.083570 -0.199764
C269  C     C_R   0.914143 0.125530 0.874409 -0.204375
C270  C     C_R   0.877307 0.876318 0.083573 -0.199581
C271  C     C_R   0.085861 0.125546 0.125627 -0.205060
C272  C     C_R   0.122669 0.876345 0.916476 -0.199758
C273  C     C_R   0.878888 0.917725 0.121308 -0.208802
C274  C     C_R   0.878902 0.082267 0.878723 -0.208869
C275  C     C_R   0.121109 0.082275 0.121307 -0.208854
C276  C     C_R   0.121092 0.917739 0.878727 -0.208872
C277  C     C_R   0.914129 0.374379 0.625561 -0.204276
C278  C     C_R   0.378891 0.621293 0.917712 -0.208415
C279  C     C_R   0.085852 0.374409 0.374487 -0.203623
C280  C     C_R   0.622690 0.623683 0.083572 -0.199492
C281  C     C_R   0.914138 0.625605 0.374476 -0.204396
C282  C     C_R   0.377321 0.376334 0.083555 -0.199805
C283  C     C_R   0.085860 0.625542 0.625621 -0.204187
C284  C     C_R   0.622671 0.376344 0.916475 -0.199573
C285  C     C_R   0.378890 0.917728 0.621306 -0.208796
C286  C     C_R   0.378901 0.082268 0.378721 -0.208963
C287  C     C_R   0.621104 0.082268 0.621299 -0.208530
C288  C     C_R   0.622655 0.916515 0.376374 -0.200011
H1    H     H_    0.432608 0.362616 0.137765 0.132657
H2    H     H_    0.871468 0.628757 0.440456 0.127872
H3    H     H_    0.567384 0.362632 0.862266 0.132917
H4    H     H_    0.132111 0.633452 0.562528 0.125497
H5    H     H_    0.432613 0.637748 0.862654 0.132571
H6    H     H_    0.871443 0.371218 0.559594 0.127907
H7    H     H_    0.567385 0.637388 0.137769 0.132663
H8    H     H_    0.128525 0.371254 0.440464 0.128264
H9    H     H_    0.632108 0.133449 0.562525 0.125232
H10   H     H_    0.371477 0.440511 0.128737 0.128317
H11   H     H_    0.628525 0.871253 0.440465 0.128229
H12   H     H_    0.367915 0.562438 0.866604 0.125240
H13   H     H_    0.367874 0.866532 0.562546 0.125390
H14   H     H_    0.628525 0.559500 0.128744 0.127975
H15   H     H_    0.367891 0.133448 0.437501 0.125323
H16   H     H_    0.628509 0.440509 0.871280 0.127897
H17   H     H_    0.867895 0.562462 0.366580 0.125294
H18   H     H_    0.567385 0.137383 0.637763 0.132359
H19   H     H_    0.132084 0.437562 0.366601 0.125250
H20   H     H_    0.432610 0.862614 0.637769 0.132438
H21   H     H_    0.128527 0.559496 0.628740 0.128254
H22   H     H_    0.432610 0.137372 0.362262 0.132637
H23   H     H_    0.867877 0.437534 0.633451 0.125363
H24   H     H_    0.567381 0.862258 0.362659 0.132646
H25   H     H_    0.932607 0.862611 0.137772 0.132649
H26   H     H_    0.867891 0.133448 0.937501 0.125395
H27   H     H_    0.067380 0.862636 0.862269 0.132638
H28   H     H_    0.132124 0.133467 0.062546 0.125344
H29   H     H_    0.932613 0.137370 0.862264 0.132649
H30   H     H_    0.867871 0.866527 0.062550 0.125404
H31   H     H_    0.067386 0.137387 0.137769 0.132302
H32   H     H_    0.132104 0.866557 0.937503 0.125322
H33   H     H_    0.871474 0.940503 0.128744 0.127958
H34   H     H_    0.871488 0.059494 0.871279 0.127933
H35   H     H_    0.128524 0.059498 0.128744 0.127942
H36   H     H_    0.128507 0.940511 0.871283 0.127930
H37   H     H_    0.932608 0.362227 0.637385 0.132660
H38   H     H_    0.371470 0.628751 0.940464 0.128269
H39   H     H_    0.067382 0.362255 0.362657 0.133001
H40   H     H_    0.632127 0.633473 0.062549 0.125412
H41   H     H_    0.932609 0.637758 0.362647 0.132656
H42   H     H_    0.367890 0.366550 0.062527 0.125316
H43   H     H_    0.067387 0.637385 0.637764 0.132667
H44   H     H_    0.632104 0.366557 0.937502 0.125404
H45   H     H_    0.371475 0.940505 0.628743 0.127937
H46   H     H_    0.371487 0.059495 0.371278 0.127920
H47   H     H_    0.628523 0.059493 0.628738 0.128298
H48   H     H_    0.632080 0.937567 0.366608 0.125180
C289  C     C_R   0.059836 0.600037 0.900126 0.227318
C290  C     C_R   0.098916 0.401185 0.059057 0.231611
C291  C     C_R   0.940159 0.600034 0.099864 0.227423
C292  C     C_R   0.899161 0.399012 0.939180 0.227702
C293  C     C_R   0.059835 0.400142 0.100026 0.227674
C294  C     C_R   0.100846 0.600994 0.939174 0.227529
C295  C     C_R   0.940170 0.399967 0.900129 0.227753
C296  C     C_R   0.899166 0.600982 0.060797 0.227444
C297  C     C_R   0.399159 0.899010 0.939177 0.227442
C298  C     C_R   0.598925 0.059034 0.901168 0.231520
C299  C     C_R   0.399171 0.100977 0.060792 0.227467
C300  C     C_R   0.598916 0.940967 0.098815 0.231506
C301  C     C_R   0.600845 0.100993 0.939175 0.227445
C302  C     C_R   0.401077 0.940966 0.901169 0.231524
C303  C     C_R   0.600833 0.899019 0.060794 0.227482
C304  C     C_R   0.401089 0.059028 0.098811 0.231512
C305  C     C_R   0.098914 0.940969 0.598813 0.231517
C306  C     C_R   0.940169 0.899965 0.400128 0.227313
C307  C     C_R   0.901090 0.059027 0.598810 0.231525
C308  C     C_R   0.059834 0.100034 0.400127 0.227380
C309  C     C_R   0.901080 0.940968 0.401173 0.231424
C310  C     C_R   0.059832 0.899974 0.599855 0.227419
C311  C     C_R   0.098924 0.059032 0.401169 0.231525
C312  C     C_R   0.940173 0.100020 0.599850 0.227374
C313  C     C_R   0.559837 0.100037 0.900125 0.227410
C314  C     C_R   0.100832 0.899020 0.560793 0.227463
C315  C     C_R   0.440171 0.100022 0.099852 0.227386
C316  C     C_R   0.899158 0.899008 0.439177 0.227590
C317  C     C_R   0.559835 0.899972 0.099858 0.227416
C318  C     C_R   0.100843 0.100990 0.439177 0.227452
C319  C     C_R   0.440168 0.899966 0.900128 0.227388
C320  C     C_R   0.899174 0.100973 0.560790 0.227464
C321  C     C_R   0.098922 0.559032 0.901171 0.231406
C322  C     C_R   0.100829 0.439233 0.100973 0.227790
C323  C     C_R   0.901077 0.440966 0.901169 0.231769
C324  C     C_R   0.901078 0.559039 0.098822 0.231491
C325  C     C_R   0.559831 0.600031 0.400131 0.227455
C326  C     C_R   0.599951 0.399970 0.559953 0.231304
C327  C     C_R   0.440952 0.598913 0.598815 0.231364
C328  C     C_R   0.399155 0.399005 0.439174 0.227770
C329  C     C_R   0.559941 0.400055 0.600022 0.231335
C330  C     C_R   0.600841 0.600989 0.439179 0.227638
C331  C     C_R   0.440168 0.399964 0.400127 0.227364
C332  C     C_R   0.399022 0.600829 0.560794 0.227392
C333  C     C_R   0.598919 0.559029 0.401174 0.231570
C334  C     C_R   0.600022 0.440079 0.599938 0.231335
C335  C     C_R   0.401077 0.440965 0.401170 0.231388
C336  C     C_R   0.399969 0.559820 0.599859 0.227700
C337  C     C_R   0.452550 0.416855 0.163945 -0.163449
C338  C     C_R   0.817921 0.594779 0.437751 -0.159778
C339  C     C_R   0.547443 0.416870 0.836070 -0.163432
C340  C     C_R   0.160960 0.579868 0.545799 -0.163950
C341  C     C_R   0.451829 0.583633 0.835367 -0.162320
C342  C     C_R   0.817901 0.405210 0.562290 -0.159605
C343  C     C_R   0.547449 0.583145 0.163947 -0.163401
C344  C     C_R   0.182079 0.405232 0.437738 -0.159310
C345  C     C_R   0.596547 0.185452 0.564089 -0.161188
C346  C     C_R   0.404166 0.438092 0.183011 -0.160475
C347  C     C_R   0.595842 0.816955 0.438048 -0.159807
C348  C     C_R   0.403468 0.564018 0.814618 -0.161422
C349  C     C_R   0.403449 0.814540 0.564098 -0.160674
C350  C     C_R   0.595834 0.561915 0.183016 -0.160744
C351  C     C_R   0.403456 0.185445 0.435942 -0.160277
C352  C     C_R   0.595830 0.438082 0.817002 -0.160160
C353  C     C_R   0.839003 0.545767 0.420125 -0.165230
C354  C     C_R   0.548184 0.164652 0.583650 -0.162151
C355  C     C_R   0.160971 0.454250 0.420159 -0.164503
C356  C     C_R   0.451810 0.835347 0.583654 -0.161774
C357  C     C_R   0.182094 0.562250 0.594755 -0.159107
C358  C     C_R   0.451817 0.164643 0.416362 -0.161782
C359  C     C_R   0.838990 0.454221 0.579892 -0.165044
C360  C     C_R   0.547450 0.836074 0.416878 -0.162963
C361  C     C_R   0.952548 0.916853 0.163947 -0.163606
C362  C     C_R   0.839016 0.079883 0.954215 -0.164890
C363  C     C_R   0.047440 0.916875 0.836075 -0.163621
C364  C     C_R   0.160982 0.079897 0.045810 -0.165049
C365  C     C_R   0.952555 0.083129 0.836073 -0.163620
C366  C     C_R   0.839013 0.920097 0.045811 -0.164881
C367  C     C_R   0.047449 0.083144 0.163947 -0.163683
C368  C     C_R   0.160981 0.920121 0.954218 -0.164995
C369  C     C_R   0.096549 0.185459 0.064095 -0.161292
C370  C     C_R   0.904164 0.938088 0.183016 -0.160775
C371  C     C_R   0.096541 0.814560 0.935942 -0.160293
C372  C     C_R   0.904169 0.061919 0.817002 -0.160970
C373  C     C_R   0.903446 0.814534 0.064102 -0.160060
C374  C     C_R   0.095834 0.061915 0.183017 -0.161130
C375  C     C_R   0.903456 0.185444 0.935942 -0.160042
C376  C     C_R   0.095828 0.938085 0.817006 -0.160989
C377  C     C_R   0.817928 0.062231 0.905255 -0.160060
C378  C     C_R   0.048188 0.164655 0.083655 -0.162299
C379  C     C_R   0.182068 0.937773 0.905257 -0.160159
C380  C     C_R   0.951807 0.835343 0.083658 -0.161607
C381  C     C_R   0.182087 0.062233 0.094762 -0.160262
C382  C     C_R   0.951818 0.164641 0.916363 -0.161647
C383  C     C_R   0.817912 0.937770 0.094762 -0.159951
C384  C     C_R   0.048178 0.835362 0.916368 -0.161614
C385  C     C_R   0.951816 0.416346 0.664657 -0.161983
C386  C     C_R   0.317918 0.594769 0.937739 -0.159427
C387  C     C_R   0.048170 0.416368 0.335365 -0.161626
C388  C     C_R   0.660986 0.579902 0.045811 -0.164824
C389  C     C_R   0.951822 0.583642 0.335359 -0.162334
C390  C     C_R   0.339040 0.420132 0.045796 -0.164402
C391  C     C_R   0.047449 0.583146 0.663947 -0.163566
C392  C     C_R   0.660981 0.420121 0.954216 -0.164933
C393  C     C_R   0.596551 0.685465 0.064102 -0.160050
C394  C     C_R   0.404165 0.938088 0.683016 -0.161077
C395  C     C_R   0.596542 0.314559 0.935942 -0.159979
C396  C     C_R   0.404168 0.061919 0.317001 -0.160999
C397  C     C_R   0.403451 0.314545 0.064092 -0.160293
C398  C     C_R   0.595833 0.061911 0.683011 -0.160873
C399  C     C_R   0.404156 0.683048 0.938048 -0.159650
C400  C     C_R   0.596528 0.935986 0.314623 -0.161469
C401  C     C_R   0.317927 0.062231 0.405255 -0.160149
C402  C     C_R   0.048185 0.664652 0.583650 -0.161609
C403  C     C_R   0.660967 0.954251 0.420165 -0.164712
C404  C     C_R   0.952532 0.336057 0.583145 -0.162809
C405  C     C_R   0.682090 0.062246 0.594754 -0.160086
C406  C     C_R   0.952543 0.663932 0.416870 -0.163221
C407  C     C_R   0.317913 0.937770 0.594762 -0.160167
C408  C     C_R   0.047451 0.336075 0.416878 -0.162774
C409  C     C_R   0.452550 0.916856 0.663945 -0.163508
C410  C     C_R   0.339016 0.079883 0.454215 -0.165023
C411  C     C_R   0.548166 0.916372 0.335369 -0.162262
C412  C     C_R   0.660958 0.079865 0.545797 -0.164534
C413  C     C_R   0.452554 0.083133 0.336070 -0.163849
C414  C     C_R   0.339016 0.920102 0.545809 -0.164909
C415  C     C_R   0.547447 0.083143 0.663945 -0.163557
C416  C     C_R   0.682078 0.905233 0.437738 -0.159615
C417  C     C_R   0.096548 0.685455 0.564092 -0.160088
C418  C     C_R   0.903459 0.435976 0.685416 -0.161200
C419  C     C_R   0.095842 0.316956 0.438048 -0.159453
C420  C     C_R   0.903463 0.564028 0.314606 -0.161342
C421  C     C_R   0.904142 0.316926 0.561999 -0.159885
C422  C     C_R   0.095834 0.561912 0.683012 -0.160391
C423  C     C_R   0.904154 0.683054 0.438044 -0.160037
C424  C     C_R   0.096532 0.435980 0.314615 -0.160227
C425  C     C_R   0.339030 0.545752 0.920161 -0.164621
C426  C     C_R   0.548189 0.664655 0.083653 -0.161349
C427  C     C_R   0.682069 0.437772 0.905256 -0.159807
C428  C     C_R   0.451812 0.335347 0.083653 -0.161673
C429  C     C_R   0.682087 0.562234 0.094763 -0.159935
C430  C     C_R   0.452546 0.663929 0.916874 -0.162976
C431  C     C_R   0.317911 0.437758 0.094753 -0.159541
C432  C     C_R   0.548180 0.335359 0.916365 -0.161660
C433  C     C_R   0.468663 0.433121 0.186583 -0.177374
C434  C     C_R   0.795067 0.578991 0.454194 -0.177827
C435  C     C_R   0.531334 0.433134 0.813425 -0.176936
C436  C     C_R   0.184302 0.564131 0.530101 -0.179802
C437  C     C_R   0.468181 0.566917 0.813243 -0.178286
C438  C     C_R   0.795057 0.421001 0.545830 -0.177765
C439  C     C_R   0.531336 0.566876 0.186583 -0.177231
C440  C     C_R   0.204938 0.421016 0.454177 -0.176080
C441  C     C_R   0.580049 0.207121 0.546678 -0.176242
C442  C     C_R   0.420430 0.454954 0.205243 -0.178214
C443  C     C_R   0.579579 0.794725 0.454922 -0.173576
C444  C     C_R   0.419965 0.546638 0.792928 -0.179007
C445  C     C_R   0.419949 0.792873 0.546683 -0.176750
C446  C     C_R   0.579570 0.545050 0.205246 -0.178523
C447  C     C_R   0.419954 0.207120 0.453339 -0.173996
C448  C     C_R   0.579569 0.454943 0.794763 -0.176802
C449  C     C_R   0.815674 0.530079 0.435881 -0.178784
C450  C     C_R   0.531830 0.186754 0.566903 -0.178602
C451  C     C_R   0.184303 0.469934 0.435914 -0.180022
C452  C     C_R   0.468166 0.813247 0.566904 -0.177365
C453  C     C_R   0.204963 0.545829 0.578959 -0.173471
C454  C     C_R   0.468171 0.186752 0.433095 -0.177773
C455  C     C_R   0.815670 0.469912 0.564119 -0.178536
C456  C     C_R   0.531339 0.813439 0.433156 -0.177027
C457  C     C_R   0.968662 0.933121 0.186584 -0.177487
C458  C     C_R   0.815676 0.064145 0.969905 -0.179089
C459  C     C_R   0.031331 0.933139 0.813429 -0.177496
C460  C     C_R   0.184323 0.064160 0.030110 -0.179334
C461  C     C_R   0.968666 0.066864 0.813428 -0.177490
C462  C     C_R   0.815674 0.935834 0.030111 -0.179129
C463  C     C_R   0.031336 0.066876 0.186583 -0.177605
C464  C     C_R   0.184323 0.935856 0.969907 -0.179215
C465  C     C_R   0.080050 0.207124 0.046680 -0.178794
C466  C     C_R   0.920429 0.954952 0.205246 -0.178570
C467  C     C_R   0.080044 0.792883 0.953338 -0.173877
C468  C     C_R   0.920431 0.045057 0.794763 -0.178782
C469  C     C_R   0.919947 0.792868 0.046687 -0.173691
C470  C     C_R   0.079571 0.045051 0.205247 -0.178777
C471  C     C_R   0.919954 0.207120 0.953339 -0.173846
C472  C     C_R   0.079567 0.954945 0.794766 -0.178782
C473  C     C_R   0.795062 0.045806 0.921045 -0.177283
C474  C     C_R   0.031833 0.186755 0.066905 -0.178319
C475  C     C_R   0.204936 0.954195 0.921046 -0.177350
C476  C     C_R   0.968163 0.813244 0.066907 -0.177670
C477  C     C_R   0.204952 0.045810 0.078963 -0.177315
C478  C     C_R   0.968171 0.186751 0.933097 -0.177487
C479  C     C_R   0.795048 0.954193 0.078963 -0.177145
C480  C     C_R   0.031826 0.813251 0.933100 -0.177679
C481  C     C_R   0.968172 0.433068 0.686769 -0.177696
C482  C     C_R   0.295059 0.578985 0.954177 -0.176183
C483  C     C_R   0.031819 0.433083 0.313240 -0.177507
C484  C     C_R   0.684325 0.564164 0.030111 -0.179114
C485  C     C_R   0.968176 0.566922 0.313239 -0.178463
C486  C     C_R   0.315698 0.435867 0.030099 -0.180050
C487  C     C_R   0.031337 0.566879 0.686585 -0.177600
C488  C     C_R   0.684322 0.435856 0.969906 -0.179030
C489  C     C_R   0.580052 0.707131 0.046687 -0.173659
C490  C     C_R   0.420429 0.954951 0.705247 -0.178790
C491  C     C_R   0.580045 0.292883 0.953339 -0.173677
C492  C     C_R   0.420431 0.045057 0.294763 -0.178819
C493  C     C_R   0.419949 0.292876 0.046680 -0.173948
C494  C     C_R   0.579570 0.045048 0.705243 -0.178531
C495  C     C_R   0.420420 0.705278 0.954922 -0.173258
C496  C     C_R   0.580033 0.953365 0.292931 -0.179356
C497  C     C_R   0.295062 0.045806 0.421045 -0.177344
C498  C     C_R   0.031831 0.686754 0.566902 -0.177477
C499  C     C_R   0.684300 0.969936 0.435919 -0.180164
C500  C     C_R   0.968650 0.313435 0.566848 -0.176710
C501  C     C_R   0.704960 0.045827 0.578957 -0.175862
C502  C     C_R   0.968657 0.686564 0.433151 -0.177326
C503  C     C_R   0.295048 0.954193 0.578962 -0.177279
C504  C     C_R   0.031339 0.313440 0.433157 -0.176732
C505  C     C_R   0.468663 0.933123 0.686582 -0.177417
C506  C     C_R   0.315676 0.064145 0.469905 -0.179210
C507  C     C_R   0.531816 0.933085 0.313244 -0.177994
C508  C     C_R   0.684300 0.064129 0.530099 -0.180712
C509  C     C_R   0.468665 0.066867 0.313426 -0.177895
C510  C     C_R   0.315676 0.935837 0.530110 -0.179224
C511  C     C_R   0.531336 0.066876 0.686583 -0.177549
C512  C     C_R   0.704938 0.921016 0.454176 -0.176367
C513  C     C_R   0.080049 0.707124 0.546680 -0.173824
C514  C     C_R   0.919960 0.453363 0.707093 -0.179091
C515  C     C_R   0.079579 0.294726 0.454922 -0.173245
C516  C     C_R   0.919962 0.546644 0.292920 -0.178976
C517  C     C_R   0.920411 0.294708 0.545106 -0.173562
C518  C     C_R   0.079571 0.545048 0.705244 -0.178264
C519  C     C_R   0.920419 0.705281 0.454920 -0.173750
C520  C     C_R   0.080036 0.453359 0.292924 -0.174275
C521  C     C_R   0.315699 0.530066 0.935915 -0.180069
C522  C     C_R   0.531834 0.686754 0.066902 -0.177195
C523  C     C_R   0.704936 0.454195 0.921045 -0.177126
C524  C     C_R   0.468167 0.313244 0.066905 -0.177698
C525  C     C_R   0.704952 0.545810 0.078963 -0.177113
C526  C     C_R   0.468659 0.686563 0.933153 -0.177141
C527  C     C_R   0.295041 0.454177 0.078957 -0.176110
C528  C     C_R   0.531827 0.313249 0.933098 -0.177716
C529  C     C_1   0.045219 0.545261 0.840651 -0.088220
C530  C     C_1   0.159636 0.454556 0.045525 -0.090082
C531  C     C_1   0.954776 0.545265 0.159350 -0.090840
C532  C     C_1   0.840360 0.454459 0.954560 -0.089928
C533  C     C_1   0.045744 0.454290 0.159935 -0.092387
C534  C     C_1   0.159640 0.545542 0.954561 -0.090066
C535  C     C_1   0.954780 0.454739 0.840650 -0.088168
C536  C     C_1   0.840363 0.545536 0.045436 -0.090007
C537  C     C_1   0.454241 0.840052 0.954287 -0.094846
C538  C     C_1   0.545220 0.045261 0.840650 -0.088610
C539  C     C_1   0.454248 0.159943 0.045707 -0.094709
C540  C     C_1   0.545220 0.954739 0.159346 -0.088369
C541  C     C_1   0.545761 0.159950 0.954285 -0.094687
C542  C     C_1   0.454780 0.954739 0.840651 -0.088634
C543  C     C_1   0.545754 0.840056 0.045709 -0.094660
C544  C     C_1   0.454782 0.045258 0.159343 -0.088585
C545  C     C_1   0.159635 0.954466 0.545434 -0.090076
C546  C     C_1   0.954241 0.840051 0.454286 -0.094972
C547  C     C_1   0.840366 0.045533 0.545433 -0.090124
C548  C     C_1   0.045759 0.159948 0.454286 -0.094812
C549  C     C_1   0.840360 0.954459 0.454561 -0.090180
C550  C     C_1   0.045753 0.840056 0.545708 -0.094711
C551  C     C_1   0.159640 0.045540 0.454560 -0.090104
C552  C     C_1   0.954249 0.159941 0.545706 -0.094832
C553  C     C_1   0.545218 0.545259 0.340653 -0.088316
C554  C     C_1   0.659676 0.454484 0.545490 -0.090327
C555  C     C_1   0.454741 0.545225 0.659348 -0.089608
C556  C     C_1   0.340358 0.454457 0.454559 -0.091231
C557  C     C_1   0.545506 0.454505 0.659669 -0.088609
C558  C     C_1   0.659639 0.545540 0.454562 -0.089956
C559  C     C_1   0.454781 0.454740 0.340651 -0.088273
C560  C     C_1   0.340061 0.545752 0.545704 -0.094318
C561  C     C_1   0.454240 0.340051 0.454286 -0.093527
C562  C     C_1   0.454465 0.659639 0.545439 -0.090419
C563  C     C_1   0.545758 0.659947 0.454287 -0.093740
C564  C     C_1   0.545503 0.340318 0.545512 -0.090721
C565  C     C_1   0.045220 0.045261 0.340651 -0.088605
C566  C     C_1   0.659636 0.954465 0.045435 -0.090001
C567  C     C_1   0.954783 0.045258 0.659343 -0.088588
C568  C     C_1   0.340360 0.954459 0.954560 -0.090112
C569  C     C_1   0.045219 0.954740 0.659344 -0.088584
C570  C     C_1   0.659641 0.045541 0.954560 -0.090031
C571  C     C_1   0.954781 0.954740 0.340652 -0.088454
C572  C     C_1   0.340365 0.045533 0.045434 -0.090119
C573  C     C_1   0.954243 0.340054 0.954288 -0.091764
C574  C     C_1   0.954245 0.659945 0.045710 -0.094938
C575  C     C_1   0.045761 0.659951 0.954284 -0.094953
C576  C     C_1   0.045229 0.340646 0.045260 -0.090248
C577  C     C_1   0.057814 0.557915 0.861898 0.157821
C578  C     C_1   0.138721 0.441721 0.058508 0.162743
C579  C     C_1   0.942180 0.557921 0.138102 0.156886
C580  C     C_1   0.861273 0.441493 0.941698 0.163065
C581  C     C_1   0.058946 0.441116 0.139366 0.166809
C582  C     C_1   0.138728 0.558508 0.941698 0.162856
C583  C     C_1   0.942186 0.442084 0.861897 0.157463
C584  C     C_1   0.861277 0.558504 0.058289 0.163119
C585  C     C_1   0.441046 0.860616 0.941090 0.165360
C586  C     C_1   0.557816 0.057916 0.861896 0.157617
C587  C     C_1   0.441052 0.139374 0.058893 0.165370
C588  C     C_1   0.557815 0.942084 0.138096 0.157622
C589  C     C_1   0.558957 0.139387 0.941087 0.165329
C590  C     C_1   0.442186 0.942084 0.861897 0.157591
C591  C     C_1   0.558951 0.860622 0.058895 0.165347
C592  C     C_1   0.442190 0.057911 0.138091 0.157618
C593  C     C_1   0.138720 0.941498 0.558286 0.163154
C594  C     C_1   0.941046 0.860615 0.441089 0.165484
C595  C     C_1   0.861283 0.058498 0.558284 0.163090
C596  C     C_1   0.058955 0.139384 0.441090 0.165364
C597  C     C_1   0.861273 0.941492 0.441699 0.162823
C598  C     C_1   0.058950 0.860623 0.558894 0.165361
C599  C     C_1   0.138728 0.058506 0.441698 0.163089
C600  C     C_1   0.941054 0.139372 0.558890 0.165403
C601  C     C_1   0.557812 0.557913 0.361900 0.157579
C602  C     C_1   0.638791 0.441540 0.558404 0.161745
C603  C     C_1   0.442077 0.557810 0.638098 0.157259
C604  C     C_1   0.361270 0.441490 0.441697 0.162236
C605  C     C_1   0.558461 0.441606 0.638781 0.162120
C606  C     C_1   0.638726 0.558505 0.441700 0.162959
C607  C     C_1   0.442186 0.442084 0.361898 0.157837
C608  C     C_1   0.360628 0.558942 0.558892 0.166026
C609  C     C_1   0.441045 0.360613 0.441088 0.166111
C610  C     C_1   0.441491 0.638723 0.558288 0.162271
C611  C     C_1   0.558953 0.639383 0.441091 0.166134
C612  C     C_1   0.558409 0.361202 0.558470 0.161523
C613  C     C_1   0.057815 0.057915 0.361897 0.157601
C614  C     C_1   0.638721 0.941498 0.058286 0.163175
C615  C     C_1   0.942190 0.057910 0.638091 0.157620
C616  C     C_1   0.361272 0.941493 0.941698 0.163082
C617  C     C_1   0.057813 0.942087 0.638093 0.157625
C618  C     C_1   0.638729 0.058507 0.941697 0.163122
C619  C     C_1   0.942187 0.942085 0.361899 0.157707
C620  C     C_1   0.361282 0.058500 0.058285 0.163133
C621  C     C_1   0.941049 0.360618 0.941092 0.166988
C622  C     C_1   0.941047 0.639379 0.058897 0.165086
C623  C     C_1   0.058958 0.639388 0.941087 0.165321
C624  C     C_1   0.057818 0.361896 0.057926 0.156798
C625  C     C_R   0.420102 0.419084 0.161915 0.126252
C626  C     C_R   0.840290 0.578324 0.420703 0.123804
C627  C     C_R   0.579891 0.419087 0.838102 0.126214
C628  C     C_R   0.159695 0.579284 0.578333 0.123806
C629  C     C_R   0.419264 0.582383 0.836394 0.124365
C630  C     C_R   0.840269 0.421663 0.579334 0.123813
C631  C     C_R   0.579897 0.580922 0.161920 0.126215
C632  C     C_R   0.159696 0.421692 0.420715 0.123961
C633  C     C_R   0.580751 0.163659 0.582440 0.124068
C634  C     C_R   0.579900 0.838078 0.419070 0.125758
C635  C     C_R   0.419243 0.836335 0.582448 0.123940
C636  C     C_R   0.419250 0.163648 0.417588 0.123850
C637  C     C_R   0.920100 0.919079 0.161920 0.126327
C638  C     C_R   0.840305 0.079283 0.921683 0.123947
C639  C     C_R   0.079888 0.919091 0.838107 0.126429
C640  C     C_R   0.159702 0.079291 0.078343 0.123935
C641  C     C_R   0.920107 0.080913 0.838103 0.126427
C642  C     C_R   0.840295 0.920707 0.078344 0.123889
C643  C     C_R   0.079897 0.080921 0.161920 0.126416
C644  C     C_R   0.159691 0.920721 0.921685 0.123965
C645  C     C_R   0.080755 0.163666 0.082448 0.124366
C646  C     C_R   0.080744 0.836357 0.917591 0.123774
C647  C     C_R   0.919240 0.836330 0.082452 0.123671
C648  C     C_R   0.919251 0.163647 0.917589 0.123661
C649  C     C_R   0.919249 0.417600 0.663641 0.124305
C650  C     C_R   0.340303 0.578310 0.920717 0.123926
C651  C     C_R   0.080735 0.417617 0.336392 0.123812
C652  C     C_R   0.659705 0.579294 0.078344 0.123870
C653  C     C_R   0.919256 0.582395 0.336383 0.124556
C654  C     C_R   0.340308 0.420721 0.078330 0.124082
C655  C     C_R   0.079897 0.580920 0.661917 0.126279
C656  C     C_R   0.659691 0.420721 0.921684 0.123824
C657  C     C_R   0.580756 0.663669 0.082450 0.123529
C658  C     C_R   0.420102 0.919081 0.661919 0.126339
C659  C     C_R   0.580746 0.336356 0.917589 0.123726
C660  C     C_R   0.420106 0.080915 0.338101 0.126546
C661  C     C_R   0.419246 0.336339 0.082442 0.123724
C662  C     C_R   0.579895 0.080918 0.661916 0.126414
C663  C     C_R   0.420096 0.661926 0.919067 0.125647
C664  C     C_R   0.580732 0.917622 0.336398 0.124485
C665  C     C_R   0.340305 0.079283 0.421682 0.123961
C666  C     C_R   0.080752 0.663661 0.582441 0.123578
C667  C     C_R   0.659693 0.921693 0.420719 0.124018
C668  C     C_R   0.920080 0.338048 0.580975 0.125580
C669  C     C_R   0.659691 0.079280 0.578331 0.124158
C670  C     C_R   0.920093 0.661932 0.419062 0.125844
C671  C     C_R   0.340297 0.920710 0.578342 0.123940
C672  C     C_R   0.079900 0.338078 0.419069 0.125611
H49   H     H_    0.493663 0.431145 0.187516 0.154784
H50   H     H_    0.778109 0.592092 0.467253 0.157659
H51   H     H_    0.506333 0.431167 0.812491 0.154529
H52   H     H_    0.184762 0.564853 0.505030 0.150012
H53   H     H_    0.493249 0.568111 0.813141 0.153526
H54   H     H_    0.778099 0.407903 0.532776 0.157462
H55   H     H_    0.506335 0.568848 0.187513 0.154963
H56   H     H_    0.221908 0.407911 0.467215 0.157723
H57   H     H_    0.592620 0.223571 0.532503 0.160310
H58   H     H_    0.407733 0.469584 0.221192 0.158694
H59   H     H_    0.592277 0.778754 0.469527 0.161119
H60   H     H_    0.407392 0.532450 0.776494 0.158287
H61   H     H_    0.407379 0.776422 0.532510 0.159135
H62   H     H_    0.592268 0.530423 0.221195 0.158587
H63   H     H_    0.407383 0.223572 0.467517 0.160951
H64   H     H_    0.592267 0.469562 0.778811 0.159101
H65   H     H_    0.815196 0.504989 0.435154 0.153044
H66   H     H_    0.506760 0.186830 0.568067 0.153400
H67   H     H_    0.184772 0.495025 0.435209 0.149989
H68   H     H_    0.493236 0.813175 0.568065 0.153635
H69   H     H_    0.221945 0.532778 0.592036 0.159309
H70   H     H_    0.493240 0.186827 0.431920 0.153255
H71   H     H_    0.815196 0.495002 0.564832 0.153041
H72   H     H_    0.506336 0.812528 0.431210 0.154671
H73   H     H_    0.993663 0.931146 0.187514 0.154731
H74   H     H_    0.815198 0.064886 0.994975 0.153147
H75   H     H_    0.006330 0.931173 0.812496 0.154741
H76   H     H_    0.184794 0.064904 0.005041 0.153086
H77   H     H_    0.993667 0.068829 0.812496 0.154737
H78   H     H_    0.815202 0.935087 0.005042 0.153132
H79   H     H_    0.006335 0.068848 0.187513 0.154727
H80   H     H_    0.184802 0.935116 0.994976 0.153107
H81   H     H_    0.092620 0.223574 0.032505 0.158245
H82   H     H_    0.907732 0.969581 0.221196 0.158562
H83   H     H_    0.092617 0.776430 0.967514 0.160959
H84   H     H_    0.907733 0.030439 0.778810 0.158344
H85   H     H_    0.907378 0.776416 0.032513 0.161179
H86   H     H_    0.092268 0.030424 0.221197 0.158329
H87   H     H_    0.907383 0.223573 0.967516 0.161156
H88   H     H_    0.092266 0.969562 0.778813 0.158337
H89   H     H_    0.778099 0.032741 0.907964 0.158579
H90   H     H_    0.006763 0.186828 0.068068 0.153418
H91   H     H_    0.221899 0.967260 0.907964 0.158552
H92   H     H_    0.993233 0.813173 0.068068 0.153380
H93   H     H_    0.221921 0.032739 0.092037 0.158554
H94   H     H_    0.993241 0.186826 0.931921 0.153442
H95   H     H_    0.778081 0.967268 0.092037 0.158696
H96   H     H_    0.006756 0.813175 0.931927 0.153410
H97   H     H_    0.993241 0.431869 0.686862 0.153754
H98   H     H_    0.278087 0.592089 0.967214 0.157683
H99   H     H_    0.006751 0.431890 0.313140 0.153455
H100  H     H_    0.684797 0.564909 0.005042 0.153161
H101  H     H_    0.993244 0.568115 0.313141 0.153275
H102  H     H_    0.315236 0.435141 0.005028 0.149981
H103  H     H_    0.006336 0.568853 0.687517 0.154677
H104  H     H_    0.684801 0.435116 0.994975 0.153162
H105  H     H_    0.592622 0.723584 0.032515 0.161184
H106  H     H_    0.407733 0.969579 0.721197 0.158331
H107  H     H_    0.592617 0.276431 0.967516 0.161193
H108  H     H_    0.407733 0.030437 0.278811 0.158334
H109  H     H_    0.407379 0.276425 0.032506 0.161080
H110  H     H_    0.592268 0.030420 0.721192 0.158384
H111  H     H_    0.407723 0.721249 0.969530 0.161364
H112  H     H_    0.592608 0.967551 0.276497 0.157902
H113  H     H_    0.278099 0.032741 0.407963 0.158559
H114  H     H_    0.006761 0.686828 0.568064 0.153480
H115  H     H_    0.684768 0.995027 0.435215 0.149911
H116  H     H_    0.993655 0.312532 0.568779 0.154918
H117  H     H_    0.721941 0.032775 0.592035 0.158444
H118  H     H_    0.993660 0.687473 0.431203 0.154509
H119  H     H_    0.278080 0.967266 0.592037 0.158564
H120  H     H_    0.006336 0.312529 0.431210 0.154770
H121  H     H_    0.493664 0.931149 0.687512 0.154887
H122  H     H_    0.315198 0.064886 0.494974 0.153098
H123  H     H_    0.506748 0.931891 0.313141 0.153539
H124  H     H_    0.684761 0.064851 0.505028 0.149963
H125  H     H_    0.493665 0.068834 0.312493 0.154498
H126  H     H_    0.315204 0.935092 0.505041 0.153118
H127  H     H_    0.506335 0.068850 0.687515 0.154708
H128  H     H_    0.721910 0.907911 0.467212 0.157536
H129  H     H_    0.092620 0.723575 0.532507 0.161202
H130  H     H_    0.907389 0.467558 0.723527 0.158005
H131  H     H_    0.092277 0.278755 0.469528 0.161381
H132  H     H_    0.907390 0.532455 0.276486 0.157987
H133  H     H_    0.907715 0.278736 0.530503 0.161256
H134  H     H_    0.092268 0.530419 0.721192 0.158702
H135  H     H_    0.907722 0.721252 0.469529 0.161093
H136  H     H_    0.092610 0.467544 0.276489 0.160848
H137  H     H_    0.315232 0.504975 0.935210 0.149967
H138  H     H_    0.506764 0.686824 0.068061 0.153701
H139  H     H_    0.721900 0.467260 0.907964 0.158760
H140  H     H_    0.493237 0.313170 0.068069 0.153422
H141  H     H_    0.721919 0.532737 0.092037 0.158710
H142  H     H_    0.493662 0.687473 0.931205 0.154657
H143  H     H_    0.278061 0.467232 0.092034 0.157617
H144  H     H_    0.506757 0.313173 0.931923 0.153285
H145  H     H_    0.465693 0.403191 0.147538 0.126869
H146  H     H_    0.817973 0.619861 0.438274 0.135669
H147  H     H_    0.534299 0.403216 0.852480 0.126629
H148  H     H_    0.143608 0.591950 0.532336 0.131605
H149  H     H_    0.464892 0.596716 0.852296 0.127023
H150  H     H_    0.817949 0.380128 0.561782 0.135687
H151  H     H_    0.534305 0.596808 0.147539 0.127072
H152  H     H_    0.182033 0.380149 0.438243 0.135896
H153  H     H_    0.621593 0.185649 0.562987 0.138332
H154  H     H_    0.379169 0.439986 0.182309 0.134663
H155  H     H_    0.620841 0.817638 0.439912 0.135271
H156  H     H_    0.378424 0.562885 0.814446 0.137829
H157  H     H_    0.378403 0.814338 0.562998 0.138370
H158  H     H_    0.620832 0.560026 0.182316 0.134545
H159  H     H_    0.378410 0.185642 0.437057 0.138672
H160  H     H_    0.620827 0.439967 0.817706 0.134787
H161  H     H_    0.856330 0.532276 0.408035 0.132249
H162  H     H_    0.535124 0.147708 0.596724 0.126984
H163  H     H_    0.143633 0.467741 0.408086 0.131578
H164  H     H_    0.464868 0.852293 0.596727 0.127175
H165  H     H_    0.182053 0.561722 0.619818 0.135906
H166  H     H_    0.464878 0.147696 0.403285 0.126761
H167  H     H_    0.856316 0.467709 0.591979 0.132302
H168  H     H_    0.534306 0.852503 0.403236 0.126804
H169  H     H_    0.965691 0.903188 0.147539 0.126839
H170  H     H_    0.856350 0.091977 0.967685 0.132291
H171  H     H_    0.034295 0.903223 0.852486 0.126857
H172  H     H_    0.143642 0.091996 0.032347 0.132301
H173  H     H_    0.965699 0.096782 0.852484 0.126854
H174  H     H_    0.856352 0.907995 0.032348 0.132291
H175  H     H_    0.034306 0.096807 0.147538 0.126843
H176  H     H_    0.143647 0.908027 0.967688 0.132263
H177  H     H_    0.121596 0.185659 0.062995 0.137927
H178  H     H_    0.879167 0.939980 0.182317 0.134526
H179  H     H_    0.121587 0.814363 0.937054 0.138667
H180  H     H_    0.879172 0.060036 0.817704 0.134313
H181  H     H_    0.878400 0.814332 0.063003 0.138929
H182  H     H_    0.120832 0.060026 0.182317 0.134267
H183  H     H_    0.878410 0.185642 0.937056 0.138907
H184  H     H_    0.120825 0.939968 0.817709 0.134293
H185  H     H_    0.817982 0.061691 0.880193 0.135396
H186  H     H_    0.035129 0.147711 0.096730 0.126997
H187  H     H_    0.182013 0.938313 0.880195 0.135367
H188  H     H_    0.964865 0.852289 0.096731 0.126929
H189  H     H_    0.182038 0.061689 0.119824 0.135347
H190  H     H_    0.964879 0.147694 0.903288 0.126945
H191  H     H_    0.817962 0.938318 0.119824 0.135568
H192  H     H_    0.035116 0.852309 0.903294 0.126942
H193  H     H_    0.964876 0.403254 0.647728 0.127209
H194  H     H_    0.317962 0.619852 0.938244 0.135845
H195  H     H_    0.035106 0.403286 0.352295 0.126941
H196  H     H_    0.643646 0.592002 0.032348 0.132347
H197  H     H_    0.964884 0.596726 0.352289 0.126805
H198  H     H_    0.356391 0.408047 0.032333 0.131601
H199  H     H_    0.034306 0.596810 0.647541 0.126822
H200  H     H_    0.643646 0.408027 0.967686 0.132277
H201  H     H_    0.621597 0.685668 0.063004 0.138938
H202  H     H_    0.379168 0.939979 0.682317 0.134282
H203  H     H_    0.621588 0.314363 0.937056 0.138942
H204  H     H_    0.379171 0.060035 0.317704 0.134290
H205  H     H_    0.378404 0.314348 0.062990 0.138813
H206  H     H_    0.620830 0.060020 0.682310 0.134318
H207  H     H_    0.379156 0.682367 0.939913 0.135504
H208  H     H_    0.621573 0.937119 0.314451 0.137608
H209  H     H_    0.317981 0.061691 0.380193 0.135374
H210  H     H_    0.035126 0.647707 0.596723 0.126972
H211  H     H_    0.643628 0.967743 0.408095 0.131584
H212  H     H_    0.965672 0.352487 0.596785 0.127036
H213  H     H_    0.682049 0.061718 0.619816 0.135356
H214  H     H_    0.965685 0.647503 0.403225 0.126627
H215  H     H_    0.317962 0.938317 0.619823 0.135365
H216  H     H_    0.034307 0.352504 0.403236 0.126841
H217  H     H_    0.465692 0.903193 0.647536 0.127035
H218  H     H_    0.356350 0.091977 0.467685 0.132243
H219  H     H_    0.535103 0.903288 0.352298 0.127016
H220  H     H_    0.643605 0.091947 0.532334 0.131605
H221  H     H_    0.465697 0.096787 0.352480 0.126648
H222  H     H_    0.356356 0.908001 0.532347 0.132341
H223  H     H_    0.534304 0.096806 0.647538 0.126821
H224  H     H_    0.682034 0.880150 0.438242 0.135656
H225  H     H_    0.121594 0.685653 0.562991 0.139124
H226  H     H_    0.878414 0.437114 0.685599 0.137785
H227  H     H_    0.120841 0.317638 0.439912 0.135552
H228  H     H_    0.878418 0.562896 0.314430 0.137662
H229  H     H_    0.879141 0.317600 0.560151 0.135387
H230  H     H_    0.120832 0.560020 0.682311 0.134755
H231  H     H_    0.879154 0.682374 0.439908 0.135242
H232  H     H_    0.121576 0.437112 0.314442 0.138618
H233  H     H_    0.356370 0.532261 0.908089 0.131622
H234  H     H_    0.535130 0.647708 0.096724 0.127185
H235  H     H_    0.682015 0.438312 0.880194 0.135728
H236  H     H_    0.464871 0.352292 0.096727 0.126965
H237  H     H_    0.682037 0.561688 0.119824 0.135582
H238  H     H_    0.465689 0.647499 0.903230 0.126795
H239  H     H_    0.317953 0.438289 0.119815 0.135538
H240  H     H_    0.535118 0.352306 0.903290 0.126789
N1    N     N_R   0.032367 0.613498 0.886789 0.221121
O193  O     O_R   0.031511 0.642894 0.880135 -0.368735
O194  O     O_R   0.007852 0.596621 0.882018 -0.350560
N2    N     N_R   0.111455 0.388741 0.030764 0.221524
O195  O     O_R   0.140731 0.381830 0.028818 -0.373543
O196  O     O_R   0.093743 0.384676 0.006727 -0.350926
N3    N     N_R   0.967619 0.613495 0.113209 0.221344
O197  O     O_R   0.992139 0.596618 0.117989 -0.354848
O198  O     O_R   0.968462 0.642892 0.119864 -0.368553
N4    N     N_R   0.884981 0.384660 0.965742 0.222060
O199  O     O_R   0.879329 0.400735 0.990598 -0.355540
O200  O     O_R   0.878773 0.355156 0.965571 -0.371141
N5    N     N_R   0.032375 0.386785 0.113476 0.221868
O201  O     O_R   0.031535 0.380105 0.142844 -0.368508
O202  O     O_R   0.007856 0.382012 0.096615 -0.352157
N6    N     N_R   0.115030 0.615351 0.965732 0.221143
O203  O     O_R   0.120686 0.599281 0.990589 -0.357522
O204  O     O_R   0.121238 0.644855 0.965555 -0.372589
N7    N     N_R   0.967642 0.386509 0.886795 0.221680
O205  O     O_R   0.968503 0.357112 0.880143 -0.368607
O206  O     O_R   0.992155 0.403389 0.882023 -0.347903
N8    N     N_R   0.884992 0.615328 0.034226 0.221785
O207  O     O_R   0.878790 0.644836 0.034381 -0.370861
O208  O     O_R   0.879333 0.599241 0.009380 -0.356987
N9    N     N_R   0.384978 0.884657 0.965739 0.221696
O209  O     O_R   0.378769 0.855153 0.965566 -0.371150
O210  O     O_R   0.379324 0.900732 0.990595 -0.357007
N10   N     N_R   0.611465 0.030715 0.888741 0.221413
O211  O     O_R   0.640752 0.028744 0.881890 -0.376695
O212  O     O_R   0.593744 0.006675 0.884636 -0.348729
N11   N     N_R   0.384993 0.115327 0.034226 0.221725
O213  O     O_R   0.378792 0.144835 0.034386 -0.371235
O214  O     O_R   0.379327 0.099244 0.009379 -0.356982
N12   N     N_R   0.611455 0.969279 0.111250 0.221401
O215  O     O_R   0.593734 0.993324 0.115358 -0.348696
O216  O     O_R   0.640740 0.971235 0.118107 -0.376505
N13   N     N_R   0.615026 0.115347 0.965736 0.221737
O217  O     O_R   0.621233 0.144851 0.965562 -0.370984
O218  O     O_R   0.620682 0.099274 0.990592 -0.356937
N14   N     N_R   0.388535 0.969283 0.888741 0.221406
O219  O     O_R   0.359249 0.971251 0.881889 -0.376785
O220  O     O_R   0.406254 0.993324 0.884637 -0.348753
N15   N     N_R   0.615009 0.884671 0.034225 0.221757
O221  O     O_R   0.620672 0.900755 0.009379 -0.356933
O222  O     O_R   0.621210 0.855163 0.034382 -0.370964
N16   N     N_R   0.388550 0.030716 0.111244 0.221403
O223  O     O_R   0.406272 0.006671 0.115352 -0.348723
O224  O     O_R   0.359265 0.028759 0.118102 -0.376779
N17   N     N_R   0.111452 0.969281 0.611246 0.221399
O225  O     O_R   0.140737 0.971239 0.618104 -0.376754
O226  O     O_R   0.093731 0.993326 0.615354 -0.348746
N18   N     N_R   0.967639 0.886506 0.386792 0.221126
O227  O     O_R   0.992153 0.903385 0.382020 -0.350630
O228  O     O_R   0.968498 0.857109 0.380139 -0.368883
N19   N     N_R   0.888550 0.030715 0.611244 0.221400
O229  O     O_R   0.906271 0.006670 0.615354 -0.348787
O230  O     O_R   0.859265 0.028759 0.618101 -0.376783
N20   N     N_R   0.032365 0.113494 0.386792 0.221117
O231  O     O_R   0.031507 0.142890 0.380138 -0.368804
O232  O     O_R   0.007850 0.096616 0.382021 -0.350579
N21   N     N_R   0.888542 0.969288 0.388748 0.221446
O233  O     O_R   0.859256 0.971259 0.381893 -0.373905
O234  O     O_R   0.906263 0.993328 0.384647 -0.348582
N22   N     N_R   0.032369 0.886516 0.613197 0.221109
O235  O     O_R   0.007850 0.903396 0.617972 -0.350675
O236  O     O_R   0.031523 0.857121 0.619855 -0.368805
N23   N     N_R   0.111465 0.030714 0.388741 0.221411
O237  O     O_R   0.140752 0.028745 0.381890 -0.376761
O238  O     O_R   0.093745 0.006674 0.384634 -0.348741
N24   N     N_R   0.967637 0.113477 0.613191 0.221116
O239  O     O_R   0.968484 0.142872 0.619850 -0.368843
O240  O     O_R   0.992155 0.096596 0.617966 -0.350605
N25   N     N_R   0.532367 0.113497 0.886789 0.221117
O241  O     O_R   0.531510 0.142893 0.880135 -0.368779
O242  O     O_R   0.507853 0.096620 0.882017 -0.350645
N26   N     N_R   0.115009 0.884671 0.534225 0.221748
O243  O     O_R   0.120673 0.900754 0.509379 -0.356941
O244  O     O_R   0.121211 0.855163 0.534383 -0.371010
N27   N     N_R   0.467634 0.113480 0.113194 0.221121
O245  O     O_R   0.468481 0.142875 0.119852 -0.368799
O246  O     O_R   0.492153 0.096600 0.117969 -0.350575
N28   N     N_R   0.884974 0.884653 0.465735 0.221182
O247  O     O_R   0.879317 0.900725 0.490593 -0.357926
O248  O     O_R   0.878765 0.855149 0.465559 -0.372744
N29   N     N_R   0.532373 0.886513 0.113201 0.221130
O249  O     O_R   0.507853 0.903392 0.117977 -0.350580
O250  O     O_R   0.531527 0.857118 0.119858 -0.368681
N30   N     N_R   0.115022 0.115343 0.465739 0.221694
O251  O     O_R   0.120675 0.099269 0.490595 -0.357022
O252  O     O_R   0.121231 0.144847 0.465567 -0.371111
N31   N     N_R   0.467639 0.886506 0.886792 0.221117
O253  O     O_R   0.468499 0.857110 0.880140 -0.368932
O254  O     O_R   0.492152 0.903386 0.882019 -0.350619
N32   N     N_R   0.884997 0.115322 0.534222 0.221691
O255  O     O_R   0.878794 0.144830 0.534381 -0.371298
O256  O     O_R   0.879334 0.099239 0.509375 -0.356959
N33   N     N_R   0.111459 0.530710 0.888748 0.221333
O257  O     O_R   0.140745 0.528736 0.881895 -0.373860
O258  O     O_R   0.093735 0.506672 0.884646 -0.348075
N34   N     N_R   0.115004 0.465821 0.115309 0.221540
O259  O     O_R   0.120705 0.490671 0.099228 -0.356265
O260  O     O_R   0.121181 0.465673 0.144797 -0.372785
N35   N     N_R   0.888534 0.469282 0.888740 0.221407
O261  O     O_R   0.859247 0.471247 0.881887 -0.376435
O262  O     O_R   0.906251 0.493323 0.884633 -0.348474
N36   N     N_R   0.888537 0.530729 0.111258 0.221680
O263  O     O_R   0.906256 0.506683 0.115369 -0.351667
O264  O     O_R   0.859250 0.528775 0.118113 -0.376231
N37   N     N_R   0.532360 0.613490 0.386796 0.221433
O265  O     O_R   0.507846 0.596611 0.382027 -0.349475
O266  O     O_R   0.531502 0.642886 0.380141 -0.368685
N38   N     N_R   0.613260 0.386490 0.532503 0.221748
O267  O     O_R   0.618214 0.403407 0.508062 -0.355065
O268  O     O_R   0.619686 0.357044 0.531589 -0.375246
N39   N     N_R   0.469255 0.611456 0.611248 0.221646
O269  O     O_R   0.493299 0.593733 0.615336 -0.349477
O270  O     O_R   0.471207 0.640748 0.618119 -0.371635
N40   N     N_R   0.384971 0.384649 0.465732 0.221592
O271  O     O_R   0.379314 0.400721 0.490590 -0.357747
O272  O     O_R   0.378764 0.355145 0.465556 -0.372399
N41   N     N_R   0.532478 0.386744 0.613484 0.222776
O273  O     O_R   0.531557 0.380322 0.642906 -0.370214
O274  O     O_R   0.508034 0.381778 0.596572 -0.354602
N42   N     N_R   0.615023 0.615344 0.465738 0.221237
O275  O     O_R   0.620678 0.599273 0.490595 -0.357696
O276  O     O_R   0.621232 0.644848 0.465563 -0.372884
N43   N     N_R   0.467640 0.386506 0.386793 0.221244
O277  O     O_R   0.492153 0.403386 0.382022 -0.349846
O278  O     O_R   0.468501 0.357109 0.380140 -0.368881
N44   N     N_R   0.384682 0.615011 0.534223 0.221498
O279  O     O_R   0.400763 0.620672 0.509378 -0.357727
O280  O     O_R   0.355186 0.621225 0.534382 -0.369399
N45   N     N_R   0.611458 0.530708 0.388748 0.221549
O281  O     O_R   0.593736 0.506670 0.384643 -0.347862
O282  O     O_R   0.640745 0.528737 0.381896 -0.373782
N46   N     N_R   0.613484 0.467556 0.613232 0.221942
O283  O     O_R   0.596551 0.491999 0.618219 -0.352135
O284  O     O_R   0.642925 0.468492 0.619621 -0.372496
N47   N     N_R   0.388537 0.469284 0.388744 0.221117
O285  O     O_R   0.406258 0.493324 0.384641 -0.349437
O286  O     O_R   0.359251 0.471253 0.381890 -0.373805
N48   N     N_R   0.386512 0.532353 0.613206 0.221041
O287  O     O_R   0.403388 0.507832 0.618009 -0.353718
O288  O     O_R   0.357123 0.531505 0.619847 -0.373622

loop_
_geom_bond_atom_site_label_1
_geom_bond_atom_site_label_2
_geom_bond_distance
_ccdc_geom_bond_type
C295  N7    1.440570 S    
O26   C26   1.257176 A    
C206  C310  1.406566 A    
C537  C585  1.198647 T    
O178  Zn23  1.968208 S    
C141  C508  1.400146 A    
C280  H40   1.081191 S    
C348  C444  1.395395 A    
C112  C460  1.400137 A    
C401  C497  1.393603 A    
C41   C558  1.421621 S    
O30   C30   1.257046 A    
C495  H111  1.083225 S    
N15   O222  1.301254 A    
C236  C334  1.406593 A    
O18   C18   1.257058 A    
O170  Zn15  1.968544 S    
C148  C244  1.403206 A    
C403  H211  1.082116 S    
C235  C608  1.435418 S    
C301  N13   1.440359 S    
C432  C659  1.407557 A    
O171  Zn24  1.968650 S    
O134  Zn34  1.968254 S    
O191  C58   1.291004 A    
C223  C291  1.406986 A    
C158  C274  1.402231 A    
C428  C524  1.389694 A    
C395  H203  1.082333 S    
O183  C50   1.292132 A    
C562  C610  1.198590 T    
C359  C630  1.406342 A    
C136  C496  1.402062 A    
O28   C28   1.257032 A    
N36   O264  1.301244 A    
C283  H43   1.082634 S    
C570  C618  1.198578 T    
O130  Zn36  1.968208 S    
O98   Zn8   1.968544 S    
C139  C512  1.400481 A    
C105  C441  1.402001 A    
C48   C563  1.421881 S    
C238  C335  1.406680 A    
C149  C629  1.481247 S    
C411  C507  1.389806 A    
O124  C76   1.291182 A    
O159  Zn38  1.968388 S    
C251  H11   1.082486 S    
C183  C278  1.401029 A    
N19   O229  1.301242 A    
C211  C297  1.406721 A    
C233  C604  1.434806 S    
C166  C272  1.401645 A    
O16   Zn16  2.013641 S    
C62   C129  1.462402 S    
C9    C538  1.421225 S    
C342  C438  1.393617 A    
O69   C47   1.257353 A    
C197  C616  1.434796 S    
N4    O200  1.301253 A    
C394  C658  1.405756 A    
C421  H229  1.082636 S    
C57   C134  1.462840 S    
C194  C624  1.434323 S    
C296  N8    1.440353 S    
C182  C258  1.400533 A    
C362  C458  1.391398 A    
C337  H145  1.082448 S    
C572  C620  1.198641 T    
C339  C627  1.406786 A    
C557  C605  1.198463 T    
C64   C131  1.462465 S    
C367  H175  1.082450 S    
O163  C96   1.291477 A    
C373  C469  1.395386 A    
C385  H193  1.082382 S    
C136  C507  1.398894 A    
C505  H121  1.083379 S    
C380  C476  1.389703 A    
O11   Zn11  2.014333 S    
C302  N14   1.440316 S    
C508  H124  1.083435 S    
C359  H167  1.082112 S    
C509  H125  1.083378 S    
O106  C58   1.292426 A    
C305  N17   1.440315 S    
C340  C436  1.391394 A    
O115  C67   1.291480 A    
O64   Zn48  2.013641 S    
O69   Zn46  2.014141 S    
O110  C62   1.292422 A    
C532  C580  1.198570 T    
C193  C294  1.406723 A    
C390  C486  1.391398 A    
C218  C292  1.407427 A    
C376  C472  1.394528 A    
C170  C252  1.403345 A    
C364  C460  1.391380 A    
C109  C457  1.399705 A    
C321  N33   1.440314 S    
C110  C473  1.400547 A    
O176  Zn11  1.968590 S    
C196  C621  1.435225 S    
C415  C511  1.390233 A    
C196  C295  1.406568 A    
C360  C456  1.390159 A    
C18   C547  1.421729 S    
O108  C60   1.292167 A    
C277  H37   1.082632 S    
C282  H42   1.081205 S    
C3    C532  1.421611 S    
O30   Zn30  2.014351 S    
C191  C671  1.479953 S    
O77   Zn20  2.013759 S    
C150  C630  1.479984 S    
C547  C595  1.198638 T    
C419  C672  1.405783 A    
C452  H68   1.083446 S    
O96   C3    1.257065 A    
C261  H21   1.082487 S    
C196  C292  1.406723 A    
C467  H83   1.083240 S    
C200  C300  1.406626 A    
C384  H192  1.082384 S    
C2    C531  1.421265 S    
C465  H81   1.083239 S    
O28   Zn28  2.014334 S    
O127  C79   1.290847 A    
C162  C270  1.403242 A    
C515  H131  1.083224 S    
C187  C288  1.403345 A    
C420  H228  1.082327 S    
C183  C245  1.400492 A    
C473  H89   1.083308 S    
C420  C516  1.395406 A    
C531  C579  1.198384 T    
O158  C95   1.292418 A    
C426  C522  1.389707 A    
C344  C632  1.406637 A    
C55   C124  1.461411 S    
C568  C616  1.198569 T    
C336  N48   1.440565 S    
O191  Zn10  1.967936 S    
C483  H99   1.083445 S    
C118  C467  1.402031 A    
C400  H208  1.082329 S    
C539  C587  1.198713 T    
C134  C494  1.402081 A    
C347  C634  1.405783 A    
C129  C522  1.398905 A    
O56   Zn44  2.014161 S    
C423  H231  1.082635 S    
C105  C450  1.398908 A    
C199  C299  1.407513 A    
N11   O214  1.301236 A    
C382  C648  1.407562 A    
O136  Zn33  1.968428 S    
N32   O256  1.301231 A    
C142  C502  1.399711 A    
C146  C242  1.402158 A    
C554  C602  1.198421 T    
C435  H51   1.083377 S    
O54   C42   1.257044 A    
C433  H49   1.083382 S    
C375  C648  1.406379 A    
O122  C74   1.291327 A    
C180  C286  1.401129 A    
C85   C102  1.461407 S    
C405  C669  1.406524 A    
C7    C536  1.421747 S    
C534  C582  1.198578 T    
C159  C276  1.401127 A    
C225  C295  1.406982 A    
C441  H57   1.083242 S    
C217  C599  1.434807 S    
C320  N32   1.440353 S    
C247  H7    1.082630 S    
C22   C551  1.421621 S    
O165  C95   1.290991 A    
C138  C498  1.398904 A    
C376  C639  1.405761 A    
C363  C639  1.406788 A    
C221  C322  1.406944 A    
C405  C501  1.393551 A    
C177  C280  1.401594 A    
C355  C632  1.406372 A    
C111  C459  1.399711 A    
C549  C597  1.198568 T    
N33   O258  1.301244 A    
O36   Zn34  2.013673 S    
C206  C598  1.435321 S    
C372  C468  1.394526 A    
O56   C44   1.257039 A    
O83   C8    1.257490 A    
C516  H132  1.083240 S    
O15   C15   1.257023 A    
C341  H149  1.082384 S    
O38   C35   1.257112 A    
C313  N25   1.440572 S    
O52   Zn40  2.014334 S    
C179  C284  1.401642 A    
C130  C505  1.399707 A    
O25   C25   1.257531 A    
N34   O260  1.301255 A    
C187  C251  1.402149 A    
N29   O249  1.301266 A    
O29   C29   1.257457 A    
C106  C443  1.402042 A    
C73   C114  1.461422 S    
O97   Zn5   1.968479 S    
N7    O206  1.301268 A    
O17   C17   1.257329 A    
C356  C452  1.389705 A    
C375  C471  1.395395 A    
C146  C257  1.403376 A    
C148  C261  1.402223 A    
C220  C324  1.406633 A    
C425  C521  1.391390 A    
N39   O269  1.301246 A    
C360  C634  1.406734 A    
O177  Zn4   1.968585 S    
O32   C32   1.257169 A    
C404  H212  1.082453 S    
C11   C540  1.421223 S    
C394  H202  1.082630 S    
O169  C68   1.290837 A    
C327  N39   1.440314 S    
C145  C625  1.479456 S    
C398  H206  1.082628 S    
N14   O220  1.301244 A    
C215  C595  1.434909 S    
O20   Zn20  2.014401 S    
C359  C455  1.391352 A    
C154  C251  1.401026 A    
C212  C320  1.406803 A    
C141  C501  1.400552 A    
C179  C243  1.400662 A    
C367  C463  1.390236 A    
O187  Zn16  1.968265 S    
C220  C296  1.407511 A    
C417  C513  1.395375 A    
C224  C313  1.406974 A    
C198  C298  1.406631 A    
C69   C138  1.462384 S    
C99   C435  1.399710 A    
O4    Zn4   2.014334 S    
C236  C326  1.406821 A    
C61   C130  1.462836 S    
C82   C120  1.462454 S    
O35   Zn26  2.014333 S    
O117  Zn17  1.967969 S    
C90   C97   1.462845 S    
N36   O263  1.301243 A    
O54   Zn42  2.014351 S    
C358  C636  1.407560 A    
O44   C25   1.257038 A    
C8    C533  1.422148 S    
C408  C672  1.406733 A    
C131  C528  1.398904 A    
C318  N30   1.440356 S    
C145  C250  1.401147 A    
C472  H88   1.083223 S    
O105  C57   1.291762 A    
C513  H129  1.083244 S    
O109  C61   1.291754 A    
C150  C246  1.402107 A    
O49   C37   1.257163 A    
C388  C652  1.406442 A    
N4    O199  1.301230 A    
O97   C49   1.290810 A    
C343  H151  1.082449 S    
C145  C241  1.400527 A    
C340  C628  1.406445 A    
C235  C332  1.406815 A    
O168  C87   1.290690 A    
O158  Zn46  1.968254 S    
C227  C289  1.406975 A    
C27   C568  1.421612 S    
C219  C593  1.434904 S    
C146  C626  1.480026 S    
C450  H66   1.083451 S    
N25   O241  1.301279 A    
C292  N4    1.440357 S    
C464  H80   1.083421 S    
C431  C654  1.406526 A    
C127  C487  1.399709 A    
O31   C31   1.257540 A    
O37   C30   1.256879 A    
C521  H137  1.083438 S    
C168  C269  1.400655 A    
O163  Zn48  1.968265 S    
C192  C672  1.479354 S    
C188  C277  1.400496 A    
C355  H163  1.082114 S    
N38   O267  1.301212 A    
O118  Zn20  1.968334 S    
C113  C461  1.399708 A    
O138  Zn31  1.968006 S    
C151  C247  1.400527 A    
O13   Zn13  2.014509 S    
C176  C656  1.480021 S    
C161  C269  1.400508 A    
O74   Zn11  2.014209 S    
C164  C276  1.402237 A    
C426  H234  1.082391 S    
C194  C293  1.406947 A    
C342  H150  1.082681 S    
C224  C298  1.406682 A    
C178  C658  1.479450 S    
C574  C622  1.198722 T    
C431  C527  1.393557 A    
O79   Zn24  2.014066 S    
C42   C559  1.421228 S    
C103  C439  1.399712 A    
C378  C474  1.389711 A    
C95   C105  1.462390 S    
C231  C332  1.407493 A    
O184  Zn19  1.968428 S    
C489  H105  1.083238 S    
C348  C629  1.406353 A    
C382  C478  1.389739 A    
O186  Zn7   1.968006 S    
O169  Zn20  1.968479 S    
C561  C609  1.198647 T    
O118  C70   1.291922 A    
C210  C318  1.406721 A    
N38   O268  1.301222 A    
O22   Zn22  2.014247 S    
C426  C657  1.407531 A    
C232  C609  1.435222 S    
C500  H116  1.083383 S    
C50   C125  1.462569 S    
C13   C542  1.421220 S    
C346  C442  1.394528 A    
O180  C65   1.292167 A    
C460  H76   1.083419 S    
O180  Zn17  1.968411 S    
O185  Zn12  1.968260 S    
C345  C441  1.395375 A    
O87   C2    1.257033 A    
O16   C16   1.257529 A    
O144  Zn27  1.968333 S    
O6    Zn6   2.014351 S    
C349  C445  1.395377 A    
C187  C667  1.479974 S    
C205  C589  1.435224 S    
O124  Zn30  1.968729 S    
C127  C518  1.402084 A    
C216  C578  1.434898 S    
N5    O201  1.301278 A    
O81   C4    1.256889 A    
C208  C306  1.406570 A    
O72   Zn43  2.014203 S    
C233  C328  1.407427 A    
N32   O255  1.301257 A    
C201  C305  1.406671 A    
C128  C523  1.400552 A    
C529  C577  1.198367 T    
O144  C75   1.291936 A    
C407  H215  1.082687 S    
C338  C626  1.406657 A    
C185  C255  1.403292 A    
C173  C653  1.481281 S    
N35   O261  1.301245 A    
C287  H47   1.082485 S    
O140  C73   1.291874 A    
C506  H122  1.083418 S    
N9    O209  1.301259 A    
C454  H70   1.083446 S    
C25   C566  1.421729 S    
O108  Zn14  1.968411 S    
C233  C335  1.406628 A    
O73   C20   1.257530 A    
C316  N28   1.440361 S    
C252  H12   1.081197 S    
C108  C454  1.398898 A    
O43   Zn33  2.013945 S    
O95   C10   1.257330 A    
O26   Zn26  2.014209 S    
C134  C511  1.399712 A    
C207  C299  1.406805 A    
C246  H6    1.082486 S    
C84   C118  1.462459 S    
C263  H23   1.081190 S    
O67   C48   1.257332 A    
O18   Zn18  2.014413 S    
C391  C655  1.406793 A    
C142  C519  1.402042 A    
C507  H123  1.083444 S    
O78   Zn9   2.014351 S    
O189  Zn14  1.967969 S    
C351  C636  1.406377 A    
C395  C491  1.395397 A    
O168  Zn39  1.968333 S    
C314  N26   1.440351 S    
C463  H79   1.083377 S    
O188  C49   1.291876 A    
C231  C610  1.434837 S    
N34   O259  1.301232 A    
C522  H138  1.083449 S    
O77   C22   1.257452 A    
O188  Zn1   1.968039 S    
C239  C336  1.407045 A    
N29   O250  1.301280 A    
O121  Zn29  1.968479 S    
C122  C521  1.400220 A    
O161  Zn46  1.968260 S    
O59   Zn38  2.014333 S    
C164  C644  1.480011 S    
C477  H93   1.083313 S    
C430  C526  1.390157 A    
C379  C475  1.393604 A    
C172  C254  1.402234 A    
O92   Zn5   2.014401 S    
O113  Zn21  1.968260 S    
C556  C604  1.198572 T    
O174  C61   1.291189 A    
O103  Zn3   1.968436 S    
C117  C474  1.398907 A    
C155  C635  1.481113 S    
O90   Zn3   2.014413 S    
C153  C633  1.481095 S    
O105  Zn13  1.968585 S    
O73   Zn22  2.014067 S    
O63   C38   1.257270 A    
N14   O219  1.301245 A    
C130  C490  1.402082 A    
C363  C459  1.390230 A    
C89   C98   1.461457 S    
N48   O288  1.301278 A    
C45   C562  1.421648 S    
C558  C606  1.198569 T    
C337  C625  1.406798 A    
N3    O198  1.301280 A    
C232  C331  1.406570 A    
C47   C564  1.421299 S    
C353  H161  1.082110 S    
O126  C78   1.291193 A    
O145  C85   1.292051 A    
O149  Zn37  1.968640 S    
C418  H226  1.082326 S    
C418  C649  1.406360 A    
C221  C581  1.435467 S    
C439  H55   1.083378 S    
C5    C534  1.421627 S    
C445  H61   1.083239 S    
N10   O212  1.301243 A    
O78   C13   1.257042 A    
C167  C647  1.481122 S    
C223  C579  1.434516 S    
C139  C499  1.400221 A    
O20   C20   1.257037 A    
C343  C631  1.406792 A    
C149  C245  1.400671 A    
O64   C48   1.257521 A    
C355  C451  1.391395 A    
C488  H104  1.083421 S    
C157  C273  1.401146 A    
O79   C18   1.257538 A    
O122  Zn32  1.968544 S    
C174  C282  1.403209 A    
C308  N20   1.440571 S    
C396  H204  1.082629 S    
C420  C653  1.406363 A    
C197  C302  1.406617 A    
C100  C453  1.400557 A    
C159  C267  1.400513 A    
O114  Zn24  1.968006 S    
C188  C668  1.479300 S    
C381  C477  1.393569 A    
N45   O281  1.301248 A    
C544  C592  1.198373 T    
O80   C11   1.257170 A    
N31   O254  1.301265 A    
C293  N5    1.440566 S    
C140  C517  1.402015 A    
C192  C248  1.401027 A    
O45   C35   1.257416 A    
C312  N24   1.440568 S    
O106  Zn16  1.968208 S    
C175  C261  1.401147 A    
C429  C525  1.393575 A    
C410  C506  1.391399 A    
C347  H155  1.082634 S    
C44   C557  1.421468 S    
C250  H10   1.082485 S    
C180  C660  1.479446 S    
C154  C634  1.479346 S    
C216  C322  1.407631 A    
O134  C83   1.292423 A    
N25   O242  1.301265 A    
C193  C289  1.406562 A    
O93   C14   1.257315 A    
C474  H90   1.083448 S    
C357  C453  1.393556 A    
C129  C489  1.402005 A    
C126  C486  1.400145 A    
C416  H224  1.082687 S    
C536  C584  1.198646 T    
O40   Zn36  2.013641 S    
O45   Zn34  2.014141 S    
O156  Zn47  1.968411 S    
C188  C246  1.400976 A    
O90   C7    1.257063 A    
O91   Zn10  2.013945 S    
C143  C503  1.400565 A    
C417  H225  1.082333 S    
C75   C116  1.461464 S    
O70   C41   1.257045 A    
C237  C329  1.406529 A    
C24   C549  1.421614 S    
C392  C488  1.391400 A    
C373  C647  1.406393 A    
C369  C465  1.395377 A    
C391  C487  1.390236 A    
C52   C127  1.462852 S    
O173  C70   1.290813 A    
C156  C636  1.481171 S    
C49   C126  1.461366 S    
C422  C518  1.394535 A    
C59   C136  1.462547 S    
C389  C485  1.389808 A    
O164  C85   1.290660 A    
C399  C495  1.394515 A    
C93   C107  1.462397 S    
C120  C478  1.398893 A    
O161  C94   1.291051 A    
C342  C630  1.406670 A    
C144  C515  1.402043 A    
C344  C440  1.393610 A    
O87   Zn8   2.014380 S    
C339  C435  1.390233 A    
O94   C5    1.257046 A    
C396  C660  1.405760 A    
C329  N41   1.440076 S    
O35   C32   1.257018 A    
C83   C117  1.462410 S    
O133  C78   1.291758 A    
O192  Zn3   1.968333 S    
O71   Zn48  2.014160 S    
C281  H41   1.082632 S    
C390  C654  1.406445 A    
C230  C329  1.406863 A    
O75   Zn18  2.013727 S    
C202  C309  1.406680 A    
O62   Zn47  2.013979 S    
N27   O246  1.301268 A    
C409  C505  1.390236 A    
C340  H148  1.082119 S    
C12   C537  1.421906 S    
N23   O238  1.301246 A    
C249  H9    1.081201 S    
C178  C285  1.401144 A    
C111  C472  1.402076 A    
C332  N44   1.440351 S    
C510  H126  1.083417 S    
C253  H13   1.081193 S    
C31   C572  1.421735 S    
O47   C33   1.257334 A    
C229  C611  1.435208 S    
C162  C642  1.479961 S    
C198  C618  1.434809 S    
N5    O202  1.301264 A    
C402  H210  1.082390 S    
C125  C485  1.398895 A    
C428  H236  1.082388 S    
C487  H103  1.083381 S    
C170  C650  1.479971 S    
C240  C333  1.406681 A    
C160  C275  1.402222 A    
C30   C571  1.421222 S    
C255  H15   1.081193 S    
C432  H240  1.082387 S    
C172  C280  1.403235 A    
C63   C132  1.462832 S    
N7    O205  1.301275 A    
C373  H181  1.082332 S    
O135  C74   1.291900 A    
C133  C493  1.402009 A    
C352  C627  1.405761 A    
N9    O210  1.301232 A    
O58   C45   1.257689 A    
O9    Zn9   2.014519 S    
C424  H232  1.082327 S    
C222  C590  1.434469 S    
C92   C99   1.462844 S    
O113  C65   1.291466 A    
C97   C442  1.402082 A    
C437  H53   1.083442 S    
C152  C632  1.479983 S    
C322  N34   1.440349 S    
O143  Zn33  1.967936 S    
C165  C645  1.481122 S    
C376  H184  1.082631 S    
N6    O204  1.301254 A    
C225  C583  1.434472 S    
C275  H35   1.082482 S    
O181  C54   1.291988 A    
C217  C311  1.406624 A    
C341  C629  1.407605 A    
C560  C608  1.198768 T    
C172  C652  1.479952 S    
C267  H27   1.082631 S    
O2    C2    1.257187 A    
C462  H78   1.083419 S    
C97   C433  1.399707 A    
C480  H96   1.083447 S    
N11   O213  1.301256 A    
C493  H109  1.083238 S    
O41   Zn35  2.013991 S    
C240  C325  1.406971 A    
C217  C318  1.407428 A    
C350  H158  1.082633 S    
C179  C659  1.481178 S    
C416  C667  1.406632 A    
C1    C530  1.421720 S    
O53   C41   1.257462 A    
C573  C621  1.198640 T    
N42   O276  1.301259 A    
C366  C462  1.391387 A    
C121  C514  1.402067 A    
O88   Zn23  2.013641 S    
O36   C34   1.257509 A    
C215  C320  1.407503 A    
O58   Zn45  2.013984 S    
C201  C617  1.434474 S    
C345  H153  1.082335 S    
C384  C646  1.407558 A    
C222  C319  1.406985 A    
C349  H157  1.082332 S    
C384  C480  1.389737 A    
C427  C656  1.406581 A    
O142  C77   1.291922 A    
O55   Zn43  2.014066 S    
C214  C294  1.407432 A    
C163  C643  1.479453 S    
C126  C527  1.400556 A    
O167  C93   1.291011 A    
C499  H115  1.083439 S    
N47   O286  1.301245 A    
C54   C121  1.462577 S    
O128  Zn26  1.968590 S    
C163  C271  1.400526 A    
O173  Zn22  1.968640 S    
C409  C658  1.406796 A    
N16   O224  1.301245 A    
C448  H64   1.083224 S    
O123  C75   1.290833 A    
O164  Zn37  1.968039 S    
C520  H136  1.083240 S    
C430  C663  1.406734 A    
C306  N18   1.440570 S    
O120  Zn18  1.968333 S    
N48   O287  1.301268 A    
C209  C591  1.435327 S    
O48   Zn31  2.014203 S    
C238  C607  1.434481 S    
N15   O221  1.301234 A    
C412  C508  1.391391 A    
C343  C439  1.390236 A    
C226  C588  1.434477 S    
C412  H220  1.082121 S    
O3    Zn3   2.013727 S    
C541  C589  1.198643 T    
O156  C94   1.292396 A    
C383  C642  1.406550 A    
O46   C29   1.257056 A    
C156  C262  1.400656 A    
O71   C45   1.257105 A    
N10   O211  1.301244 A    
O133  Zn30  1.968570 S    
C37   C554  1.421396 S    
N19   O230  1.301247 A    
C370  H178  1.082634 S    
C309  N21   1.440313 S    
C524  H140  1.083447 S    
C266  H26   1.081192 S    
C10   C539  1.422009 S    
C518  H134  1.083224 S    
C108  C447  1.402029 A    
C183  C663  1.479343 S    
O120  C72   1.290690 A    
O93   Zn12  2.014141 S    
O44   Zn29  2.014401 S    
C165  C268  1.401593 A    
O12   Zn12  2.013673 S    
C423  C519  1.394513 A    
O7    C7    1.257544 A    
C459  H75   1.083376 S    
C201  C310  1.406970 A    
O53   Zn41  2.013759 S    
C380  H188  1.082389 S    
N30   O251  1.301230 A    
O125  Zn25  1.968640 S    
N45   O282  1.301242 A    
C203  C312  1.406974 A    
C36   C575  1.421892 S    
C191  C253  1.403234 A    
C406  H214  1.082453 S    
C490  H106  1.083220 S    
C149  C252  1.401737 A    
C74   C113  1.462823 S    
O31   Zn31  2.014066 S    
O135  Zn26  1.968388 S    
C181  C241  1.400660 A    
C307  N19   1.440314 S    
C212  C600  1.435331 S    
C211  C319  1.406571 A    
C345  C633  1.406389 A    
C436  H52   1.083434 S    
C167  C270  1.401593 A    
C153  C258  1.400666 A    
O109  Zn9   1.968570 S    
C190  C281  1.400489 A    
O139  C84   1.291058 A    
C400  C496  1.395394 A    
O33   C28   1.256888 A    
C219  C305  1.406621 A    
C419  H227  1.082634 S    
C546  C594  1.198645 T    
O183  Zn2   1.968388 S    
C485  H101  1.083444 S    
C350  C446  1.394528 A    
C479  H95   1.083311 S    
C107  C445  1.402006 A    
C297  N9    1.440356 S    
C492  H108  1.083222 S    
C151  C254  1.401142 A    
C241  H1    1.082631 S    
C124  C525  1.400563 A    
C248  H8    1.082487 S    
C397  C661  1.406385 A    
O153  Zn40  1.968585 S    
C194  C290  1.406526 A    
C106  C456  1.399717 A    
C356  H164  1.082390 S    
C169  C263  1.401768 A    
C271  H31   1.082633 S    
C230  C326  1.406453 A    
C103  C446  1.402074 A    
O63   Zn44  2.014380 S    
O159  C86   1.292124 A    
C123  C520  1.402067 A    
C162  C273  1.402233 A    
C175  C655  1.479468 S    
C178  C260  1.400526 A    
N43   O278  1.301278 A    
C101  C437  1.398894 A    
C140  C500  1.399722 A    
O39   C26   1.257021 A    
C182  C662  1.479456 S    
C471  H87   1.083243 S    
C71   C140  1.462669 S    
C352  C448  1.394531 A    
O126  Zn28  1.968737 S    
O91   C16   1.257334 A    
C415  C662  1.406793 A    
O23   C23   1.257327 A    
C152  C248  1.402150 A    
O61   Zn40  2.014509 S    
C447  H63   1.083239 S    
C210  C308  1.406561 A    
C535  C583  1.198358 T    
C211  C585  1.435230 S    
C234  C333  1.406628 A    
C204  C613  1.434474 S    
C533  C581  1.198794 T    
O110  Zn12  1.968254 S    
C414  C510  1.391384 A    
C386  H194  1.082687 S    
C540  C588  1.198358 T    
C361  C637  1.406797 A    
O131  Zn32  1.968435 S    
C113  C468  1.402077 A    
C158  C638  1.480009 S    
C215  C307  1.406627 A    
C116  C464  1.400163 A    
N12   O216  1.301245 A    
O184  C67   1.292184 A    
C325  N37   1.440571 S    
O34   C33   1.257603 A    
C167  C265  1.400660 A    
O84   C17   1.257513 A    
C317  N29   1.440569 S    
O62   C47   1.257228 A    
O1    C1    1.256877 A    
C414  C671  1.406443 A    
C204  C308  1.406973 A    
C369  H177  1.082333 S    
C214  C321  1.406631 A    
C503  H119  1.083310 S    
C237  C334  1.406947 A    
C398  C662  1.405761 A    
O14   Zn14  2.013979 S    
O130  C81   1.292432 A    
C341  C437  1.389797 A    
O39   Zn32  2.014380 S    
C548  C596  1.198643 T    
C372  C641  1.405756 A    
C361  H169  1.082449 S    
C56   C123  1.462555 S    
C352  H160  1.082630 S    
C46   C561  1.421897 S    
C34   C573  1.421886 S    
C223  C324  1.406687 A    
C365  H173  1.082447 S    
C123  C483  1.398891 A    
O129  Zn28  1.968585 S    
O4    C4    1.257038 A    
O172  Zn9   1.968729 S    
O157  Zn42  1.968570 S    
N6    O203  1.301230 A    
C315  N27   1.440568 S    
C159  C639  1.479448 S    
C181  C661  1.481088 S    
C360  H168  1.082450 S    
C53   C122  1.461400 S    
C244  H4    1.081204 S    
O140  Zn25  1.968039 S    
O34   Zn33  2.013984 S    
C367  C643  1.406787 A    
C26   C567  1.421236 S    
O112  Zn10  1.968428 S    
C195  C296  1.406806 A    
C147  C243  1.400511 A    
O139  Zn36  1.968265 S    
C386  C482  1.393602 A    
N2    O196  1.301241 A    
C195  C622  1.435349 S    
O149  C89   1.292028 A    
C110  C458  1.400169 A    
C527  H143  1.083306 S    
O68   Zn41  2.014401 S    
N42   O275  1.301227 A    
C413  C509  1.390224 A    
C394  C490  1.394526 A    
C16   C541  1.421895 S    
C362  C638  1.406427 A    
O66   Zn39  2.014413 S    
C386  C650  1.406633 A    
C132  C509  1.399711 A    
N41   O273  1.301219 A    
O170  C63   1.291324 A    
C358  H166  1.082388 S    
O153  C88   1.291765 A    
C379  H187  1.082682 S    
C99   C448  1.402083 A    
C175  C283  1.400535 A    
C456  H72   1.083379 S    
C399  C663  1.405780 A    
C227  C321  1.406684 A    
C245  H5    1.082632 S    
N16   O223  1.301245 A    
C174  C654  1.479910 S    
C96   C106  1.462722 S    
C184  C664  1.481256 S    
C100  C436  1.400143 A    
O15   Zn15  2.014380 S    
C466  H82   1.083224 S    
C180  C262  1.400506 A    
O100  C52   1.291188 A    
C185  C286  1.402232 A    
O27   Zn27  2.013727 S    
N37   O265  1.301268 A    
C364  C640  1.406439 A    
C424  C520  1.395410 A    
O84   Zn21  2.013673 S    
C354  C633  1.407525 A    
C425  H233  1.082116 S    
O74   C15   1.257177 A    
O51   C39   1.257483 A    
O19   Zn19  2.013945 S    
C429  H237  1.082687 S    
C432  C528  1.389741 A    
O100  Zn6   1.968729 S    
C122  C482  1.400484 A    
C564  C612  1.198365 T    
C538  C586  1.198363 T    
O40   C36   1.257525 A    
C291  N3    1.440567 S    
O81   Zn6   2.014519 S    
C171  C651  1.481263 S    
C482  H98   1.083304 S    
C370  C466  1.394526 A    
O182  Zn21  1.968254 S    
C119  C469  1.402011 A    
C481  H97   1.083445 S    
C469  H85   1.083240 S    
C205  C313  1.406564 A    
O175  Zn18  1.968436 S    
C553  C601  1.198359 T    
C411  C664  1.407605 A    
O21   C21   1.257309 A    
C238  C331  1.406982 A    
C434  H50   1.083305 S    
C401  H209  1.082680 S    
C476  H92   1.083450 S    
C356  C635  1.407534 A    
C346  C625  1.405756 A    
O150  Zn40  1.968737 S    
C19   C548  1.421890 S    
O85   Zn4   2.014509 S    
C389  C653  1.407617 A    
C442  H58   1.083226 S    
C235  C336  1.406659 A    
C393  H201  1.082332 S    
C378  C645  1.407534 A    
C387  C651  1.407605 A    
C393  C489  1.395386 A    
C380  C647  1.407533 A    
C397  H205  1.082332 S    
C337  C433  1.390234 A    
C415  H223  1.082448 S    
O24   C24   1.257053 A    
C228  C592  1.434493 S    
O51   Zn39  2.013727 S    
C550  C598  1.198708 T    
C362  H170  1.082115 S    
O12   C12   1.257510 A    
C160  C268  1.403230 A    
C272  H32   1.081187 S    
O155  Zn44  1.968435 S    
C366  H174  1.082114 S    
O89   C12   1.257332 A    
C213  C309  1.406617 A    
N26   O243  1.301234 A    
C288  H48   1.081194 S    
O146  C86   1.290906 A    
O152  C92   1.291325 A    
O157  C90   1.291757 A    
C575  C623  1.198641 T    
C300  N12   1.440309 S    
C444  H60   1.083241 S    
C416  C512  1.393610 A    
O101  Zn1   1.968640 S    
C410  C665  1.406430 A    
C381  C640  1.406548 A    
O99   Zn7   1.968650 S    
O46   Zn25  2.014247 S    
O137  C82   1.291047 A    
C264  H24   1.082627 S    
C392  C656  1.406431 A    
C35   C576  1.421057 S    
C177  C247  1.400667 A    
C411  H219  1.082381 S    
C14   C543  1.422003 S    
N18   O228  1.301279 A    
O24   Zn24  2.014203 S    
O165  Zn47  1.967969 S    
O94   Zn1   2.014247 S    
C200  C303  1.407512 A    
C438  H54   1.083304 S    
C290  N2    1.440315 S    
C202  C306  1.406979 A    
C259  H19   1.081201 S    
C421  C517  1.394501 A    
N27   O245  1.301278 A    
C94   C108  1.462456 S    
O8    Zn8   2.014161 S    
C207  C587  1.435331 S    
O148  C88   1.291184 A    
C526  H142  1.083380 S    
O67   Zn45  2.013945 S    
C403  C499  1.391391 A    
C353  C626  1.406369 A    
N35   O262  1.301243 A    
C226  C317  1.406964 A    
O11   C11   1.257019 A    
C101  C444  1.402062 A    
O111  Zn11  1.968388 S    
C181  C282  1.401588 A    
C51   C128  1.461474 S    
C512  H128  1.083307 S    
C403  C667  1.406372 A    
C177  C657  1.481124 S    
C381  H189  1.082685 S    
O102  Zn4   1.968737 S    
N12   O215  1.301245 A    
C227  C577  1.434481 S    
C299  N11   1.440356 S    
C173  C281  1.400674 A    
C186  C283  1.400665 A    
C294  N6    1.440362 S    
O55   C43   1.257450 A    
C72   C139  1.461404 S    
C551  C599  1.198574 T    
C77   C110  1.461464 S    
C40   C553  1.421216 S    
C396  C492  1.394526 A    
C216  C290  1.406499 A    
C528  H144  1.083445 S    
O2    Zn2   2.014209 S    
C161  C641  1.479440 S    
C468  H84   1.083226 S    
C374  C643  1.405761 A    
C163  C275  1.401142 A    
N21   O233  1.301244 A    
O3    C3    1.257468 A    
O96   Zn7   2.014203 S    
C208  C316  1.406721 A    
O175  C66   1.290818 A    
C304  N16   1.440313 S    
C344  H152  1.082684 S    
N46   O284  1.301218 A    
N17   O225  1.301244 A    
O146  Zn44  1.968544 S    
C405  H213  1.082691 S    
C166  C646  1.481175 S    
O132  Zn35  1.968411 S    
C200  C614  1.434908 S    
N13   O217  1.301255 A    
O59   C44   1.257202 A    
O176  C59   1.290909 A    
C357  C628  1.406527 A    
C115  C470  1.402076 A    
C383  H191  1.082688 S    
C276  H36   1.082480 S    
C555  C603  1.198377 T    
C390  H198  1.082119 S    
O178  C71   1.292200 A    
C258  H18   1.082632 S    
C207  C315  1.406578 A    
C286  H46   1.082479 S    
C424  C651  1.406360 A    
C387  C483  1.389806 A    
C4    C529  1.421224 S    
C408  H216  1.082455 S    
O150  C90   1.291191 A    
O155  C92   1.291906 A    
C400  C664  1.406355 A    
C274  H34   1.082479 S    
C260  H20   1.082630 S    
O119  C71   1.291430 A    
N2    O195  1.301241 A    
N39   O270  1.301244 A    
O88   C19   1.257526 A    
C407  C671  1.406548 A    
C319  N31   1.440570 S    
O95   Zn16  2.014160 S    
O23   Zn23  2.014160 S    
O189  C62   1.290996 A    
C114  C462  1.400137 A    
O162  Zn43  1.968006 S    
C270  H30   1.081191 S    
C402  C498  1.389705 A    
O61   C42   1.256883 A    
O136  C84   1.292411 A    
C23   C552  1.422013 S    
O186  C55   1.291891 A    
C457  H73   1.083379 S    
C135  C526  1.399713 A    
O104  Zn2   1.968590 S    
N40   O272  1.301255 A    
N41   O274  1.301206 A    
C338  H146  1.082682 S    
C331  N43   1.440571 S    
C402  C666  1.407524 A    
C567  C615  1.198367 T    
C154  C264  1.400496 A    
O6    C6    1.257042 A    
O7    Zn7   2.014066 S    
O137  Zn34  1.968260 S    
C377  C473  1.393604 A    
C144  C504  1.399718 A    
C205  C301  1.406721 A    
C284  H44   1.081192 S    
N44   O280  1.301251 A    
C214  C582  1.434811 S    
O151  C91   1.290817 A    
O10   Zn10  2.013984 S    
C192  C279  1.400496 A    
C198  C301  1.407436 A    
O132  C82   1.292397 A    
O114  C66   1.291892 A    
C190  C670  1.479346 S    
C571  C619  1.198363 T    
C119  C476  1.398904 A    
C157  C637  1.479462 S    
C232  C328  1.406729 A    
C164  C272  1.403289 A    
C15   C544  1.421242 S    
N37   O266  1.301273 A    
N8    O208  1.301230 A    
C361  C457  1.390239 A    
O42   C31   1.257059 A    
C150  C263  1.403381 A    
O68   C37   1.257222 A    
C377  C638  1.406585 A    
C374  C470  1.394526 A    
C118  C480  1.398895 A    
C559  C607  1.198365 T    
O190  C53   1.290675 A    
C365  C461  1.390226 A    
C404  C668  1.406708 A    
C378  H186  1.082391 S    
C425  C650  1.406370 A    
O142  Zn29  1.968334 S    
C552  C600  1.198709 T    
C409  H217  1.082448 S    
C165  C271  1.400662 A    
C354  H162  1.082389 S    
C310  N22   1.440570 S    
C413  H221  1.082449 S    
C311  N23   1.440315 S    
C404  C500  1.390135 A    
C174  C250  1.402226 A    
C427  C523  1.393604 A    
C395  C659  1.406384 A    
C240  C601  1.434468 S    
C389  H197  1.082383 S    
C358  C454  1.389735 A    
C543  C591  1.198707 T    
C98   C449  1.400215 A    
O29   Zn29  2.013759 S    
C498  H114  1.083448 S    
C66   C141  1.461352 S    
O190  Zn5   1.968334 S    
C285  H45   1.082484 S    
C353  C449  1.391381 A    
C273  H33   1.082480 S    
C197  C297  1.407425 A    
C346  H154  1.082629 S    
C364  H172  1.082113 S    
O82   Zn19  2.013984 S    
C265  H25   1.082632 S    
C38   C555  1.421248 S    
C102  C438  1.400472 A    
C158  C266  1.403292 A    
O72   C39   1.257054 A    
C169  C649  1.481299 S    
C182  C287  1.401142 A    
O102  C54   1.290777 A    
C383  C479  1.393577 A    
C269  H29   1.082628 S    
C166  C267  1.400658 A    
C398  C494  1.394531 A    
C514  H130  1.083241 S    
C230  C612  1.434492 S    
C128  C488  1.400167 A    
C206  C314  1.406804 A    
O154  C93   1.292428 A    
C218  C580  1.434796 S    
C17   C546  1.421899 S    
O41   C34   1.257330 A    
C566  C614  1.198634 T    
C410  H218  1.082110 S    
C268  H28   1.081192 S    
C202  C619  1.434473 S    
C160  C640  1.479946 S    
C176  C256  1.402240 A    
C414  H222  1.082112 S    
C234  C606  1.434804 S    
O179  Zn8   1.968435 S    
C278  H38   1.082486 S    
C168  C266  1.401643 A    
C168  C648  1.481169 S    
C189  C249  1.403201 A    
O70   Zn37  2.014247 S    
O111  C63   1.291902 A    
O123  Zn31  1.968650 S    
C478  H94   1.083444 S    
O121  C73   1.290840 A    
C189  C287  1.402221 A    
C393  C657  1.406393 A    
C219  C314  1.407512 A    
C221  C293  1.406583 A    
C262  H22   1.082628 S    
O103  C55   1.290850 A    
C125  C516  1.402067 A    
O115  Zn23  1.968265 S    
C365  C641  1.406789 A    
C170  C278  1.402150 A    
C228  C315  1.406974 A    
C213  C316  1.407428 A    
C6    C535  1.421219 S    
C542  C590  1.198361 T    
C116  C475  1.400549 A    
O1    Zn1   2.014067 S    
C28   C565  1.421218 S    
O38   Zn35  2.013979 S    
O10   C10   1.257599 A    
C133  C524  1.398903 A    
O107  Zn15  1.968435 S    
C388  H196  1.082114 S    
C429  C652  1.406546 A    
C184  C264  1.400677 A    
C328  N40   1.440357 S    
O14   C14   1.257589 A    
C351  H159  1.082334 S    
C237  C605  1.434648 S    
C153  C249  1.401586 A    
C382  H190  1.082384 S    
C234  C330  1.407423 A    
C413  C660  1.406788 A    
C399  H207  1.082631 S    
C368  H176  1.082111 S    
C161  C274  1.401125 A    
C67   C144  1.462729 S    
O154  Zn48  1.968208 S    
O33   Zn30  2.014519 S    
C446  H62   1.083227 S    
C391  H199  1.082447 S    
C115  C463  1.399710 A    
C190  C242  1.401031 A    
C397  C493  1.395374 A    
C138  C513  1.402005 A    
C231  C327  1.406554 A    
O82   C23   1.257596 A    
C419  C515  1.394516 A    
O85   C6    1.256881 A    
C354  C450  1.389699 A    
N24   O240  1.301267 A    
N20   O231  1.301276 A    
C484  H100  1.083417 S    
O80   Zn15  2.014161 S    
C565  C613  1.198360 T    
O48   C27   1.257064 A    
O127  Zn27  1.968436 S    
C218  C323  1.406617 A    
C186  C244  1.401587 A    
C422  C655  1.405764 A    
C406  C502  1.390162 A    
O162  C91   1.291896 A    
C199  C304  1.406633 A    
O119  Zn19  1.967936 S    
C193  C623  1.435220 S    
C184  C288  1.401740 A    
C124  C484  1.400141 A    
C32   C569  1.421221 S    
O172  C57   1.291186 A    
C368  C464  1.391399 A    
C303  N15   1.440352 S    
N21   O234  1.301245 A    
O131  C80   1.291904 A    
N46   O283  1.301211 A    
N17   O226  1.301246 A    
C366  C642  1.406442 A    
C236  C602  1.434580 S    
C379  C644  1.406582 A    
C169  C277  1.400688 A    
C351  C447  1.395395 A    
O152  Zn38  1.968590 S    
N13   O218  1.301235 A    
O192  C51   1.291936 A    
O128  C80   1.291328 A    
C475  H91   1.083310 S    
C530  C578  1.198629 T    
C428  C661  1.407526 A    
C79   C112  1.461403 S    
O57   C40   1.256889 A    
C431  H239  1.082689 S    
O76   C9    1.257038 A    
O5    C5    1.257468 A    
C372  H180  1.082632 S    
N23   O237  1.301241 A    
C29   C570  1.421625 S    
N22   O236  1.301274 A    
C107  C452  1.398906 A    
C576  C624  1.198261 T    
C20   C545  1.421725 S    
C392  H200  1.082113 S    
O145  Zn41  1.968479 S    
C155  C260  1.400654 A    
O129  C76   1.291764 A    
C470  H86   1.083223 S    
C523  H139  1.083307 S    
C176  C284  1.403289 A    
N28   O248  1.301256 A    
O65   C46   1.257327 A    
O8    C8    1.257064 A    
O141  C83   1.290996 A    
C333  N45   1.440315 S    
O43   C36   1.257336 A    
C418  C514  1.395407 A    
N1    O193  1.301273 A    
C385  C481  1.389823 A    
N40   O271  1.301232 A    
C80   C111  1.462831 S    
C256  H16   1.082478 S    
C68   C143  1.461409 S    
C443  H59   1.083227 S    
N26   O244  1.301253 A    
C220  C584  1.434930 S    
C289  N1    1.440575 S    
N47   O285  1.301241 A    
C326  N38   1.440086 S    
O66   C43   1.257289 A    
C385  C649  1.407625 A    
O22   C22   1.257056 A    
N44   O279  1.301232 A    
C81   C119  1.462403 S    
O148  Zn42  1.968729 S    
C451  H67   1.083437 S    
C449  H65   1.083419 S    
C114  C479  1.400564 A    
O50   C38   1.256937 A    
C229  C330  1.406720 A    
N8    O207  1.301256 A    
O166  C89   1.290706 A    
O187  C64   1.291060 A    
C517  H133  1.083225 S    
O57   Zn42  2.014519 S    
C222  C302  1.406678 A    
O27   C27   1.257467 A    
C155  C253  1.401594 A    
C157  C265  1.400527 A    
C279  H39   1.082628 S    
O101  C53   1.292029 A    
O179  C56   1.292130 A    
N3    O197  1.301265 A    
O19   C19   1.257337 A    
C203  C615  1.434489 S    
C502  H118  1.083380 S    
O112  C64   1.292414 A    
C350  C631  1.405760 A    
C86   C101  1.462538 S    
C243  H3    1.082630 S    
C76   C115  1.462833 S    
C121  C481  1.398890 A    
C104  C440  1.400486 A    
O104  C56   1.290904 A    
C147  C627  1.479462 S    
C135  C495  1.402042 A    
C191  C285  1.402232 A    
C78   C109  1.462845 S    
C334  N46   1.440077 S    
O47   Zn36  2.014160 S    
O117  C69   1.290995 A    
O50   Zn38  2.014209 S    
O21   Zn21  2.014141 S    
O76   Zn13  2.014334 S    
C203  C307  1.406678 A    
C137  C497  1.400551 A    
O138  C79   1.291888 A    
O37   Zn28  2.014509 S    
C148  C628  1.479905 S    
C455  H71   1.083420 S    
C21   C550  1.422000 S    
C461  H77   1.083380 S    
O92   C1    1.257686 A    
C156  C255  1.401646 A    
C417  C666  1.406389 A    
C406  C670  1.406737 A    
O160  Zn45  1.968428 S    
O182  C69   1.292416 A    
C504  H120  1.083383 S    
C98   C434  1.400495 A    
O5    Zn5   2.013759 S    
C228  C304  1.406677 A    
O147  C87   1.292050 A    
C371  C467  1.395395 A    
O174  Zn13  1.968737 S    
C370  C637  1.405756 A    
C369  C645  1.406391 A    
O60   Zn46  2.013673 S    
O9    C9    1.256889 A    
C422  H230  1.082630 S    
C58   C133  1.462383 S    
C102  C455  1.400222 A    
C213  C597  1.434798 S    
C87   C104  1.461415 S    
C511  H127  1.083377 S    
O13   C13   1.256880 A    
C104  C451  1.400224 A    
C408  C504  1.390160 A    
C239  C603  1.434500 S    
O151  Zn39  1.968436 S    
N31   O253  1.301279 A    
C401  C665  1.406585 A    
N18   O227  1.301266 A    
C225  C323  1.406675 A    
C152  C259  1.403352 A    
C374  H182  1.082632 S    
C199  C620  1.434912 S    
N30   O252  1.301256 A    
C407  C503  1.393572 A    
C348  H156  1.082329 S    
O107  C59   1.292129 A    
O49   Zn37  2.014067 S    
C368  C644  1.406428 A    
C496  H112  1.083240 S    
C143  C510  1.400139 A    
O25   Zn25  2.014067 S    
C151  C631  1.479460 S    
C189  C669  1.479897 S    
O99   C51   1.290833 A    
O171  C72   1.292045 A    
C88   C103  1.462845 S    
C185  C665  1.480012 S    
C519  H135  1.083225 S    
O141  Zn35  1.967969 S    
O17   Zn17  2.013991 S    
O143  C81   1.291009 A    
C242  H2    1.082481 S    
C70   C137  1.461468 S    
C412  C669  1.406443 A    
O116  Zn22  1.968039 S    
C371  H179  1.082331 S    
C371  C646  1.406382 A    
C324  N36   1.440310 S    
C120  C471  1.402032 A    
O147  Zn43  1.968650 S    
C43   C560  1.422110 S    
O98   C50   1.290909 A    
C363  H171  1.082449 S    
C91   C100  1.461357 S    
C339  H147  1.082445 S    
C208  C594  1.435228 S    
C137  C506  1.400165 A    
C375  H183  1.082333 S    
O75   C24   1.257477 A    
C525  H141  1.083305 S    
C33   C574  1.422024 S    
C330  N42   1.440359 S    
C387  H195  1.082383 S    
C173  C257  1.401748 A    
O86   Zn17  2.013979 S    
O166  Zn41  1.968334 S    
C494  H110  1.083222 S    
O42   Zn27  2.014413 S    
N24   O239  1.301279 A    
C209  C303  1.406806 A    
O116  C68   1.291872 A    
C171  C279  1.400683 A    
C60   C135  1.462720 S    
C226  C300  1.406676 A    
C421  C668  1.405789 A    
O167  Zn45  1.967936 S    
C545  C593  1.198634 T    
C458  H74   1.083418 S    
O83   Zn2   2.014333 S    
O181  Zn6   1.968570 S    
C65   C142  1.462727 S    
O52   C40   1.257033 A    
C132  C492  1.402083 A    
C491  H107  1.083238 S    
C349  C635  1.406388 A    
O125  C77   1.290813 A    
O160  C96   1.292182 A    
C563  C611  1.198635 T    
O65   Zn47  2.013991 S    
C147  C256  1.401135 A    
C440  H56   1.083306 S    
C209  C317  1.406571 A    
N33   O257  1.301242 A    
C298  N10   1.440316 S    
C430  H238  1.082454 S    
O89   Zn14  2.013991 S    
C338  C434  1.393626 A    
C501  H117  1.083313 S    
C204  C311  1.406684 A    
C239  C327  1.406617 A    
C112  C477  1.400560 A    
C569  C617  1.198357 T    
C388  C484  1.391384 A    
C423  C670  1.405779 A    
O60   C46   1.257511 A    
N43   O277  1.301266 A    
C347  C443  1.394516 A    
C39   C556  1.421625 S    
N20   O232  1.301268 A    
C486  H102  1.083436 S    
C254  H14   1.082478 S    
C323  N35   1.440319 S    
C117  C465  1.402009 A    
C377  H185  1.082680 S    
C109  C466  1.402083 A    
N22   O235  1.301265 A    
O86   C21   1.257588 A    
C335  N47   1.440313 S    
C195  C291  1.406582 A    
O185  C60   1.291466 A    
C210  C596  1.435220 S    
C427  H235  1.082686 S    
C357  H165  1.082691 S    
C131  C491  1.402030 A    
C212  C312  1.406573 A    
C257  H17   1.081187 S    
C224  C586  1.434478 S    
O177  C52   1.291764 A    
C229  C325  1.406562 A    
O32   Zn32  2.014161 S    
N28   O247  1.301231 A    
C497  H113  1.083308 S    
C186  C666  1.481098 S    
C453  H69   1.083307 S    
N1    O194  1.301267 A    
C171  C259  1.401748 A    
