data_mof_unit_pretest_1150.cif
_audit_creation_date              2012-12-10T16:50:56-0500
_audit_creation_method            fapswitch 2.2
_symmetry_space_group_name_H-M    P1
_symmetry_Int_Tables_number       1
_space_group_crystal_system       triclinic
_cell_length_a                    8.039474
_cell_length_b                    8.600247
_cell_length_c                    10.541104
_cell_angle_alpha                 91.069527
_cell_angle_beta                  88.272013
_cell_angle_gamma                 92.306377
_cell_volume                      727.794629086

loop_
_atom_site_label
_atom_site_type_symbol
_atom_type_description
_atom_site_fract_x
_atom_site_fract_y
_atom_site_fract_z
_atom_type_partial_charge
C1    C     C_R   0.543114 0.792489 0.498967 0.884377
C2    C     C_R   0.936966 0.507831 0.076871 -0.069572
C3    C     C_R   0.068772 0.598649 0.027305 -0.141615
C4    C     C_R   0.931285 0.401858 0.972848 -0.141581
C5    C     C_R   0.209829 0.612045 0.101017 -0.213271
C6    C     C_R   0.790256 0.388460 0.899104 -0.213291
C7    C     C_R   0.351694 0.536659 0.060806 0.092585
C8    C     C_R   0.648389 0.463882 0.939264 0.092599
C9    C     C_R   0.352794 0.457966 0.943699 0.088588
C10   C     C_R   0.647271 0.542588 0.056377 0.088623
C11   C     C_R   0.498135 0.554201 0.125462 -0.241715
C12   C     C_R   0.456887 0.207510 0.501039 0.884458
C13   C     C_R   0.501925 0.446250 0.874621 -0.241666
C14   C     C_1   0.700687 0.006821 0.595748 0.224871
C15   C     C_1   0.299343 0.993185 0.404232 0.224860
C16   C     C_2   0.561557 0.954390 0.517982 -0.235377
C17   C     C_2   0.438444 0.045609 0.482026 -0.235347
C18   C     C_R   0.501314 0.479144 0.738598 0.868781
C19   C     C_R   0.498703 0.520949 0.261421 0.868859
C20   C     C_R   0.202834 0.410801 0.891373 -0.193625
C21   C     C_R   0.797204 0.589717 0.108764 -0.193694
C22   C     C_R   0.063083 0.492680 0.923284 -0.069621
H1    H     H_    0.962935 0.283690 0.996141 0.157345
H2    H     H_    0.990810 0.618203 0.594930 0.192970
H3    H     H_    0.037129 0.716816 0.004022 0.157399
H4    H     H_    0.197555 0.327454 0.812692 0.164892
H5    H     H_    0.802418 0.672914 0.187541 0.164907
H6    H     H_    0.032451 0.550255 0.835866 0.168570
H7    H     H_    0.967609 0.450271 0.164292 0.168573
H8    H     H_    0.212026 0.692750 0.181184 0.177286
H9    H     H_    0.788055 0.307627 0.819023 0.177213
H10   H     H_    0.009190 0.381793 0.405072 0.192968
N1    N     N_2   0.950330 0.457950 0.466250 -0.183644
N2    N     N_2   0.049670 0.542050 0.533750 -0.183632
N3    N     N_1   0.811485 0.047615 0.657374 -0.227241
N4    N     N_1   0.188579 0.952398 0.342577 -0.227348
O1    O     O_R   0.389250 0.738570 0.508280 -0.602360
O2    O     O_R   0.610750 0.261430 0.491720 -0.602337
O3    O     O_R   0.678390 0.711630 0.486650 -0.621271
O4    O     O_R   0.321610 0.288370 0.513350 -0.621211
O5    O     O_R   0.355430 0.513480 0.694040 -0.616893
O6    O     O_R   0.644570 0.486520 0.305960 -0.616894
O7    O     O_R   0.644570 0.486540 0.672410 -0.617959
O8    O     O_R   0.355430 0.513460 0.327590 -0.617969
Zn1   Zn    Zn3+2 0.306940 0.517990 0.514440 0.944209
Zn2   Zn    Zn3+2 0.693060 0.482010 0.485560 0.944204

loop_
_geom_bond_atom_site_label_1
_geom_bond_atom_site_label_2
_ccdc_geom_bond_type
C12   C17   S    
C12   O4    A    
C2    C4    A    
C15   C17   S    
C8    C13   A    
C4    C22   A    
C9    C20   A    
C19   O6    A    
C1    O1    A    
H10   N1    S    
C2    C21   A    
C2    C3    A    
C21   H5    S    
C1    C16   S    
C22   H6    S    
C18   O7    A    
C19   O8    A    
C7    C11   A    
N1    Zn2   S    
C11   C19   S    
C20   H4    S    
C13   C18   S    
C2    H7    S    
C6    C8    A    
C8    C10   A    
C20   C22   A    
C6    H9    S    
C5    C7    A    
O3    Zn2   S    
C10   C21   A    
C12   O2    A    
O4    Zn1   S    
O7    Zn2   S    
C14   C16   S    
O2    Zn2   S    
C10   C11   A    
C1    O3    A    
O1    Zn1   S    
C7    C9    A    
C15   N4    T    
C3    H3    S    
N1    N2    D    
O8    Zn1   S    
C4    C6    A    
C5    H8    S    
O6    Zn2   S    
C18   O5    A    
C14   N3    T    
N2    Zn1   S    
C4    H1    S    
C9    C13   A    
C3    C22   A    
O5    Zn1   S    
H2    N2    S    
C16   C17   D    
C3    C5    A    
