data_mof_unit_pretest_937.cif
_audit_creation_date              2013-03-05T16:59:35-0500
_audit_creation_method            fapswitch 2.2
_symmetry_space_group_name_H-M    P1
_symmetry_Int_Tables_number       1
_space_group_crystal_system       triclinic
_cell_length_a                    8.619077
_cell_length_b                    16.184737
_cell_length_c                    16.631159
_cell_angle_alpha                 88.399605
_cell_angle_beta                  90.653759
_cell_angle_gamma                 98.868009
_cell_volume                      2291.31844124

loop_
_atom_site_label
_atom_site_type_symbol
_atom_site_description
_atom_site_fract_x
_atom_site_fract_y
_atom_site_fract_z
_atom_type_partial_charge
O1    O     O_R   0.493140 0.422050 0.612640 -0.589931
O2    O     O_R   0.506860 0.577950 0.387360 -0.590066
O3    O     O_R   0.505450 0.562230 0.618920 -0.597736
O4    O     O_R   0.494550 0.437770 0.381080 -0.597825
C1    C     C_R   0.486817 0.489024 0.653292 0.930900
C2    C     C_R   0.513230 0.510975 0.346710 0.930965
O5    O     O_R   0.723530 0.446300 0.497600 -0.615800
O6    O     O_R   0.276470 0.553700 0.502400 -0.615781
O7    O     O_R   0.735850 0.586490 0.503880 -0.578374
O8    O     O_R   0.264150 0.413510 0.496120 -0.578281
C3    C     C_R   0.799073 0.519824 0.503322 0.948999
C4    C     C_R   0.200925 0.480175 0.496691 0.948999
Zn1   Zn    Zn3+2 0.491780 0.406400 0.495810 1.040023
Zn2   Zn    Zn3+2 0.508220 0.593600 0.504190 1.040073
C5    C     C_2   0.958810 0.523272 0.521862 0.039125
C6    C     C_2   0.041188 0.476726 0.478157 0.038982
C7    C     C_R   0.453347 0.482082 0.740042 -0.139833
C8    C     C_R   0.546991 0.517905 0.259981 -0.140060
C9    C     C_R   0.394553 0.546255 0.782127 0.026057
C10   C     C_R   0.605684 0.453652 0.217968 0.025965
C11   C     C_R   0.383039 0.539307 0.866467 0.263974
C12   C     C_R   0.617549 0.460602 0.133646 0.263885
C13   C     C_R   0.424015 0.468055 0.906984 0.113630
C14   C     C_R   0.576973 0.531915 0.093065 0.113685
C15   C     C_R   0.456941 0.399511 0.864186 0.265079
C16   C     C_R   0.544257 0.600548 0.135813 0.265132
C17   C     C_R   0.474944 0.407958 0.781200 -0.273955
C18   C     C_R   0.525929 0.592104 0.218793 -0.273767
N1    N     N_2   0.451777 0.469121 0.990463 -0.064054
N2    N     N_2   0.549270 0.530822 0.009577 -0.064042
H1    H     H_    0.507275 0.356286 0.748804 0.251332
H2    H     H_    0.493752 0.643828 0.251163 0.251436
N3    N     N_R   0.519180 0.718290 0.509780 -0.231147
N4    N     N_R   0.480820 0.281710 0.490220 -0.231084
C19   C     C_R   0.411399 0.755034 0.465389 0.348102
C20   C     C_R   0.588781 0.244974 0.534494 0.348009
C21   C     C_R   0.424920 0.843337 0.456160 -0.086891
C22   C     C_R   0.575249 0.156673 0.543755 -0.086966
C23   C     C_R   0.543247 0.894967 0.499134 0.147748
C24   C     C_R   0.456764 0.105029 0.500899 0.147647
C25   C     C_R   0.651406 0.856032 0.545191 0.113904
C26   C     C_R   0.348471 0.143948 0.454923 0.113853
C27   C     C_R   0.637641 0.767453 0.549589 0.263216
C28   C     C_R   0.362233 0.232530 0.450509 0.263118
N5    N     N_2   0.561775 0.984969 0.494526 -0.085664
N6    N     N_2   0.438258 0.015026 0.505524 -0.085529
C29   C     C_3   0.014294 0.562037 0.601024 -0.768267
H3    H     H_    0.914811 0.577935 0.636317 0.275538
H4    H     H_    0.070209 0.516836 0.638548 0.206690
H5    H     H_    0.096871 0.620663 0.589980 0.290317
C30   C     C_3   0.985709 0.437967 0.398993 -0.768196
H6    H     H_    0.085202 0.422110 0.363681 0.275550
H7    H     H_    0.903203 0.379317 0.410043 0.290306
H8    H     H_    0.929720 0.483151 0.361486 0.206677
C31   C     C_3   0.662381 0.379762 0.260584 -0.639026
H9    H     H_    0.706158 0.394539 0.321574 0.208017
H10   H     H_    0.566299 0.325604 0.263375 0.291584
H11   H     H_    0.764997 0.361697 0.229564 0.256582
C32   C     C_3   0.337278 0.620015 0.739586 -0.639217
H12   H     H_    0.293905 0.605324 0.678513 0.208093
H13   H     H_    0.234259 0.637660 0.770574 0.256420
H14   H     H_    0.432893 0.674407 0.737014 0.291651
N7    N     N_R   0.670081 0.395760 0.088172 0.231118
O9    O     O_R   0.768929 0.415240 0.029578 -0.302959
O10   O     O_R   0.612359 0.317534 0.101737 -0.271361
N8    N     N_R   0.330304 0.604042 0.912013 0.231232
O11   O     O_R   0.231830 0.584418 0.970747 -0.303217
O12   O     O_R   0.387367 0.682334 0.898332 -0.271487
N9    N     N_R   0.478971 0.322615 0.904999 0.262854
O13   O     O_R   0.565343 0.272943 0.873375 -0.285471
O14   O     O_R   0.397888 0.297129 0.968939 -0.254100
N10   N     N_R   0.522776 0.677522 0.094955 0.262936
O15   O     O_R   0.437505 0.727642 0.126755 -0.285602
O16   O     O_R   0.603417 0.702633 0.030783 -0.254283
N11   N     N_R   0.717149 0.295979 0.572893 0.235294
O17   O     O_R   0.701053 0.319656 0.645925 -0.382439
O18   O     O_R   0.858254 0.296191 0.545971 -0.361744
N12   N     N_R   0.283297 0.704022 0.426797 0.235507
O19   O     O_R   0.299514 0.680834 0.353611 -0.382478
O20   O     O_R   0.142144 0.703374 0.453816 -0.361929
C33   C     C_3   0.681275 0.120232 0.603697 -0.528742
H15   H     H_    0.634629 0.055071 0.622625 0.246162
H16   H     H_    0.800003 0.122979 0.577692 0.285535
H17   H     H_    0.691151 0.156093 0.659910 0.254664
C34   C     C_3   0.319052 0.879789 0.396138 -0.528761
H18   H     H_    0.365363 0.945065 0.377472 0.246190
H19   H     H_    0.309884 0.844147 0.339805 0.254756
H20   H     H_    0.200070 0.876716 0.421920 0.285299
N13   N     N_R   0.775712 0.906324 0.587948 0.240878
O21   O     O_R   0.803555 0.889493 0.663213 -0.273748
O22   O     O_R   0.864135 0.967960 0.551236 -0.303913
N14   N     N_R   0.224066 0.093638 0.412242 0.240878
O23   O     O_R   0.195966 0.110488 0.337010 -0.273811
O24   O     O_R   0.135919 0.031906 0.448967 -0.303862
N15   N     N_R   0.753160 0.729573 0.593250 0.261808
O25   O     O_R   0.899967 0.747492 0.572767 -0.310427
O26   O     O_R   0.718032 0.693567 0.662898 -0.352993
N16   N     N_R   0.246631 0.270397 0.406900 0.261850
O27   O     O_R   0.099858 0.252455 0.427432 -0.310129
O28   O     O_R   0.281648 0.306428 0.337255 -0.353276

loop_
_geom_bond_atom_site_label_1
_geom_bond_atom_site_label_2
_geom_bond_distance
_ccdc_geom_bond_type
N8    O12   1.301385 A    
C31   H9    1.097926 S    
N7    O10   1.301444 A    
C11   N8    1.441224 S    
C16   N10   1.438407 S    
C25   N13   1.436028 S    
N15   O25   1.300931 A    
C6    C30   1.514879 S    
C5    C29   1.514901 S    
O7    Zn2   1.983034 S    
Zn2   N3    2.010399 S    
C33   H15   1.107505 S    
C29   H4    1.110507 S    
N5    N6    1.254011 D    
C24   N6    1.440716 S    
O1    C1    1.301928 A    
C13   N1    1.406258 S    
C21   C34   1.513085 S    
C9    C11   1.407444 A    
C14   C16   1.401452 A    
N12   O20   1.300172 A    
C1    C7    1.472358 S    
C5    C6    1.344355 D    
O4    Zn1   1.960194 S    
N9    O14   1.301117 A    
C7    C9    1.427019 A    
C12   N7    1.441174 S    
C28   N16   1.428754 S    
C4    C6    1.400446 S    
C27   N15   1.428755 S    
N13   O22   1.300369 A    
C26   N14   1.436082 S    
C23   N5    1.440688 S    
C3    C5    1.400468 S    
C24   C26   1.410935 A    
N8    O11   1.301496 A    
C32   H12   1.097902 S    
C25   C27   1.420069 A    
O2    C2    1.301991 A    
C26   C28   1.420123 A    
C10   C31   1.515317 S    
C33   H16   1.109603 S    
C29   H5    1.107095 S    
C34   H19   1.109603 S    
C2    C8    1.472497 S    
C32   H13   1.110146 S    
C17   H1    1.080628 S    
C30   H6    1.110800 S    
C7    C17   1.400900 A    
C18   H2    1.080612 S    
N4    C28   1.370251 A    
O4    C2    1.289147 A    
N12   O19   1.299029 A    
C9    C32   1.515228 S    
C34   H18   1.107404 S    
C30   H7    1.107081 S    
N3    C27   1.370208 A    
O5    C3    1.270846 A    
N11   O17   1.299084 A    
N1    N2    1.247922 D    
C20   N11   1.430091 S    
N11   O18   1.300253 A    
C29   H3    1.110809 S    
O6    C4    1.270843 A    
N14   O24   1.300373 A    
C8    C18   1.400976 A    
O7    C3    1.281859 A    
O3    Zn2   1.960194 S    
O8    C4    1.281862 A    
N10   O16   1.301112 A    
C10   C12   1.407356 A    
N16   O28   1.299517 A    
C31   H10   1.109540 S    
C22   C33   1.513058 S    
C12   C14   1.409080 A    
O1    Zn1   1.966129 S    
C33   H17   1.109683 S    
C34   H20   1.109561 S    
C32   H14   1.109493 S    
O6    Zn2   2.002452 S    
C19   C21   1.420025 A    
N10   O15   1.301750 A    
O3    C1    1.289169 A    
O8    Zn1   1.983035 S    
N15   O26   1.299563 A    
C15   C17   1.391195 A    
C19   N12   1.430038 S    
C16   C18   1.391387 A    
C30   H8    1.110509 S    
C11   C13   1.409030 A    
Zn1   N4    2.010399 S    
C21   C23   1.415333 A    
C22   C24   1.415290 A    
C20   C22   1.420011 A    
N14   O23   1.301116 A    
N3    C19   1.375448 A    
N4    C20   1.375519 A    
C8    C10   1.427042 A    
C13   C15   1.401304 A    
N9    O13   1.301604 A    
O2    Zn2   1.966129 S    
C14   N2    1.406331 S    
N7    O9    1.301487 A    
O5    Zn1   2.002451 S    
C15   N9    1.438195 S    
C23   C25   1.410927 A    
N16   O27   1.300898 A    
C31   H11   1.110164 S    
N13   O21   1.301114 A    
