data_mof_unit_pretest_1830.cif
_audit_creation_date              2013-03-05T16:02:35-0500
_audit_creation_method            fapswitch 2.2
_symmetry_space_group_name_H-M    P1
_symmetry_Int_Tables_number       1
_space_group_crystal_system       triclinic
_cell_length_a                    18.36186
_cell_length_b                    18.348834
_cell_length_c                    51.367329
_cell_angle_alpha                 90.056313
_cell_angle_beta                  90.051363
_cell_angle_gamma                 90.003921
_cell_volume                      17306.5994369

loop_
_atom_site_label
_atom_site_type_symbol
_atom_site_description
_atom_site_fract_x
_atom_site_fract_y
_atom_site_fract_z
_atom_type_partial_charge
Zn1   Zn    Zn3+2 0.913060 0.500000 0.727930 1.121221
Zn2   Zn    Zn3+2 0.086940 0.500000 0.272070 1.120356
Zn3   Zn    Zn3+2 0.500000 0.913060 0.727930 1.119439
Zn4   Zn    Zn3+2 0.500000 0.086940 0.272070 1.119624
Zn5   Zn    Zn3+2 0.086940 0.500000 0.727930 1.109183
Zn6   Zn    Zn3+2 0.913060 0.500000 0.272070 1.117524
Zn7   Zn    Zn3+2 0.500000 0.086940 0.727930 1.114669
Zn8   Zn    Zn3+2 0.500000 0.913060 0.272070 1.115600
Zn9   Zn    Zn3+2 0.413060 0.000000 0.227930 1.120461
Zn10  Zn    Zn3+2 0.586940 0.000000 0.772070 1.121304
Zn11  Zn    Zn3+2 1.000000 0.413060 0.227930 1.119528
Zn12  Zn    Zn3+2 0.000000 0.586940 0.772070 1.119468
Zn13  Zn    Zn3+2 0.586940 0.000000 0.227930 1.117429
Zn14  Zn    Zn3+2 0.413060 0.000000 0.772070 1.109160
Zn15  Zn    Zn3+2 1.000000 0.586940 0.227930 1.115698
Zn16  Zn    Zn3+2 1.000000 0.413060 0.772070 1.114726
O1    O     O_3   1.000000 0.500000 0.750000 -0.561868
O2    O     O_3   0.000000 0.500000 0.250000 -0.562619
O3    O     O_3   0.500000 0.000000 0.750000 -0.561960
O4    O     O_3   0.500000 0.000000 0.250000 -0.562680
O5    O     O_R   1.000000 0.439150 0.807730 -0.614104
O6    O     O_R   0.000000 0.560850 0.192270 -0.614386
O7    O     O_R   0.560850 1.000000 0.807730 -0.613804
O8    O     O_R   0.439150 0.000000 0.192270 -0.614078
O9    O     O_R   0.000000 0.560850 0.807730 -0.615374
O10   O     O_R   0.000000 0.439150 0.192270 -0.614281
O11   O     O_R   0.439150 1.000000 0.807730 -0.614256
O12   O     O_R   0.560850 0.000000 0.192270 -0.614196
O13   O     O_R   0.500000 0.939150 0.307730 -0.614429
O14   O     O_R   0.500000 0.060850 0.692270 -0.613951
O15   O     O_R   0.060850 0.500000 0.307730 -0.614151
O16   O     O_R   0.939150 0.500000 0.692270 -0.613882
O17   O     O_R   0.500000 0.060850 0.307730 -0.614209
O18   O     O_R   0.500000 0.939150 0.692270 -0.615484
O19   O     O_R   0.939150 0.500000 0.307730 -0.614182
O20   O     O_R   0.060850 0.500000 0.692270 -0.614275
O21   O     O_R   0.914360 0.646040 0.764890 -0.604228
O22   O     O_R   0.085640 0.353960 0.235110 -0.609399
O23   O     O_R   0.353960 0.914360 0.764890 -0.612899
O24   O     O_R   0.646040 0.085640 0.235110 -0.609535
O25   O     O_R   0.085640 0.353960 0.764890 -0.607002
O26   O     O_R   0.914360 0.646040 0.235110 -0.610486
O27   O     O_R   0.646040 0.085640 0.764890 -0.607245
O28   O     O_R   0.353960 0.914360 0.235110 -0.607192
O29   O     O_R   0.914360 0.353960 0.235110 -0.607260
O30   O     O_R   0.085640 0.646040 0.764890 -0.601650
O31   O     O_R   0.353960 0.085640 0.235110 -0.606668
O32   O     O_R   0.646040 0.914360 0.764890 -0.609324
O33   O     O_R   0.085640 0.646040 0.235110 -0.609799
O34   O     O_R   0.914360 0.353960 0.764890 -0.609003
O35   O     O_R   0.646040 0.914360 0.235110 -0.607249
O36   O     O_R   0.353960 0.085640 0.764890 -0.612417
O37   O     O_R   0.414360 0.146040 0.264890 -0.608426
O38   O     O_R   0.585640 0.853960 0.735110 -0.604643
O39   O     O_R   0.853960 0.414360 0.264890 -0.608769
O40   O     O_R   0.146040 0.585640 0.735110 -0.613663
O41   O     O_R   0.585640 0.853960 0.264890 -0.609756
O42   O     O_R   0.414360 0.146040 0.735110 -0.607733
O43   O     O_R   0.146040 0.585640 0.264890 -0.606521
O44   O     O_R   0.853960 0.414360 0.735110 -0.608088
O45   O     O_R   0.414360 0.853960 0.735110 -0.600869
O46   O     O_R   0.585640 0.146040 0.264890 -0.607922
O47   O     O_R   0.853960 0.585640 0.735110 -0.608875
O48   O     O_R   0.146040 0.414360 0.264890 -0.607666
O49   O     O_R   0.585640 0.146040 0.735110 -0.608282
O50   O     O_R   0.414360 0.853960 0.264890 -0.610576
O51   O     O_R   0.146040 0.414360 0.735110 -0.611722
O52   O     O_R   0.853960 0.585640 0.264890 -0.607989
C1    C     C_R   0.999989 0.500031 0.820233 0.897578
C2    C     C_R   1.000000 0.499968 0.179767 0.906527
C3    C     C_R   0.500029 0.999999 0.820228 0.908461
C4    C     C_R   0.499971 0.000005 0.179772 0.903606
C5    C     C_R   0.499995 0.000031 0.320233 0.906389
C6    C     C_R   0.500004 0.999969 0.679767 0.897353
C7    C     C_R   0.000028 0.500000 0.320228 0.903725
C8    C     C_R   0.999970 0.500006 0.679772 0.908671
C9    C     C_R   0.859793 0.640306 0.749993 0.967750
C10   C     C_R   0.140273 0.359765 0.249992 0.965928
C11   C     C_R   0.359814 0.859690 0.749918 0.944294
C12   C     C_R   0.640164 0.140328 0.249994 0.964387
C13   C     C_R   0.140182 0.359700 0.749992 0.962369
C14   C     C_R   0.859729 0.640204 0.249990 0.963860
C15   C     C_R   0.640305 0.140190 0.749991 0.965067
C16   C     C_R   0.359696 0.859814 0.250009 0.964408
C17   C     C_R   0.859834 0.359669 0.250006 0.964800
C18   C     C_R   0.140184 0.640306 0.750082 0.944067
C19   C     C_R   0.359725 0.140240 0.250007 0.964909
C20   C     C_R   0.640209 0.859699 0.750004 0.965599
C21   C     C_R   0.140307 0.640189 0.249991 0.964631
C22   C     C_R   0.859698 0.359812 0.750009 0.964841
C23   C     C_R   0.640275 0.859793 0.250010 0.964257
C24   C     C_R   0.359820 0.140296 0.750008 0.962113
C25   C     C_R   0.774789 0.279030 0.726187 0.201184
C26   C     C_R   0.225216 0.720987 0.273811 0.200693
C27   C     C_R   0.720858 0.774764 0.726178 0.201351
C28   C     C_R   0.278841 0.225049 0.273871 0.197727
C29   C     C_R   0.220914 0.724988 0.726106 0.211310
C30   C     C_R   0.775348 0.278568 0.273893 0.196638
C31   C     C_R   0.279059 0.225116 0.726189 0.201191
C32   C     C_R   0.721422 0.775212 0.273888 0.196686
C33   C     C_R   0.774915 0.720977 0.273813 0.201069
C34   C     C_R   0.224729 0.278512 0.726109 0.196500
C35   C     C_R   0.720944 0.225245 0.273812 0.201232
C36   C     C_R   0.276374 0.777286 0.726182 0.196603
C37   C     C_R   0.225183 0.279108 0.273825 0.200112
C38   C     C_R   0.775127 0.721315 0.726114 0.196770
C39   C     C_R   0.278627 0.775304 0.273892 0.197043
C40   C     C_R   0.721377 0.224714 0.726109 0.196699
C41   C     C_R   0.274794 0.779027 0.226188 0.201180
C42   C     C_R   0.725219 0.220986 0.773812 0.200644
C43   C     C_R   0.221183 0.275001 0.226121 0.197426
C44   C     C_R   0.779092 0.725207 0.773822 0.199725
C45   C     C_R   0.724655 0.221406 0.226108 0.197132
C46   C     C_R   0.279088 0.774987 0.773894 0.211004
C47   C     C_R   0.778604 0.724792 0.226113 0.197182
C48   C     C_R   0.220957 0.274876 0.773810 0.200679
C49   C     C_R   0.275271 0.221466 0.773890 0.196907
C50   C     C_R   0.725092 0.779006 0.226188 0.200487
C51   C     C_R   0.223623 0.722693 0.773819 0.197150
C52   C     C_R   0.779040 0.274747 0.226189 0.200655
C53   C     C_R   0.724947 0.778778 0.773872 0.198340
C54   C     C_R   0.274781 0.220881 0.226177 0.200348
C55   C     C_R   0.778648 0.275285 0.773890 0.197157
C56   C     C_R   0.221392 0.724700 0.226108 0.196645
C57   C     C_R   0.696599 0.196013 0.749953 -0.315978
C58   C     C_R   0.303402 0.804004 0.250048 -0.315388
C59   C     C_R   0.803929 0.696546 0.749963 -0.316306
C60   C     C_R   0.196442 0.303841 0.249967 -0.315508
C61   C     C_R   0.304889 0.802542 0.750024 -0.323439
C62   C     C_R   0.695934 0.196663 0.249954 -0.315400
C63   C     C_R   0.196001 0.303393 0.749952 -0.315509
C64   C     C_R   0.803481 0.696071 0.249954 -0.315241
C65   C     C_R   0.696529 0.803922 0.250046 -0.315663
C66   C     C_R   0.304006 0.196597 0.750047 -0.315109
C67   C     C_R   0.804059 0.303328 0.250047 -0.315843
C68   C     C_R   0.195106 0.697447 0.749977 -0.323078
C69   C     C_R   0.303551 0.196174 0.250030 -0.315914
C70   C     C_R   0.696076 0.803468 0.750031 -0.315861
C71   C     C_R   0.196607 0.696004 0.249952 -0.315818
C72   C     C_R   0.803411 0.303994 0.750046 -0.315598
C73   C     C_R   0.499790 0.065142 0.945159 0.641119
C74   C     C_R   0.499337 0.934895 0.054841 0.641236
C75   C     C_R   0.934866 0.499590 0.945119 0.641304
C76   C     C_R   0.065056 0.499477 0.054882 0.641296
C77   C     C_R   0.500525 0.934883 0.945115 0.641350
C78   C     C_R   0.500411 0.065152 0.054885 0.641225
C79   C     C_R   0.065031 0.500679 0.945157 0.641188
C80   C     C_R   0.934888 0.500209 0.054844 0.641170
C81   C     C_R   0.999679 0.565143 0.445158 0.641171
C82   C     C_R   0.999376 0.434898 0.554841 0.641139
C83   C     C_R   0.434900 0.999698 0.445118 0.641233
C84   C     C_R   0.565085 0.999384 0.554882 0.641340
C85   C     C_R   0.000569 0.434885 0.445115 0.641289
C86   C     C_R   0.000299 0.565156 0.554885 0.641344
C87   C     C_R   0.565066 0.000593 0.445157 0.641229
C88   C     C_R   0.434919 0.000310 0.554843 0.641164
N1    N     N_R   0.500178 0.000011 0.932060 -0.327832
N2    N     N_R   0.499852 0.000025 0.067939 -0.327725
N3    N     N_R   0.999945 0.500158 0.932062 -0.327781
N4    N     N_R   0.999975 0.499822 0.067939 -0.327761
N5    N     N_R   0.000147 0.500013 0.432060 -0.327730
N6    N     N_R   0.999816 0.500029 0.567939 -0.327831
N7    N     N_R   0.499981 0.000169 0.432062 -0.327761
N8    N     N_R   0.500004 0.999825 0.567938 -0.327772
C89   C     C_R   0.500262 0.933548 0.972476 -0.033167
C90   C     C_R   0.500279 0.066486 0.027523 -0.033055
C91   C     C_R   0.066373 0.500414 0.972520 -0.033024
C92   C     C_R   0.933547 0.500071 0.027481 -0.033012
C93   C     C_R   0.499929 0.066481 0.972521 -0.032996
C94   C     C_R   0.499600 0.933555 0.027478 -0.033029
C95   C     C_R   0.933535 0.499722 0.972480 -0.033101
C96   C     C_R   0.066386 0.499744 0.027520 -0.033042
C97   C     C_R   0.000304 0.433551 0.472476 -0.033038
C98   C     C_R   0.000163 0.566490 0.527523 -0.033209
C99   C     C_R   0.566408 0.000325 0.472519 -0.032993
C100  C     C_R   0.433578 0.000176 0.527481 -0.033059
C101  C     C_R   0.999814 0.566484 0.472521 -0.033041
C102  C     C_R   0.999638 0.433558 0.527478 -0.032957
C103  C     C_R   0.433569 0.999831 0.472480 -0.033057
C104  C     C_R   0.566417 0.999652 0.527520 -0.033081
C105  C     C_R   0.500057 0.000016 0.986232 0.003056
C106  C     C_R   0.499978 0.000019 0.013767 0.003046
C107  C     C_R   0.999957 0.500028 0.986233 0.003035
C108  C     C_R   0.999963 0.499947 0.013768 0.003041
C109  C     C_R   0.000019 0.500019 0.486232 0.003045
C110  C     C_R   0.999939 0.500022 0.513767 0.003055
C111  C     C_R   0.499991 0.000037 0.486233 0.003043
C112  C     C_R   0.499996 0.999954 0.513767 0.003033
C113  C     C_R   0.500066 0.867587 0.986359 -0.094665
C114  C     C_R   0.500334 0.132447 0.013640 -0.094853
C115  C     C_R   0.132292 0.500393 0.986444 -0.094703
C116  C     C_R   0.867628 0.499949 0.013557 -0.094847
C117  C     C_R   0.500046 0.132445 0.986449 -0.094843
C118  C     C_R   0.499624 0.867591 0.013550 -0.094845
C119  C     C_R   0.867622 0.499661 0.986366 -0.094789
C120  C     C_R   0.132299 0.499946 0.013635 -0.094835
C121  C     C_R   0.000184 0.367590 0.486359 -0.094855
C122  C     C_R   0.000141 0.632451 0.513640 -0.094652
C123  C     C_R   0.632326 0.000205 0.486444 -0.094847
C124  C     C_R   0.367660 0.000153 0.513556 -0.094698
C125  C     C_R   0.999853 0.632448 0.486448 -0.094841
C126  C     C_R   0.999739 0.367593 0.513550 -0.094848
C127  C     C_R   0.367655 0.999867 0.486365 -0.094830
C128  C     C_R   0.632331 0.999756 0.513635 -0.094782
O53   O     O_2   0.499632 0.128283 0.931721 -0.488932
O54   O     O_2   0.498956 0.871755 0.068278 -0.489038
O55   O     O_2   0.871766 0.499262 0.931641 -0.488692
O56   O     O_2   0.128156 0.499261 0.068359 -0.488926
O57   O     O_2   0.500741 0.871739 0.931635 -0.488239
O58   O     O_2   0.500733 0.128295 0.068365 -0.488916
O59   O     O_2   0.128124 0.501068 0.931717 -0.488758
O60   O     O_2   0.871794 0.500366 0.068284 -0.488988
O61   O     O_2   0.999446 0.628284 0.431721 -0.489009
O62   O     O_2   0.999068 0.371758 0.568278 -0.489017
O63   O     O_2   0.371800 0.999464 0.431640 -0.488898
O64   O     O_2   0.628184 0.999074 0.568359 -0.488722
O65   O     O_2   0.000862 0.371742 0.431635 -0.488942
O66   O     O_2   0.000549 0.628300 0.568365 -0.488136
O67   O     O_2   0.628161 0.000889 0.431717 -0.489023
O68   O     O_2   0.371824 0.000560 0.568283 -0.488701
H1    H     H_    0.500159 0.815734 0.976268 0.208962
H2    H     H_    0.500508 0.184300 0.023732 0.208846
H3    H     H_    0.184105 0.500627 0.976385 0.208940
H4    H     H_    0.815814 0.499983 0.023616 0.208838
H5    H     H_    0.500008 0.184296 0.976392 0.208859
H6    H     H_    0.499396 0.815740 0.023607 0.208849
H7    H     H_    0.815805 0.499483 0.976277 0.208882
H8    H     H_    0.184116 0.499857 0.023724 0.208863
H9    H     H_    0.000338 0.315737 0.476268 0.208844
H10   H     H_    0.000254 0.684304 0.523731 0.208969
H11   H     H_    0.684140 0.000362 0.476386 0.208837
H12   H     H_    0.315846 0.000264 0.523615 0.208943
H13   H     H_    0.999754 0.684299 0.476392 0.208852
H14   H     H_    0.999572 0.315742 0.523607 0.208857
H15   H     H_    0.315838 0.999767 0.476275 0.208865
H16   H     H_    0.684148 0.999589 0.523724 0.208884
C129  C     C_R   0.065643 0.511844 0.609838 0.308621
C130  C     C_R   0.065908 0.488202 0.390184 0.307598
C131  C     C_R   0.488229 0.065700 0.609832 0.307778
C132  C     C_R   0.511778 0.065974 0.390195 0.307943
C133  C     C_R   0.934065 0.488225 0.609810 0.308188
C134  C     C_R   0.934333 0.511823 0.390166 0.307766
C135  C     C_R   0.511780 0.934021 0.609813 0.307507
C136  C     C_R   0.488165 0.934303 0.390160 0.307962
C137  C     C_R   0.565679 0.011768 0.109842 0.307626
C138  C     C_R   0.565913 0.988119 0.890181 0.307940
C139  C     C_R   0.988113 0.565681 0.109832 0.308048
C140  C     C_R   0.011643 0.565986 0.890197 0.308337
C141  C     C_R   0.434075 0.988294 0.109808 0.307686
C142  C     C_R   0.434368 0.011905 0.890169 0.308736
C143  C     C_R   0.011846 0.434035 0.109814 0.307864
C144  C     C_R   0.988233 0.434279 0.890160 0.307271
C145  C     C_R   0.064598 0.512029 0.637161 -0.183551
C146  C     C_R   0.064799 0.488013 0.362859 -0.183046
C147  C     C_R   0.488037 0.064650 0.637154 -0.183976
C148  C     C_R   0.511967 0.064859 0.362870 -0.183676
C149  C     C_R   0.935185 0.488031 0.637135 -0.183770
C150  C     C_R   0.935389 0.512012 0.362844 -0.183614
C151  C     C_R   0.511964 0.935137 0.637138 -0.182970
C152  C     C_R   0.487979 0.935354 0.362838 -0.183564
C153  C     C_R   0.564624 0.011956 0.137164 -0.183025
C154  C     C_R   0.564795 0.987933 0.862856 -0.182774
C155  C     C_R   0.987931 0.564632 0.137154 -0.183795
C156  C     C_R   0.011841 0.564875 0.862872 -0.185445
C157  C     C_R   0.435184 0.988100 0.137132 -0.183337
C158  C     C_R   0.435416 0.012092 0.862846 -0.184618
C159  C     C_R   0.012034 0.435152 0.137138 -0.183268
C160  C     C_R   0.988053 0.435333 0.862837 -0.182233
H17   H     H_    0.114874 0.521020 0.647729 0.233683
H18   H     H_    0.115044 0.479020 0.352305 0.236469
H19   H     H_    0.479070 0.114962 0.647718 0.236198
H20   H     H_    0.520956 0.115138 0.352322 0.236127
H21   H     H_    0.884942 0.479037 0.647684 0.235887
H22   H     H_    0.885118 0.521006 0.352280 0.236035
H23   H     H_    0.520926 0.884855 0.647692 0.237432
H24   H     H_    0.478989 0.885046 0.352267 0.235112
H25   H     H_    0.614907 0.020891 0.147734 0.235778
H26   H     H_    0.615025 0.978876 0.852301 0.235776
H27   H     H_    0.978897 0.614931 0.147719 0.235122
H28   H     H_    0.020751 0.615170 0.852326 0.237481
H29   H     H_    0.384928 0.979164 0.147679 0.236592
H30   H     H_    0.385154 0.021153 0.852284 0.234202
H31   H     H_    0.021069 0.384884 0.147693 0.235817
H32   H     H_    0.979147 0.385011 0.852266 0.235873
C161  C     C_R   0.999913 0.500022 0.650956 -0.134192
C162  C     C_R   0.000078 0.500010 0.349043 -0.133891
C163  C     C_R   0.500001 0.999912 0.650953 -0.133869
C164  C     C_R   0.499979 0.000088 0.349047 -0.134134
C165  C     C_R   0.499920 0.000022 0.150956 -0.133938
C166  C     C_R   0.500085 0.000009 0.849043 -0.134226
C167  C     C_R   0.999987 0.499911 0.150953 -0.134153
C168  C     C_R   0.999960 0.500086 0.849048 -0.133449
C169  C     C_R   0.999838 0.500033 0.595990 0.066355
C170  C     C_R   0.000132 0.500011 0.404009 0.066492
C171  C     C_R   0.500007 0.999846 0.595988 0.066520
C172  C     C_R   0.499975 0.000151 0.404012 0.066451
C173  C     C_R   0.499866 0.000029 0.095990 0.066453
C174  C     C_R   0.500156 0.000010 0.904010 0.066465
C175  C     C_R   0.999979 0.499843 0.095989 0.066426
C176  C     C_R   0.999939 0.500144 0.904012 0.066455
N9    N     N_R   0.803877 0.304786 0.701969 0.249115
O69   O     O_R   0.871350 0.291370 0.695922 -0.341778
O70   O     O_R   0.765806 0.348677 0.687478 -0.254400
N10   N     N_R   0.196122 0.695240 0.298028 0.249807
O71   O     O_R   0.128657 0.708692 0.304077 -0.341030
O72   O     O_R   0.234180 0.651332 0.312516 -0.253433
N11   N     N_R   0.694968 0.803808 0.701952 0.249103
O73   O     O_R   0.707963 0.871434 0.695948 -0.341672
O74   O     O_R   0.651483 0.765440 0.687376 -0.252146
N12   N     N_R   0.304226 0.195786 0.298163 0.247649
O75   O     O_R   0.295874 0.126870 0.303312 -0.344416
O76   O     O_R   0.339321 0.236977 0.314535 -0.249648
N13   N     N_R   0.189530 0.701641 0.701808 0.251558
O77   O     O_R   0.119265 0.702796 0.698487 -0.344784
O78   O     O_R   0.231166 0.681820 0.682580 -0.246728
N14   N     N_R   0.804956 0.303654 0.298209 0.247131
O79   O     O_R   0.874223 0.296902 0.303011 -0.346330
O80   O     O_R   0.763244 0.335166 0.315294 -0.249006
N15   N     N_R   0.304854 0.195933 0.701971 0.249703
O81   O     O_R   0.291412 0.128405 0.695895 -0.347761
O82   O     O_R   0.348817 0.233957 0.687517 -0.254531
N16   N     N_R   0.696332 0.804716 0.298199 0.247252
O83   O     O_R   0.703454 0.873940 0.303108 -0.346172
O84   O     O_R   0.664022 0.763054 0.315091 -0.250076
N17   N     N_R   0.804124 0.695240 0.298036 0.249154
O85   O     O_R   0.871716 0.708390 0.304034 -0.342992
O86   O     O_R   0.765949 0.651722 0.312612 -0.254178
N18   N     N_R   0.195185 0.303530 0.701795 0.247364
O87   O     O_R   0.125958 0.296605 0.696945 -0.345856
O88   O     O_R   0.236880 0.335305 0.684787 -0.251410
N19   N     N_R   0.695142 0.196185 0.298027 0.249251
O89   O     O_R   0.708777 0.128754 0.304134 -0.341611
O90   O     O_R   0.650907 0.234148 0.312420 -0.254269
N20   N     N_R   0.299714 0.808787 0.702061 0.237276
O91   O     O_R   0.256540 0.852523 0.689459 -0.293358
O92   O     O_R   0.359001 0.785659 0.690939 -0.272538
N21   N     N_R   0.196042 0.304845 0.298067 0.248298
O93   O     O_R   0.128015 0.293227 0.303788 -0.343791
O94   O     O_R   0.235275 0.346062 0.313183 -0.251677
N22   N     N_R   0.804559 0.696135 0.701807 0.246962
O95   O     O_R   0.873701 0.703364 0.696909 -0.342366
O96   O     O_R   0.762920 0.663627 0.684910 -0.249266
N23   N     N_R   0.303777 0.804868 0.298207 0.246323
O97   O     O_R   0.296916 0.874148 0.303058 -0.347541
O98   O     O_R   0.335695 0.763158 0.315199 -0.249453
N24   N     N_R   0.696232 0.195148 0.701796 0.247279
O99   O     O_R   0.703134 0.125874 0.696941 -0.345831
O100  O     O_R   0.664304 0.236855 0.684806 -0.249059
N25   N     N_R   0.303885 0.804784 0.201971 0.249213
O101  O     O_R   0.371340 0.791305 0.195915 -0.342654
O102  O     O_R   0.265858 0.848762 0.187499 -0.253439
N26   N     N_R   0.696124 0.195249 0.798031 0.249665
O103  O     O_R   0.628610 0.208549 0.804053 -0.340237
O104  O     O_R   0.734285 0.151561 0.812569 -0.254027
N27   N     N_R   0.195854 0.304307 0.201820 0.246581
O105  O     O_R   0.203591 0.373362 0.196782 -0.346847
O106  O     O_R   0.162052 0.262821 0.185198 -0.248953
N28   N     N_R   0.804823 0.696060 0.798059 0.249057
O107  O     O_R   0.793092 0.628022 0.803804 -0.341381
O108  O     O_R   0.846199 0.735258 0.813129 -0.250991
N29   N     N_R   0.695068 0.196289 0.201792 0.246395
O109  O     O_R   0.625823 0.203130 0.196966 -0.348204
O110  O     O_R   0.736740 0.164491 0.184761 -0.248637
N30   N     N_R   0.310498 0.798303 0.798190 0.252427
O111  O     O_R   0.380767 0.797144 0.801500 -0.343162
O112  O     O_R   0.268882 0.818039 0.817434 -0.247335
N31   N     N_R   0.803726 0.695310 0.201803 0.246537
O113  O     O_R   0.796496 0.626113 0.196866 -0.347898
O114  O     O_R   0.836361 0.736920 0.184973 -0.249698
N32   N     N_R   0.195181 0.304068 0.798029 0.250252
O115  O     O_R   0.208524 0.371630 0.804082 -0.346317
O116  O     O_R   0.151393 0.265967 0.812524 -0.254391
N33   N     N_R   0.304798 0.196422 0.798205 0.246635
O117  O     O_R   0.374010 0.203408 0.803073 -0.347580
O118  O     O_R   0.263136 0.164425 0.815170 -0.250900
N34   N     N_R   0.695871 0.804717 0.201965 0.249686
O119  O     O_R   0.628227 0.791718 0.195999 -0.341500
O120  O     O_R   0.734158 0.847971 0.187326 -0.253993
N35   N     N_R   0.200307 0.691161 0.797940 0.236865
O121  O     O_R   0.243502 0.647425 0.810533 -0.293795
O122  O     O_R   0.141005 0.714234 0.809067 -0.274445
N36   N     N_R   0.804820 0.303816 0.201973 0.249784
O123  O     O_R   0.791322 0.371295 0.195895 -0.340107
O124  O     O_R   0.848830 0.265751 0.187527 -0.254181
N37   N     N_R   0.695619 0.804100 0.798168 0.246699
O125  O     O_R   0.626709 0.795842 0.803267 -0.343364
O126  O     O_R   0.736769 0.838986 0.814607 -0.249538
N38   N     N_R   0.303860 0.195064 0.201943 0.249355
O127  O     O_R   0.371660 0.207406 0.196076 -0.341232
O128  O     O_R   0.265077 0.152647 0.187105 -0.252292
N39   N     N_R   0.803821 0.304832 0.798203 0.246511
O129  O     O_R   0.796842 0.374086 0.803079 -0.347500
O130  O     O_R   0.836007 0.263164 0.815144 -0.248704
N40   N     N_R   0.196263 0.695122 0.201794 0.247089
O131  O     O_R   0.203117 0.625836 0.196952 -0.345629
O132  O     O_R   0.164444 0.736841 0.184782 -0.249898
N41   N     N_R   0.133769 0.523663 0.596551 0.244547
O133  O     O_R   0.186353 0.558677 0.608085 -0.263718
O134  O     O_R   0.146197 0.494685 0.573862 -0.330316
N42   N     N_R   0.134064 0.476392 0.403495 0.244711
O135  O     O_R   0.186656 0.441467 0.391968 -0.262064
O136  O     O_R   0.146502 0.505281 0.426207 -0.330043
N43   N     N_R   0.476450 0.133880 0.596540 0.244598
O137  O     O_R   0.441498 0.186516 0.608054 -0.262780
O138  O     O_R   0.505401 0.146305 0.573868 -0.330182
N44   N     N_R   0.523582 0.134181 0.403515 0.244694
O139  O     O_R   0.558475 0.186816 0.392011 -0.262328
O140  O     O_R   0.494721 0.146626 0.426209 -0.330023
N45   N     N_R   0.865902 0.476421 0.596493 0.244691
O141  O     O_R   0.813303 0.441508 0.607998 -0.262497
O142  O     O_R   0.853465 0.505308 0.573801 -0.329997
N46   N     N_R   0.866203 0.523638 0.403458 0.244589
O143  O     O_R   0.813620 0.558633 0.391944 -0.262534
O144  O     O_R   0.853770 0.494673 0.426130 -0.330180
N47   N     N_R   0.523559 0.865810 0.596501 0.244774
O145  O     O_R   0.558435 0.813169 0.608028 -0.261960
O146  O     O_R   0.494692 0.853370 0.573789 -0.329946
N48   N     N_R   0.476352 0.866127 0.403444 0.244527
O147  O     O_R   0.441370 0.813505 0.391907 -0.262843
O148  O     O_R   0.505299 0.853687 0.426134 -0.330219
N49   N     N_R   0.633823 0.023508 0.096558 0.244602
O149  O     O_R   0.686446 0.058454 0.108095 -0.262499
O150  O     O_R   0.646223 0.994521 0.073867 -0.330211
N50   N     N_R   0.634058 0.976224 0.903490 0.244675
O151  O     O_R   0.686605 0.941239 0.891960 -0.262215
O152  O     O_R   0.646537 0.005093 0.926202 -0.330102
N51   N     N_R   0.976232 0.633843 0.096540 0.244538
O153  O     O_R   0.941203 0.686428 0.108055 -0.262948
O154  O     O_R   0.005162 0.646310 0.073868 -0.330178
N52   N     N_R   0.023339 0.634209 0.903519 0.244892
O155  O     O_R   0.058165 0.686894 0.892018 -0.261966
O156  O     O_R   0.994446 0.646609 0.926210 -0.329993
N53   N     N_R   0.365904 0.976565 0.096488 0.244748
O157  O     O_R   0.313266 0.941701 0.107990 -0.262136
O158  O     O_R   0.353503 0.005474 0.073797 -0.330004
N54   N     N_R   0.366258 0.023808 0.903464 0.244411
O159  O     O_R   0.313720 0.058880 0.891953 -0.263908
O160  O     O_R   0.353792 0.994853 0.926134 -0.330138
N55   N     N_R   0.023717 0.365841 0.096502 0.244680
O161  O     O_R   0.058674 0.313251 0.108027 -0.262347
O162  O     O_R   0.994862 0.353359 0.073791 -0.330049
N56   N     N_R   0.976520 0.366083 0.903442 0.244568
O163  O     O_R   0.941619 0.313411 0.891903 -0.262542
O164  O     O_R   0.005482 0.353685 0.926132 -0.330273

loop_
_geom_bond_atom_site_label_1
_geom_bond_atom_site_label_2
_geom_bond_distance
_ccdc_geom_bond_type
N16   O84   1.300552 A    
N51   O153  1.301607 A    
C120  H8    1.083049 S    
C115  H3    1.083048 S    
C144  C176  1.418141 A    
Zn5   O51   1.945145 S    
C40   N24   1.436951 S    
N7    C172  1.440863 S    
C157  H29   1.083065 S    
N9    O69   1.301011 A    
C130  C146  1.403743 A    
O17   C5    1.288113 A    
C56   N40   1.436978 S    
C95   C107  1.408916 A    
N43   O138  1.300949 A    
C80   O60   1.349180 S    
Zn3   O38   1.945442 S    
C138  C174  1.418203 A    
Zn5   O20   1.892952 S    
C85   C97   1.405753 A    
Zn6   O19   1.892952 S    
C156  C168  1.401111 A    
C123  H11   1.083048 S    
C115  C120  1.396746 A    
N36   O124  1.300631 A    
Zn13  O35   1.945145 S    
C113  C118  1.396760 A    
O34   C22   1.265727 A    
Zn14  O36   1.945143 S    
C142  C174  1.418146 A    
Zn3   O3    1.956141 S    
C131  N43   1.442031 S    
C76   N4    1.370889 A    
N48   O148  1.300954 A    
C74   C94   1.405758 A    
C42   N26   1.434714 S    
C83   O63   1.349179 S    
C130  N42   1.442041 S    
C26   C71   1.409211 A    
C134  C150  1.403638 A    
C74   N2    1.370897 A    
C27   N11   1.434846 S    
C100  C112  1.408918 A    
C113  H1    1.083045 S    
C146  C162  1.401125 A    
C16   C58   1.455003 S    
N12   O76   1.300560 A    
C116  C119  1.396744 A    
N22   O95   1.301290 A    
C54   C69   1.409228 A    
C95   C119  1.405380 A    
Zn1   O44   1.945393 S    
Zn2   O43   1.945392 S    
C136  C172  1.418143 A    
C93   C117  1.405382 A    
O22   C10   1.265101 A    
Zn3   O18   1.893737 S    
C104  C128  1.405385 A    
C38   C59   1.409622 A    
C85   N5    1.370898 A    
N14   O79   1.301307 A    
C84   C104  1.405740 A    
C107  C108  1.414381 A    
N2    C173  1.440894 S    
C42   C55   1.398205 A    
C126  H14   1.083047 S    
C45   C52   1.398218 A    
C77   N1    1.370897 A    
O40   C18   1.268007 A    
N27   O105  1.301260 A    
C47   C50   1.398274 A    
C43   N27   1.436661 S    
N26   O103  1.301016 A    
C73   C93   1.405745 A    
C37   N21   1.435282 S    
C88   O68   1.349182 S    
C31   N15   1.434740 S    
C20   C70   1.454997 S    
C79   C91   1.405736 A    
Zn12  O30   1.945856 S    
Zn7   O3    1.957956 S    
C36   C61   1.409420 A    
C131  C147  1.403617 A    
C123  C128  1.396751 A    
C35   N19   1.434685 S    
C96   C120  1.405385 A    
O9    C1    1.288123 A    
C143  C159  1.403733 A    
O11   C3    1.288589 A    
N54   O159  1.301607 A    
N52   O156  1.300953 A    
Zn13  O4    1.958800 S    
C155  C167  1.401108 A    
Zn14  O3    1.958799 S    
Zn15  O26   1.945574 S    
N22   O96   1.300559 A    
C22   C72   1.455005 S    
O44   C22   1.264888 A    
C91   C115  1.405382 A    
C142  C158  1.403640 A    
C51   C68   1.409409 A    
C92   C116  1.405379 A    
C119  H7    1.083048 S    
C52   C67   1.409142 A    
N41   O134  1.300950 A    
C117  H5    1.083045 S    
C128  H16   1.083048 S    
O38   C20   1.264467 A    
C130  C170  1.418207 A    
C7    C162  1.480180 S    
C159  C167  1.401102 A    
C74   O54   1.349176 S    
Zn16  O34   1.944919 S    
C35   C62   1.409104 A    
C81   O61   1.349180 S    
N40   O131  1.301299 A    
Zn4   O4    1.956137 S    
C33   C64   1.409278 A    
C154  C166  1.401123 A    
C103  C111  1.408917 A    
O5    C1    1.288020 A    
N10   O72   1.300627 A    
C124  H12   1.083048 S    
C90   C114  1.405383 A    
N45   O141  1.301610 A    
N8    C171  1.440863 S    
C139  C155  1.403621 A    
C140  C156  1.403733 A    
Zn15  O2    1.957956 S    
N15   O82   1.300639 A    
Zn11  O2    1.956141 S    
Zn16  O5    1.892827 S    
C49   N33   1.437022 S    
C150  H22   1.083068 S    
O27   C15   1.264925 A    
C56   C71   1.409503 A    
O29   C17   1.264957 A    
N5    C170  1.440894 S    
C90   C106  1.408911 A    
C137  C153  1.403636 A    
N32   O115  1.301007 A    
C109  C110  1.414407 A    
N51   O154  1.300950 A    
C97   C109  1.408916 A    
Zn8   O13   1.892827 S    
O13   C5    1.288020 A    
O46   C12   1.264919 A    
N46   O143  1.301607 A    
N55   O162  1.300951 A    
C80   N4    1.370889 A    
O14   C6    1.288016 A    
N13   O78   1.301140 A    
N30   O111  1.301443 A    
O43   C21   1.264909 A    
C141  C157  1.403750 A    
N17   O86   1.300631 A    
Zn9   O28   1.945393 S    
C44   C59   1.409359 A    
C53   N37   1.436465 S    
N38   O127  1.301058 A    
N47   O146  1.300949 A    
C85   O65   1.349179 S    
C46   C51   1.399205 A    
C9    C59   1.455081 S    
C158  H30   1.083058 S    
Zn15  O33   1.944918 S    
C94   C106  1.408912 A    
C43   C54   1.398149 A    
C45   N29   1.437092 S    
N34   O120  1.300614 A    
C77   O57   1.349179 S    
C47   C64   1.409419 A    
C26   C39   1.398216 A    
C132  C148  1.403733 A    
C45   C62   1.409550 A    
C86   C98   1.405745 A    
C97   C121  1.405387 A    
C44   N28   1.435131 S    
N42   O136  1.300948 A    
C158  C166  1.401119 A    
N20   O91   1.300666 A    
C87   N7    1.370890 A    
C30   C67   1.409598 A    
C31   C66   1.409208 A    
C153  C165  1.401135 A    
O31   C19   1.264447 A    
C27   C38   1.398203 A    
C36   N20   1.433620 S    
N24   O100  1.300558 A    
C121  C126  1.396760 A    
O37   C19   1.265160 A    
N28   O108  1.300589 A    
C99   C123  1.405383 A    
C152  C164  1.401111 A    
N50   O151  1.301608 A    
N27   O106  1.300559 A    
C103  C127  1.405383 A    
O51   C13   1.266278 A    
N23   O98   1.300572 A    
C101  C125  1.405384 A    
C160  C168  1.401121 A    
C147  C163  1.401115 A    
O8    C4    1.288668 A    
N39   O130  1.300567 A    
Zn4   O17   1.893737 S    
O48   C10   1.264406 A    
C86   N6    1.370896 A    
C24   C66   1.455224 S    
N42   O135  1.301611 A    
O16   C8    1.288654 A    
C78   N2    1.370895 A    
C121  H9    1.083049 S    
Zn1   O1    1.957144 S    
O52   C14   1.265328 A    
C44   C53   1.398137 A    
N41   O133  1.301607 A    
C5    C164  1.480113 S    
C6    C163  1.480113 S    
O45   C11   1.262543 A    
C54   N38   1.434974 S    
C32   C33   1.398290 A    
C73   O53   1.349180 S    
C99   C111  1.408918 A    
C152  H24   1.083064 S    
C41   C58   1.409197 A    
C153  H25   1.083065 S    
C43   C60   1.409451 A    
C140  C176  1.418196 A    
N37   O126  1.300579 A    
N56   O163  1.301609 A    
O42   C24   1.265374 A    
Zn16  O25   1.945572 S    
O6    C2    1.288017 A    
C28   N12   1.436308 S    
C157  C165  1.401128 A    
C28   C37   1.398129 A    
N36   O123  1.301002 A    
C32   N16   1.436845 S    
Zn4   O37   1.945443 S    
N46   O144  1.300953 A    
Zn5   O40   1.944437 S    
Zn6   O39   1.944439 S    
C10   C60   1.454944 S    
N35   O121  1.300666 A    
C77   C89   1.405753 A    
C105  C106  1.414407 A    
N34   O119  1.301030 A    
N29   O110  1.300575 A    
N25   O101  1.301008 A    
C129  C145  1.403643 A    
N4    C175  1.440863 S    
C15   C57   1.455145 S    
N33   O118  1.300568 A    
C25   C40   1.398217 A    
C133  C169  1.418202 A    
C48   N32   1.434680 S    
Zn5   O1    1.958800 S    
C30   C35   1.398234 A    
C11   C61   1.454853 S    
Zn4   O46   1.945856 S    
C101  C109  1.408913 A    
C148  C164  1.401106 A    
N14   O80   1.300566 A    
Zn12  O21   1.945443 S    
Zn13  O24   1.944437 S    
C141  N53   1.442038 S    
C104  C112  1.408919 A    
C114  C117  1.396755 A    
O35   C23   1.265363 A    
Zn14  O23   1.944439 S    
C144  C160  1.403616 A    
Zn15  O6    1.892827 S    
C75   O55   1.349179 S    
N43   O137  1.301611 A    
C145  H17   1.083054 S    
Zn16  O1    1.957955 S    
N53   O158  1.300950 A    
N26   O104  1.300622 A    
Zn12  O1    1.956137 S    
C89   C113  1.405387 A    
O32   C20   1.265072 A    
Zn13  O12   1.892952 S    
C151  H23   1.083074 S    
C3    C166  1.480185 S    
C51   N35   1.433709 S    
Zn14  O11   1.892952 S    
N6    C169  1.440899 S    
C138  C154  1.403750 A    
N16   O83   1.301286 A    
Zn7   O14   1.892827 S    
O12   C4    1.288579 A    
C100  C124  1.405384 A    
C79   O59   1.349179 S    
C49   C66   1.409503 A    
N21   O94   1.300598 A    
N54   O160  1.300949 A    
C50   N34   1.434801 S    
N9    O70   1.300637 A    
N21   O93   1.301090 A    
C82   N6    1.370897 A    
C132  N44   1.442042 S    
N11   O73   1.301024 A    
O7    C3    1.288652 A    
C34   C63   1.409545 A    
C116  H4    1.083047 S    
C26   N10   1.434671 S    
C94   C118  1.405387 A    
N18   O87   1.301298 A    
O21   C9    1.264496 A    
C143  C175  1.418197 A    
C87   O67   1.349177 S    
O49   C15   1.265763 A    
O23   C11   1.268046 A    
O39   C17   1.265641 A    
Zn11  O22   1.945442 S    
N55   O161  1.301607 A    
C127  H15   1.083049 S    
Zn7   O49   1.944918 S    
C84   O64   1.349177 S    
Zn9   O4    1.957144 S    
O15   C7    1.288668 A    
C159  H31   1.083067 S    
Zn10  O3    1.957140 S    
O25   C13   1.265413 A    
C149  C161  1.401132 A    
N31   O114  1.300560 A    
C135  C151  1.403727 A    
C47   N31   1.436867 S    
C93   C105  1.408912 A    
N40   O132  1.300561 A    
O18   C6    1.288117 A    
Zn9   O31   1.944926 S    
Zn10  O32   1.944928 S    
C80   C92   1.405727 A    
C46   C61   1.409146 A    
Zn11  O29   1.945858 S    
C81   N5    1.370897 A    
C14   C64   1.455217 S    
C39   N23   1.437043 S    
N37   O125  1.301240 A    
C87   C99   1.405741 A    
N12   O75   1.301230 A    
C88   C100  1.405722 A    
C46   N30   1.439067 S    
O41   C23   1.266320 A    
C139  N51   1.442027 S    
O28   C16   1.264873 A    
N32   O116  1.300624 A    
C75   N3    1.370889 A    
C76   C96   1.405735 A    
C1    C168  1.480129 S    
C38   N22   1.436855 S    
C2    C167  1.480103 S    
C118  H6    1.083044 S    
C114  H2    1.083046 S    
C75   C95   1.405731 A    
C111  C112  1.414381 A    
C25   C72   1.409185 A    
C83   C103  1.405727 A    
C142  N54   1.442028 S    
N13   O77   1.301443 A    
C155  H27   1.083065 S    
N30   O112  1.301124 A    
C145  C161  1.401126 A    
N49   O149  1.301608 A    
N17   O85   1.301023 A    
C136  C152  1.403621 A    
C29   C36   1.399181 A    
C13   C63   1.455363 S    
N15   O81   1.301003 A    
C137  C173  1.418148 A    
C31   C34   1.398302 A    
C41   N25   1.434751 S    
N38   O128  1.300605 A    
C133  N45   1.442045 S    
N44   O139  1.301610 A    
C143  N55   1.442033 S    
C76   O56   1.349178 S    
C154  H26   1.083061 S    
C141  C173  1.418201 A    
N23   O97   1.301299 A    
Zn8   O50   1.944919 S    
Zn2   O2    1.957140 S    
C102  C110  1.408914 A    
N31   O113  1.301282 A    
O26   C14   1.266285 A    
N19   O89   1.300996 A    
C79   N3    1.370891 A    
N39   O129  1.301293 A    
C147  H19   1.083069 S    
C148  H20   1.083066 S    
O19   C7    1.288573 A    
Zn8   O4    1.957955 S    
C133  C149  1.403747 A    
C160  H32   1.083066 S    
C25   N9    1.434768 S    
Zn8   O41   1.945572 S    
N20   O92   1.300875 A    
N35   O122  1.300889 A    
C131  C171  1.418146 A    
C135  C171  1.418204 A    
C132  C172  1.418205 A    
C48   C49   1.398291 A    
C136  N48   1.442027 S    
N52   O155  1.301606 A    
O20   C8    1.288597 A    
C125  H13   1.083045 S    
C41   C56   1.398222 A    
C91   C107  1.408915 A    
C21   C71   1.455147 S    
O24   C12   1.265604 A    
C34   N18   1.436971 S    
N1    C174  1.440894 S    
C86   O66   1.349179 S    
Zn7   O42   1.945574 S    
C82   C102  1.405758 A    
Zn6   O52   1.945143 S    
C78   C90   1.405750 A    
N49   O150  1.300953 A    
C29   N13   1.439130 S    
C19   C69   1.455124 S    
Zn1   O47   1.944926 S    
C140  N52   1.442033 S    
C78   O58   1.349178 S    
Zn2   O48   1.944928 S    
C134  C170  1.418149 A    
Zn3   O45   1.945858 S    
Zn6   O2    1.958799 S    
C33   N17   1.434844 S    
C98   C122  1.405386 A    
C12   C62   1.455003 S    
N18   O88   1.300562 A    
C135  N47   1.442039 S    
C28   C69   1.409274 A    
Zn11  O10   1.893737 S    
C92   C108  1.408913 A    
C55   C72   1.409469 A    
C146  H18   1.083068 S    
Zn1   O16   1.893783 S    
C138  N50   1.442041 S    
C139  C175  1.418140 A    
Zn2   O15   1.893783 S    
N11   O74   1.300631 A    
C53   C70   1.409280 A    
C134  N46   1.442030 S    
C151  C163  1.401109 A    
C4    C165  1.480196 S    
C96   C108  1.408919 A    
N47   O145  1.301609 A    
C23   C65   1.455356 S    
C122  C125  1.396755 A    
C81   C101  1.405745 A    
C144  N56   1.442026 S    
N19   O90   1.300643 A    
C84   N8    1.370888 A    
C50   C65   1.409320 A    
C129  C169  1.418143 A    
C17   C67   1.455140 S    
C18   C68   1.454711 S    
N10   O71   1.301008 A    
C83   N7    1.370890 A    
C102  C126  1.405386 A    
C40   C57   1.409511 A    
C52   N36   1.434633 S    
C8    C161  1.480201 S    
N45   O142  1.300953 A    
N3    C176  1.440858 S    
N56   O164  1.300954 A    
C32   C65   1.409471 A    
N48   O147  1.301608 A    
O47   C9    1.265081 A    
C73   N1    1.370897 A    
C27   C70   1.409070 A    
C129  N41   1.442028 S    
C37   C60   1.409377 A    
Zn10  O27   1.945392 S    
C39   C58   1.409481 A    
O33   C21   1.265781 A    
C122  H10   1.083045 S    
Zn9   O8    1.893783 S    
Zn10  O7    1.893783 S    
N29   O109  1.301300 A    
C149  H21   1.083067 S    
Zn12  O9    1.893737 S    
C150  C162  1.401132 A    
C89   C105  1.408916 A    
N33   O117  1.301297 A    
C98   C110  1.408914 A    
N24   O99   1.301297 A    
C48   C63   1.409242 A    
C124  C127  1.396744 A    
O10   C2    1.288111 A    
N50   O152  1.300950 A    
C156  H28   1.083069 S    
N44   O140  1.300952 A    
C82   O62   1.349173 S    
N28   O107  1.301079 A    
O36   C24   1.266241 A    
C42   C57   1.409223 A    
O50   C16   1.265742 A    
C88   N8    1.370891 A    
N25   O102  1.300638 A    
N53   O157  1.301609 A    
C137  N49   1.442025 S    
C30   N14   1.437060 S    
C29   C68   1.409128 A    
C55   N39   1.436990 S    
O30   C18   1.262509 A    
