data_mof_unit_pretest_1648.cif
_audit_creation_date              2012-12-10T16:52:56-0500
_audit_creation_method            fapswitch 2.2
_symmetry_space_group_name_H-M    P1
_symmetry_Int_Tables_number       1
_space_group_crystal_system       triclinic
_cell_length_a                    23.56032
_cell_length_b                    30.807191
_cell_length_c                    19.216907
_cell_angle_alpha                 90.026123
_cell_angle_beta                  127.017498
_cell_angle_gamma                 89.930907
_cell_volume                      11136.9192992

loop_
_atom_site_label
_atom_site_type_symbol
_atom_type_description
_atom_site_fract_x
_atom_site_fract_y
_atom_site_fract_z
_atom_type_partial_charge
C1    C     C_R   0.807240 0.190579 0.119480 0.970006
C2    C     C_R   0.359335 0.749836 0.999709 0.904705
C3    C     C_R   0.359357 0.250132 0.999742 0.909052
C4    C     C_R   0.640632 0.749854 0.000235 0.906153
C5    C     C_R   0.140674 0.750155 0.000308 0.908848
C6    C     C_R   0.859325 0.249847 0.999688 0.907625
C7    C     C_R   0.859367 0.750144 0.999763 0.906093
C8    C     C_R   0.140634 0.249858 0.000241 0.904844
C9    C     C_1   0.580636 0.250532 0.000577 -0.177029
C10   C     C_1   0.419379 0.749437 0.999453 -0.175776
C11   C     C_1   0.419468 0.250498 0.999626 -0.177744
C12   C     C_R   0.193228 0.809434 0.880577 0.966073
C13   C     C_1   0.580517 0.749471 0.000343 -0.176481
C14   C     C_1   0.080635 0.750543 0.000572 -0.177243
C15   C     C_1   0.919364 0.249460 0.999425 -0.176637
C16   C     C_1   0.919483 0.750521 0.999655 -0.176962
C17   C     C_1   0.080518 0.249483 0.000349 -0.176361
C18   C     C_1   0.529796 0.250679 0.000367 0.006326
C19   C     C_1   0.470211 0.749278 0.999647 0.008299
C20   C     C_1   0.470340 0.250663 0.999903 0.006270
C21   C     C_1   0.529653 0.749294 0.000083 0.008243
C22   C     C_1   0.029801 0.750700 0.000373 0.006958
C23   C     C_R   0.192731 0.190571 0.880517 0.970874
C24   C     C_1   0.970199 0.249304 0.999625 0.007015
C25   C     C_1   0.970352 0.750689 0.999925 0.007475
C26   C     C_1   0.029649 0.249315 0.000077 0.007527
C27   C     C_2   0.833483 0.092260 0.252571 -0.326740
C28   C     C_2   0.165295 0.910033 0.751609 -0.316196
C29   C     C_2   0.166401 0.092193 0.747419 -0.326537
C30   C     C_2   0.834840 0.910115 0.248363 -0.315859
C31   C     C_2   0.333486 0.592249 0.252554 -0.326779
C32   C     C_2   0.666511 0.407754 0.747454 -0.326782
C33   C     C_2   0.665167 0.589886 0.751637 -0.315897
C34   C     C_R   0.806798 0.809442 0.119427 0.966894
C35   C     C_2   0.334826 0.410106 0.248377 -0.316038
C36   C     C_2   0.903964 0.086543 0.303149 -0.391523
C37   C     C_2   0.094573 0.912514 0.694896 -0.399101
C38   C     C_2   0.095922 0.086549 0.696821 -0.391435
C39   C     C_2   0.905559 0.912503 0.305147 -0.399146
C40   C     C_2   0.403970 0.586548 0.303159 -0.391141
C41   C     C_2   0.596026 0.413451 0.696839 -0.391266
C42   C     C_2   0.594447 0.587492 0.694862 -0.399297
C43   C     C_2   0.405548 0.412513 0.305129 -0.399265
C44   C     C_2   0.799442 0.121645 0.176463 0.530611
C45   C     C_R   0.307239 0.690578 0.119480 0.970583
C46   C     C_2   0.197586 0.880605 0.826996 0.526063
C47   C     C_2   0.200445 0.121564 0.823528 0.530507
C48   C     C_2   0.802571 0.880698 0.172983 0.525838
C49   C     C_2   0.299450 0.621631 0.176440 0.530761
C50   C     C_2   0.700542 0.378372 0.823565 0.530795
C51   C     C_2   0.697441 0.619310 0.827009 0.525673
C52   C     C_2   0.302546 0.380684 0.173000 0.525791
C53   C     C_2   0.834250 0.158586 0.187406 -0.418472
C54   C     C_2   0.167316 0.841443 0.812837 -0.425420
C55   C     C_2   0.165646 0.158564 0.812601 -0.418639
C56   C     C_R   0.692761 0.309422 0.880521 0.970036
C57   C     C_2   0.832787 0.841468 0.187158 -0.425665
C58   C     C_2   0.334237 0.658585 0.187406 -0.418680
C59   C     C_2   0.665761 0.341415 0.812595 -0.418572
C60   C     C_2   0.667204 0.658532 0.812841 -0.425602
C61   C     C_2   0.332801 0.341469 0.187159 -0.425449
C62   C     C_R   0.439856 0.441384 0.378685 0.977111
C63   C     C_R   0.560143 0.558616 0.621313 0.977127
C64   C     C_R   0.560478 0.441567 0.621778 0.974579
C65   C     C_R   0.439521 0.558433 0.378222 0.974575
C66   C     C_R   0.939859 0.941381 0.378691 0.976339
C67   C     C_R   0.693200 0.690558 0.880572 0.966831
C68   C     C_R   0.060437 0.058435 0.621770 0.975233
C69   C     C_R   0.060188 0.941387 0.621325 0.976464
C70   C     C_R   0.939520 0.058432 0.378219 0.975380
C71   C     C_3   0.707518 0.071926 0.088519 0.102718
C72   C     C_3   0.640480 0.065849 0.995915 -0.815459
C73   C     C_3   0.264358 0.934625 0.928778 0.112211
C74   C     C_3   0.321993 0.940745 0.025922 -0.813650
C75   C     C_3   0.292485 0.071771 0.911392 0.102659
C76   C     C_3   0.359568 0.065639 0.003967 -0.815537
C77   C     C_3   0.735952 0.934770 0.071122 0.112375
C78   C     C_R   0.306802 0.309442 0.119428 0.966284
C79   C     C_3   0.678262 0.940935 0.973991 -0.813839
C80   C     C_3   0.207496 0.571912 0.088557 0.102328
C81   C     C_3   0.140505 0.565794 0.995935 -0.813814
C82   C     C_3   0.792409 0.428121 0.911534 0.102374
C83   C     C_3   0.859385 0.434228 0.004171 -0.813821
C84   C     C_3   0.764123 0.565263 0.928901 0.112373
C85   C     C_3   0.821810 0.559130 0.026043 -0.814584
C86   C     C_3   0.235739 0.434739 0.071166 0.112275
C87   C     C_3   0.178052 0.440880 0.974026 -0.814495
C88   C     C_R   0.640676 0.250151 0.000313 0.907618
H1    H     H_    0.801061 0.075255 0.266566 0.170476
H2    H     H_    0.060799 0.895306 0.706644 0.157277
H3    H     H_    0.063751 0.100917 0.714078 0.158536
H4    H     H_    0.939376 0.895219 0.293477 0.157272
H5    H     H_    0.436120 0.600873 0.285892 0.158587
H6    H     H_    0.563873 0.399123 0.714097 0.158552
H7    H     H_    0.560632 0.604772 0.706538 0.157238
H8    H     H_    0.439357 0.395245 0.293429 0.157211
H9    H     H_    0.882301 0.167420 0.250957 0.125645
H10   H     H_    0.123301 0.831404 0.747382 0.129828
H11   H     H_    0.117563 0.167436 0.749069 0.125647
H12   H     H_    0.199212 0.930412 0.744648 0.174949
H13   H     H_    0.876801 0.831389 0.252616 0.129878
H14   H     H_    0.382256 0.667430 0.250977 0.125693
H15   H     H_    0.617742 0.332569 0.749023 0.125604
H16   H     H_    0.623170 0.668605 0.747390 0.129928
H17   H     H_    0.376849 0.331400 0.252606 0.129820
H18   H     H_    0.693709 0.065374 0.133590 0.136062
H19   H     H_    0.748018 0.048168 0.099800 0.134074
H20   H     H_    0.652585 0.070592 0.948800 0.253881
H21   H     H_    0.619296 0.032583 0.988079 0.201515
H22   H     H_    0.599353 0.089685 0.981818 0.263971
H23   H     H_    0.198837 0.075134 0.733430 0.170424
H24   H     H_    0.213160 0.946181 0.913755 0.137070
H25   H     H_    0.278165 0.954715 0.892845 0.128958
H26   H     H_    0.374583 0.931617 0.042877 0.256541
H27   H     H_    0.323601 0.975210 0.043897 0.201491
H28   H     H_    0.310636 0.920111 0.063594 0.259589
H29   H     H_    0.306274 0.065236 0.866281 0.136055
H30   H     H_    0.252051 0.048028 0.900127 0.134107
H31   H     H_    0.347487 0.070350 0.051124 0.253874
H32   H     H_    0.380842 0.032371 0.011748 0.201492
H33   H     H_    0.400619 0.089470 0.018058 0.263975
H34   H     H_    0.800894 0.930567 0.255258 0.174976
H35   H     H_    0.787162 0.946129 0.086038 0.137083
H36   H     H_    0.722288 0.955002 0.107092 0.128864
H37   H     H_    0.625667 0.932017 0.957148 0.256466
H38   H     H_    0.676773 0.975366 0.955955 0.201520
H39   H     H_    0.689459 0.920160 0.936280 0.259643
H40   H     H_    0.193606 0.565473 0.133585 0.136345
H41   H     H_    0.247982 0.548096 0.099989 0.133955
H42   H     H_    0.152706 0.570383 0.948875 0.253539
H43   H     H_    0.119213 0.532571 0.988211 0.201243
H44   H     H_    0.099419 0.589714 0.981653 0.264845
H45   H     H_    0.301062 0.575229 0.266528 0.170449
H46   H     H_    0.751870 0.451878 0.900153 0.133936
H47   H     H_    0.806284 0.434656 0.866522 0.136330
H48   H     H_    0.900525 0.410370 0.018396 0.264819
H49   H     H_    0.880598 0.467482 0.011976 0.201261
H50   H     H_    0.847195 0.429539 0.051219 0.253553
H51   H     H_    0.777812 0.545026 0.892958 0.128745
H52   H     H_    0.712920 0.553890 0.913993 0.137208
H53   H     H_    0.810590 0.579918 0.063721 0.259740
H54   H     H_    0.823317 0.524705 0.044131 0.201659
H55   H     H_    0.874402 0.568054 0.042880 0.255929
H56   H     H_    0.698942 0.424777 0.733494 0.170513
H57   H     H_    0.286918 0.446188 0.086105 0.137233
H58   H     H_    0.221980 0.454907 0.107117 0.128785
H59   H     H_    0.125480 0.431858 0.957151 0.255975
H60   H     H_    0.176437 0.475327 0.955985 0.201672
H61   H     H_    0.189360 0.420172 0.936338 0.259684
H62   H     H_    0.699113 0.569436 0.744737 0.174856
H63   H     H_    0.300884 0.430542 0.255306 0.174828
H64   H     H_    0.936106 0.100855 0.285860 0.158524
O1    O     O_R   0.820770 0.230320 0.141550 -0.636691
O2    O     O_R   0.230290 0.820740 0.960580 -0.568275
O3    O     O_R   0.230290 0.179260 0.960580 -0.568712
O4    O     O_R   0.769710 0.820740 0.039420 -0.568098
O5    O     O_R   0.269710 0.679260 0.039420 -0.568633
O6    O     O_R   0.730290 0.320740 0.960580 -0.568821
O7    O     O_R   0.730290 0.679260 0.960580 -0.568158
O8    O     O_R   0.269710 0.320740 0.039420 -0.568286
O9    O     O_R   0.692770 0.275550 0.051090 -0.623899
O10   O     O_R   0.307230 0.724450 0.948910 -0.623989
O11   O     O_R   0.307230 0.275550 0.948910 -0.624113
O12   O     O_R   0.179230 0.769680 0.858450 -0.636322
O13   O     O_R   0.692770 0.724450 0.051090 -0.624210
O14   O     O_R   0.192770 0.775550 0.051090 -0.624263
O15   O     O_R   0.807230 0.224450 0.948910 -0.623957
O16   O     O_R   0.807230 0.775550 0.948910 -0.624132
O17   O     O_R   0.192770 0.224450 0.051090 -0.623821
O18   O     O_R   0.641720 0.224490 0.948960 -0.607484
O19   O     O_R   0.358280 0.775510 0.051040 -0.607595
O20   O     O_R   0.358280 0.224490 0.051040 -0.607127
O21   O     O_R   0.641720 0.775510 0.948960 -0.607241
O22   O     O_R   0.141720 0.724490 0.948960 -0.606732
O23   O     O_R   0.179230 0.230320 0.858450 -0.636529
O24   O     O_R   0.858280 0.275510 0.051040 -0.607250
O25   O     O_R   0.858280 0.724490 0.051040 -0.607553
O26   O     O_R   0.141720 0.275510 0.948960 -0.608075
O27   O     O_R   0.501540 0.454790 0.409570 -0.626990
O28   O     O_R   0.498460 0.545210 0.590430 -0.626980
O29   O     O_R   0.498460 0.454790 0.590430 -0.626741
O30   O     O_R   0.501540 0.545210 0.409570 -0.626719
O31   O     O_R   0.001540 0.954790 0.409570 -0.626965
O32   O     O_R   0.998460 0.045210 0.590430 -0.626751
O33   O     O_R   0.998460 0.954790 0.590430 -0.626956
O34   O     O_R   0.820770 0.769680 0.141550 -0.636144
O35   O     O_R   0.001540 0.045210 0.409570 -0.626751
O36   O     O_R   0.408080 0.454790 0.409570 -0.619491
O37   O     O_R   0.591920 0.545210 0.590430 -0.619468
O38   O     O_R   0.591920 0.454790 0.590430 -0.621955
O39   O     O_R   0.408080 0.545210 0.409570 -0.621959
O40   O     O_R   0.908080 0.954790 0.409570 -0.619814
O41   O     O_R   0.091920 0.045210 0.590430 -0.621584
O42   O     O_R   0.091920 0.954790 0.590430 -0.619866
O43   O     O_R   0.908080 0.045210 0.409570 -0.621594
O44   O     O_3   0.731584 0.115060 0.098576 -0.587820
O45   O     O_R   0.320770 0.730320 0.141550 -0.636465
O46   O     O_3   0.261111 0.890278 0.907813 -0.584289
O47   O     O_3   0.268326 0.114916 0.901393 -0.587897
O48   O     O_3   0.739061 0.890456 0.092163 -0.584344
O49   O     O_3   0.231638 0.615018 0.098494 -0.587665
O50   O     O_3   0.768360 0.384985 0.901499 -0.587649
O51   O     O_3   0.760981 0.609572 0.907809 -0.584659
O52   O     O_3   0.238989 0.390410 0.092205 -0.584654
O53   O     O_R   0.679230 0.269680 0.858450 -0.636734
O54   O     O_R   0.679230 0.730320 0.858450 -0.636112
O55   O     O_R   0.320770 0.269680 0.141550 -0.636400
O56   O     O_R   0.769710 0.179260 0.039420 -0.568910
Zn1   Zn    Zn3+2 0.784110 0.284120 0.068220 0.988347
Zn2   Zn    Zn3+2 0.062380 1.000000 0.499980 0.949299
Zn3   Zn    Zn3+2 0.437620 0.500000 0.500020 0.949274
Zn4   Zn    Zn3+2 0.562380 0.500000 0.499980 0.949307
Zn5   Zn    Zn3+2 0.215890 0.715880 0.931780 0.988064
Zn6   Zn    Zn3+2 0.215890 0.284120 0.931780 0.984403
Zn7   Zn    Zn3+2 0.784110 0.715880 0.068220 0.984031
Zn8   Zn    Zn3+2 0.284110 0.784120 0.068220 0.984717
Zn9   Zn    Zn3+2 0.715890 0.215880 0.931780 0.988022
Zn10  Zn    Zn3+2 0.715890 0.784120 0.931780 0.984438
Zn11  Zn    Zn3+2 0.284110 0.215880 0.068220 0.987794
Zn12  Zn    Zn3+2 0.937620 1.000000 0.500020 0.949337

loop_
_geom_bond_atom_site_label_1
_geom_bond_atom_site_label_2
_ccdc_geom_bond_type
C7    O16   A    
C16   C25   T    
O33   Zn12  S    
C37   C69   S    
C5    O22   A    
O25   Zn7   S    
C71   O44   S    
C31   C40   D    
C75   H29   S    
C3    C11   S    
C40   H5    S    
C31   H45   S    
C85   H55   S    
C81   H42   S    
C48   C57   D    
C2    O10   A    
O54   Zn10  S    
O31   Zn2   S    
C28   C46   S    
C76   H32   S    
C62   O36   A    
C87   H59   S    
C37   H2    S    
C29   C47   S    
C17   C26   T    
C30   C48   S    
C19   C21   S    
C24   C26   S    
C23   O3    A    
C33   H62   S    
C9    C88   S    
O36   Zn3   S    
C3    O20   A    
C46   O46   S    
C23   O23   A    
C38   C68   S    
C45   O45   A    
C88   O9    A    
C74   H26   S    
O53   Zn9   S    
C73   H25   S    
O24   Zn1   S    
C7    O25   A    
C73   C74   S    
C82   H47   S    
C34   O34   A    
C1    O56   A    
C1    C53   S    
C78   O55   A    
C56   O6    A    
C6    C15   S    
C6    O15   A    
C44   C53   D    
O13   Zn7   S    
C68   O32   A    
C56   O53   A    
C4    C13   S    
C84   H51   S    
C51   O51   S    
C70   O43   A    
C22   C25   S    
C66   O40   A    
C29   C38   D    
C34   C57   S    
C32   C41   D    
O3    Zn11  S    
C68   O41   A    
C58   H14   S    
C35   C43   D    
C61   C78   S    
C3    O11   A    
C2    O19   A    
O18   Zn9   S    
C28   H12   S    
O6    Zn1   S    
C50   O50   S    
C79   H37   S    
C74   H28   S    
O34   Zn7   S    
C47   O47   S    
C75   H30   S    
C35   H63   S    
C31   C49   S    
C86   H58   S    
O43   Zn12  S    
C52   C61   D    
C36   C70   S    
C72   H22   S    
C65   O30   A    
C77   C79   S    
C11   C20   T    
C49   O49   S    
C45   C58   S    
C44   O44   S    
C76   H31   S    
O7    Zn7   S    
C87   H60   S    
O26   Zn6   S    
C42   H7    S    
O23   Zn6   S    
C72   H20   S    
C45   O5    A    
C84   C85   S    
C60   C67   S    
O2    Zn8   S    
C85   H53   S    
C62   O27   A    
C82   O50   S    
C86   C87   S    
C36   H64   S    
C81   H44   S    
C80   H40   S    
C88   O18   A    
C53   H9    S    
C63   O37   A    
O9    Zn1   S    
O27   Zn4   S    
C63   O28   A    
O42   Zn2   S    
C52   O52   S    
C82   H46   S    
O28   Zn3   S    
C75   C76   S    
C77   H35   S    
C12   O12   A    
C41   H6    S    
O35   Zn2   S    
C10   C19   T    
O8    Zn6   S    
C73   O46   S    
C46   C54   D    
O30   Zn4   S    
C43   H8    S    
C83   H48   S    
C86   O52   S    
C13   C21   T    
C5    O14   A    
C67   O7    A    
C1    O1    A    
O21   Zn10  S    
C67   O54   A    
C32   C50   S    
C5    C14   S    
O20   Zn11  S    
C70   O35   A    
O11   Zn6   S    
C64   O29   A    
C84   O51   S    
C78   O8    A    
C15   C24   T    
O17   Zn11  S    
C79   H38   S    
C48   O48   S    
C34   O4    A    
C40   C65   S    
C65   O39   A    
O12   Zn5   S    
C39   C66   S    
C33   C42   D    
C2    C10   S    
C86   H57   S    
C69   O33   A    
C39   H4    S    
C83   H49   S    
C61   H17   S    
C8    O17   A    
C73   H24   S    
C47   C55   D    
O56   Zn9   S    
C80   O49   S    
C79   H39   S    
C72   H21   S    
C7    C16   S    
C80   H41   S    
C71   H19   S    
O5    Zn5   S    
C29   H23   S    
C12   O2    A    
C80   C81   S    
O37   Zn4   S    
C85   H54   S    
C64   O38   A    
C23   C55   S    
O38   Zn4   S    
C75   O47   S    
C27   C36   D    
C33   C51   S    
C57   H13   S    
O55   Zn11  S    
C8    C17   S    
C56   C59   S    
O29   Zn3   S    
C4    O21   A    
O22   Zn5   S    
C59   H15   S    
C14   C22   T    
C66   O31   A    
C50   C59   D    
C71   C72   S    
C77   H36   S    
C60   H16   S    
O1    Zn1   S    
O41   Zn2   S    
C6    O24   A    
C28   C37   D    
C30   H34   S    
C74   H27   S    
C38   H3    S    
C69   O42   A    
O45   Zn8   S    
C30   C39   D    
C27   H1    S    
C18   C20   S    
C76   H33   S    
C77   O48   S    
C32   H56   S    
C81   H43   S    
C49   C58   D    
C8    O26   A    
C9    C18   T    
O32   Zn12  S    
C84   H52   S    
C82   C83   S    
C87   H61   S    
C71   H18   S    
C55   H11   S    
C35   C52   S    
O40   Zn12  S    
C54   H10   S    
O4    Zn10  S    
C51   C60   D    
C41   C64   S    
O16   Zn10  S    
C4    O13   A    
C27   C44   S    
O39   Zn3   S    
C42   C63   S    
O15   Zn9   S    
C83   H50   S    
C12   C54   S    
C43   C62   S    
O14   Zn8   S    
O19   Zn8   S    
O10   Zn5   S    
