data_mof_unit_pretest_1257.cif
_audit_creation_date              2012-12-10T20:27:52-0500
_audit_creation_method            fapswitch 2.2
_symmetry_space_group_name_H-M    P1
_symmetry_Int_Tables_number       1
_space_group_crystal_system       triclinic
_cell_length_a                    12.889209
_cell_length_b                    10.650013
_cell_length_c                    9.888119
_cell_angle_alpha                 91.027842
_cell_angle_beta                  97.046937
_cell_angle_gamma                 90.647991
_cell_volume                      1346.74950531

loop_
_atom_site_label
_atom_site_type_symbol
_atom_type_description
_atom_site_fract_x
_atom_site_fract_y
_atom_site_fract_z
_atom_type_partial_charge
C1    C     C_R   0.500821 0.260460 0.498761 0.878727
C2    C     C_R   0.029076 0.531200 0.562488 0.004117
C3    C     C_R   0.971201 0.498758 0.435880 0.103001
C4    C     C_R   0.864339 0.485980 0.427281 -0.260909
C5    C     C_R   0.873145 0.516284 0.673697 0.441040
C6    C     C_R   0.979895 0.539912 0.680584 -0.268678
C7    C     C_R   0.582858 0.066358 0.573679 0.030363
C8    C     C_R   0.504457 0.128741 0.493533 -0.021161
C9    C     C_R   0.432906 0.062332 0.400089 -0.131051
C10   C     C_R   0.430834 0.932538 0.403211 -0.247096
C11   C     C_R   0.498960 0.871631 0.501365 -0.032253
C12   C     C_R   0.298382 0.504526 0.473416 0.899055
C13   C     C_R   0.578325 0.938561 0.580528 0.067512
C14   C     C_3   0.616754 0.940187 0.729969 0.307870
C15   C     C_3   0.625178 0.082792 0.720029 -0.557552
C16   C     C_R   0.422100 0.440128 0.057136 0.021598
C17   C     C_R   0.571488 0.569126 0.083596 0.405925
C18   C     C_R   0.571768 0.567892 0.940048 -0.193158
C19   C     C_R   0.419643 0.444343 0.914644 0.165866
C20   C     C_3   0.384790 0.310918 0.895865 0.148057
C21   C     C_3   0.394870 0.302959 0.050330 0.097190
C22   C     C_R   0.499040 0.739644 0.500965 0.863582
C23   C     C_R   0.701935 0.497732 0.526988 0.921134
C24   C     C_R   0.814598 0.499005 0.544369 -0.167234
C25   C     C_R   0.186355 0.514363 0.456944 -0.172586
C26   C     C_R   0.020871 0.478950 0.319677 -0.172446
C27   C     C_R   0.128794 0.483509 0.330983 -0.273169
C28   C     C_R   0.136018 0.549459 0.569865 0.471964
H1    H     H_    0.820076 0.465391 0.328670 0.207425
H2    H     H_    0.692626 0.890995 0.752604 0.075829
H3    H     H_    0.571982 0.135201 0.779823 0.238168
H4    H     H_    0.707323 0.118182 0.733080 0.168317
H5    H     H_    0.631083 0.620004 0.895367 0.208706
H6    H     H_    0.439467 0.251421 0.846027 0.163000
H7    H     H_    0.320948 0.280848 0.092709 0.154516
H8    H     H_    0.976732 0.454373 0.222119 0.156392
H9    H     H_    0.024148 0.560768 0.778945 0.201056
H10   H     H_    0.167074 0.459846 0.242459 0.189465
H11   H     H_    0.375744 0.110550 0.330676 0.171499
H12   H     H_    0.373603 0.880309 0.333989 0.154144
N1    N     N_R   0.499290 0.499140 0.142710 -0.101302
N2    N     N_R   0.499290 0.499180 0.857070 -0.149086
O1    O     O_R   0.500010 0.316790 0.614690 -0.637145
O2    O     O_R   0.500000 0.316760 0.385350 -0.563288
O3    O     O_R   0.346360 0.499990 0.595720 -0.533097
O4    O     O_R   0.346350 0.499960 0.366370 -0.648346
O5    O     O_R   0.500000 0.683240 0.614650 -0.604553
O6    O     O_R   0.499990 0.683210 0.385310 -0.588997
O7    O     O_R   0.653650 0.500040 0.633630 -0.583517
O8    O     O_R   0.653640 0.500010 0.404280 -0.565653
Zn1   Zn    Zn3+2 0.500010 0.500020 0.653130 0.998658
Zn2   Zn    Zn3+2 0.499990 0.499980 0.346870 1.021708
Cl1   Cl    Cl    0.666132 0.662209 0.182676 -0.661461
Cl2   Cl    Cl    0.252668 0.298822 0.817515 -0.612991
Cl3   Cl    Cl    0.503277 0.207815 0.111819 -0.686184
O9    O     O_3   0.825812 0.513909 0.792141 -0.597418
C29   C     C_3   0.858256 0.405229 0.865318 0.099473
H13   H     H_    0.939602 0.418228 0.916445 0.154220
H14   H     H_    0.854092 0.319767 0.797652 0.136122
C30   C     C_3   0.787266 0.382070 0.974552 -0.782285
H15   H     H_    0.706222 0.361948 0.926371 0.267118
H16   H     H_    0.815218 0.299964 0.035712 0.208704
H17   H     H_    0.788032 0.465599 0.043446 0.274176
O10   O     O_3   0.191835 0.593690 0.690255 -0.577151
C31   C     C_3   0.206760 0.724581 0.680061 0.076089
H18   H     H_    0.130983 0.773789 0.680059 0.143220
H19   H     H_    0.242037 0.748886 0.586177 0.121466
C32   C     C_3   0.281127 0.771531 0.801904 -0.721035
H20   H     H_    0.357337 0.723879 0.802844 0.283871
H21   H     H_    0.293782 0.874433 0.795163 0.233091
H22   H     H_    0.248151 0.751313 0.897960 0.234066
O11   O     O_3   0.537546 0.902825 0.808450 -0.589965
C33   C     C_3   0.577285 0.910955 0.948001 0.125957
H23   H     H_    0.611078 0.005725 0.976808 0.188134
H24   H     H_    0.639187 0.840318 0.972019 0.168635
C34   C     C_3   0.489410 0.886891 0.034303 -0.702787
H25   H     H_    0.425296 0.954404 0.008709 0.269456
H26   H     H_    0.457912 0.790045 0.016066 0.224822
H27   H     H_    0.519626 0.898526 0.143898 0.259051

loop_
_geom_bond_atom_site_label_1
_geom_bond_atom_site_label_2
_ccdc_geom_bond_type
C8    C9    A    
C22   O6    A    
C16   C21   S    
C1    C8    S    
C33   H23   S    
C5    O9    S    
C19   C20   S    
C34   H27   S    
C7    C8    A    
C25   C28   A    
C26   C27   A    
C30   H17   S    
C10   H12   S    
C34   H26   S    
C16   C19   A    
C5    C6    A    
C4    C24   A    
C23   O7    A    
O3    Zn1   S    
C27   H10   S    
O4    Zn2   S    
C9    H11   S    
O9    C29   S    
C30   H16   S    
C1    O1    A    
C32   H20   S    
C31   H19   S    
O8    Zn2   S    
C23   C24   S    
C9    C10   A    
N1    Zn2   S    
C4    H1    S    
C19   N2    A    
N2    Zn1   S    
C20   H6    S    
O2    Zn2   S    
C7    C15   S    
C22   O5    A    
C13   C14   S    
C33   H24   S    
C2    C6    A    
C14   H2    S    
C15   H4    S    
C34   H25   S    
C20   Cl2   S    
C21   Cl3   S    
O11   C33   S    
C29   C30   S    
O5    Zn1   S    
O7    Zn1   S    
C30   H15   S    
C12   O4    A    
C1    O2    A    
O6    Zn2   S    
C31   C32   S    
C17   C18   A    
C6    H9    S    
C28   O10   S    
C26   H8    S    
C33   C34   S    
C3    C4    A    
C17   Cl1   S    
C14   O11   S    
C3    C26   A    
C12   O3    A    
C23   O8    A    
C15   H3    S    
C21   H7    S    
C25   C27   A    
C11   C22   S    
C12   C25   S    
O10   C31   S    
C18   N2    A    
C2    C3    A    
C11   C13   A    
O1    Zn1   S    
C29   H13   S    
C5    C24   A    
C32   H22   S    
C18   H5    S    
C17   N1    A    
C29   H14   S    
C10   C11   A    
C7    C13   A    
C20   C21   S    
C32   H21   S    
C31   H18   S    
C14   C15   S    
C2    C28   A    
C16   N1    A    
