data_mof_unit_pretest_180.cif
_audit_creation_date              2012-10-26T20:51:03-0400
_audit_creation_method            fapswitch 2.2
_symmetry_space_group_name_H-M    P1
_symmetry_Int_Tables_number       1
_space_group_crystal_system       triclinic
_cell_length_a                    12.986247
_cell_length_b                    10.838962
_cell_length_c                    9.555612
_cell_angle_alpha                 89.845395
_cell_angle_beta                  95.891421
_cell_angle_gamma                 90.907766
_cell_volume                      1337.75061889

loop_
_atom_site_label
_atom_site_type_symbol
_atom_type_description
_atom_site_fract_x
_atom_site_fract_y
_atom_site_fract_z
_atom_type_partial_charge
C1    C     C_R   0.498123 0.262457 0.499814 0.542883
C2    C     C_R   0.453418 0.937898 0.370566 0.067105
C3    C     C_R   0.480934 0.870660 0.496319 0.013748
C4    C     C_R   0.300611 0.498731 0.474002 0.556768
C5    C     C_R   0.505113 0.935006 0.622557 -0.026795
C6    C     C_3   0.444664 0.934951 0.748951 -0.061542
C7    C     C_3   0.454009 0.074379 0.750133 -0.241171
C8    C     C_R   0.585427 0.540590 0.085114 0.161639
C9    C     C_R   0.420418 0.448340 0.063454 0.018738
C10   C     C_R   0.420405 0.448348 0.914758 0.018522
C11   C     C_R   0.585377 0.539499 0.937516 0.093773
C12   C     C_R   0.027935 0.510290 0.566263 0.045183
C13   C     C_3   0.635678 0.663212 0.933005 -0.205450
C14   C     C_3   0.633508 0.667659 0.091704 0.369189
C15   C     C_R   0.491692 0.737082 0.498473 0.584289
C16   C     C_R   0.699408 0.498942 0.526214 0.557829
C17   C     C_R   0.812193 0.498189 0.542047 0.016667
C18   C     C_R   0.187947 0.493033 0.459630 0.015963
C19   C     C_R   0.025346 0.446771 0.321262 -0.133329
C20   C     C_R   0.132725 0.457290 0.331886 -0.115104
C21   C     C_R   0.135271 0.519329 0.576440 -0.117623
C22   C     C_2   0.739026 0.675721 0.173037 0.596490
C23   C     C_R   0.972461 0.473761 0.437661 0.045104
C24   C     C_2   0.397113 0.882126 0.242422 0.670146
C25   C     C_2   0.335163 0.885533 0.718393 0.576586
C26   C     C_R   0.864921 0.466490 0.427096 -0.106038
C27   C     C_R   0.867714 0.531354 0.670529 -0.117513
C28   C     C_R   0.975214 0.537432 0.682622 -0.121449
C29   C     C_R   0.511638 0.062771 0.623425 -0.001833
C30   C     C_R   0.494808 0.129059 0.498431 -0.003370
C31   C     C_R   0.467087 0.066096 0.371939 -0.134647
Cu1   Cu    Cu3+1 0.499990 0.499980 0.640670 0.977931
Cu2   Cu    Cu3+1 0.500010 0.500020 0.359330 1.055802
F1    F     F_    0.566649 0.756119 0.130993 -0.599222
H1    H     H_    0.822265 0.437335 0.328979 0.150183
H2    H     H_    0.983749 0.418280 0.222196 0.132256
H3    H     H_    0.016929 0.564690 0.782091 0.128510
H4    H     H_    0.172555 0.435657 0.241038 0.130079
H5    H     H_    0.177654 0.547395 0.675272 0.148690
H6    H     H_    0.447326 0.117997 0.276073 0.164045
H7    H     H_    0.889504 0.630212 0.185750 0.342384
H8    H     H_    0.359281 0.894077 0.033370 0.365155
H9    H     H_    0.197723 0.894692 0.599736 0.348126
H10   H     H_    0.487471 0.893425 0.843241 0.153334
H11   H     H_    0.379627 0.123803 0.727979 0.167644
H12   H     H_    0.504639 0.110633 0.842230 0.146131
H13   H     H_    0.355243 0.408027 0.109921 0.108593
H14   H     H_    0.355162 0.408021 0.850505 0.114707
H15   H     H_    0.713940 0.658447 0.896594 0.116832
H16   H     H_    0.585013 0.730986 0.875039 0.163707
H17   H     H_    0.828177 0.554537 0.760915 0.143017
N1    N     N_R   0.500660 0.500930 0.148010 -0.218585
N2    N     N_R   0.500660 0.500890 0.852110 -0.229709
O1    O     O_R   0.500000 0.319640 0.618810 -0.506953
O2    O     O_R   0.821452 0.610198 0.128050 -0.773655
O3    O     O_2   0.339025 0.793207 0.251818 -0.475658
O4    O     O_R   0.404979 0.936891 0.111278 -0.685300
O5    O     O_2   0.306205 0.798035 0.786036 -0.516698
O6    O     O_R   0.268078 0.937445 0.611009 -0.697530
O7    O     O_R   0.500010 0.319680 0.381230 -0.524504
O8    O     O_R   0.348990 0.499960 0.599490 -0.510892
O9    O     O_R   0.349000 0.500000 0.361910 -0.498150
O10   O     O_R   0.499990 0.680320 0.618770 -0.509237
O11   O     O_R   0.500000 0.680360 0.381190 -0.402527
O12   O     O_R   0.651000 0.500000 0.638090 -0.513667
O13   O     O_R   0.651010 0.500040 0.400510 -0.501187
O14   O     O_2   0.752897 0.741947 0.276861 -0.458410

loop_
_geom_bond_atom_site_label_1
_geom_bond_atom_site_label_2
_ccdc_geom_bond_type
C14   F1    S    
C19   C23   A    
C15   O11   A    
C6    C7    S    
C7    C29   S    
C24   O3    D    
C18   C21   A    
C20   H4    S    
C9    C10   A    
C8    N1    A    
C5    C29   A    
C19   C20   A    
C21   H5    S    
H9    O6    S    
C30   C31   A    
C1    O1    A    
C4    C18   S    
Cu1   Cu2   S    
C14   C22   S    
C2    C3    A    
C4    O8    A    
C6    H10   S    
C13   C14   S    
Cu2   N1    S    
C2    C24   S    
C11   C13   S    
C12   C23   A    
C22   O2    S    
C9    N1    A    
C28   H3    S    
C12   C28   A    
C8    C11   A    
C13   H15   S    
C17   C26   A    
C7    H11   S    
H8    O4    S    
Cu1   O1    S    
C1    C30   S    
C27   H17   S    
Cu1   O8    S    
C9    H13   S    
Cu2   O7    S    
C18   C20   A    
C19   H2    S    
Cu2   O11   S    
C10   H14   S    
C5    C6    S    
C22   O14   D    
C23   C26   A    
C6    C25   S    
C16   O13   A    
C25   O5    D    
Cu2   O13   S    
Cu1   O12   S    
C29   C30   A    
C13   H16   S    
C17   C27   A    
C7    H12   S    
C4    O9    A    
C26   H1    S    
C3    C15   S    
C31   H6    S    
C24   O4    S    
C1    O7    A    
C27   C28   A    
C10   N2    A    
C15   O10   A    
C16   C17   S    
C8    C14   S    
C16   O12   A    
C25   O6    S    
Cu1   N2    S    
Cu2   O9    S    
C12   C21   A    
H7    O2    S    
Cu1   O10   S    
C2    C31   A    
C3    C5    A    
C11   N2    A    
