data_mof_unit_pretest_914.cif
_audit_creation_date              2012-10-26T19:45:30-0400
_audit_creation_method            fapswitch 2.2
_symmetry_space_group_name_H-M    P1
_symmetry_Int_Tables_number       1
_space_group_crystal_system       triclinic
_cell_length_a                    10.837796
_cell_length_b                    9.515182
_cell_length_c                    10.756616
_cell_angle_alpha                 90.07551
_cell_angle_beta                  90.029091
_cell_angle_gamma                 90.155288
_cell_volume                      1109.25579857

loop_
_atom_site_label
_atom_site_type_symbol
_atom_type_description
_atom_site_fract_x
_atom_site_fract_y
_atom_site_fract_z
_atom_type_partial_charge
Br1   Br    Br    0.232185 0.517079 0.140189 -0.352387
Br2   Br    Br    0.769360 0.478289 0.155000 -0.381065
Br3   Br    Br    0.231213 0.465376 0.843739 -0.333550
Br4   Br    Br    0.768242 0.517529 0.856969 -0.399445
Br5   Br    Br    0.134669 0.230440 0.360613 -0.411020
Br6   Br    Br    0.137974 0.770339 0.639302 -0.365703
C1    C     C_R   0.261817 0.499916 0.499899 0.625528
C2    C     C_R   0.440440 0.925250 0.408842 0.050913
C3    C     C_R   0.560107 0.925902 0.590941 0.033163
C4    C     C_R   0.559925 0.074722 0.591061 0.031244
C5    C     C_R   0.500291 0.500180 0.259920 0.603687
C6    C     C_R   0.737484 0.500163 0.500588 0.591224
C7    C     C_R   0.499642 0.500192 0.740078 0.604120
C8    C     C_3   0.381208 0.426792 0.073054 0.035848
C9    C     C_3   0.615808 0.420310 0.071806 0.035666
C10   C     C_3   0.385942 0.416590 0.928303 0.036093
C11   C     C_3   0.619568 0.428621 0.926826 0.033145
C12   C     C_3   0.493809 0.653340 0.929173 -0.222409
C13   C     C_3   0.504469 0.653711 0.070990 -0.225832
C14   C     C_3   0.500563 0.500745 0.122012 -0.013902
C15   C     C_3   0.499572 0.500446 0.877975 -0.012843
C16   C     C_R   0.061066 0.386865 0.446164 0.164474
C17   C     C_R   0.062128 0.613489 0.554886 0.162271
C18   C     C_R   0.933520 0.387545 0.448581 -0.059984
C19   C     C_R   0.934395 0.613013 0.553102 -0.063714
C20   C     C_R   0.870496 0.500331 0.500847 -0.015090
C21   C     C_R   0.127349 0.500010 0.500355 0.051153
C22   C     C_R   0.441114 0.073995 0.408447 0.052388
Cu1   Cu    Cu3+1 0.500020 0.640660 0.500000 1.040128
Cu2   Cu    Cu3+1 0.500020 0.359340 0.500000 1.033200
H1    H     H_    0.608724 0.870191 0.663492 0.121826
H2    H     H_    0.569260 0.719176 0.889908 0.165772
H3    H     H_    0.883285 0.301076 0.406454 0.187700
H4    H     H_    0.884775 0.699563 0.595288 0.179200
H5    H     H_    0.394536 0.129527 0.334592 0.151128
H6    H     H_    0.392225 0.869081 0.335993 0.134096
H7    H     H_    0.608358 0.130921 0.663752 0.122983
H8    H     H_    0.378094 0.317658 0.110195 0.128885
H9    H     H_    0.605341 0.307568 0.097481 0.111045
H10   H     H_    0.399395 0.303876 0.903951 0.113945
H11   H     H_    0.622479 0.318917 0.890792 0.116220
H12   H     H_    0.428427 0.718212 0.110316 0.167704
H13   H     H_    0.592335 0.705820 0.098684 0.184896
H14   H     H_    0.405229 0.703249 0.901423 0.196663
N1    N     N_R   0.500030 0.852070 0.500030 -0.230648
N2    N     N_R   0.500030 0.147930 0.500030 -0.233170
O1    O     O_R   0.319660 0.618740 0.499990 -0.460229
O2    O     O_R   0.319660 0.381260 0.499990 -0.455266
O3    O     O_R   0.499990 0.618790 0.317690 -0.506850
O4    O     O_R   0.499990 0.381210 0.317690 -0.514172
O5    O     O_R   0.680370 0.618830 0.500010 -0.498698
O6    O     O_R   0.680370 0.381170 0.500010 -0.501068
O7    O     O_R   0.500030 0.618780 0.682310 -0.496480
O8    O     O_R   0.500030 0.381220 0.682310 -0.512781

loop_
_geom_bond_atom_site_label_1
_geom_bond_atom_site_label_2
_ccdc_geom_bond_type
C4    N2    A    
Br3   C10   S    
C3    N1    A    
Cu1   Cu2   S    
C5    O3    A    
C8    C10   S    
C17   C21   A    
C8    H8    S    
C12   C15   S    
C3    C4    A    
C7    O7    A    
C18   H3    S    
C13   H12   S    
C19   H4    S    
C22   N2    A    
C1    O2    A    
C13   C14   S    
Cu2   O4    S    
C7    C15   S    
C5    O4    A    
Cu1   O3    S    
Br2   C9    S    
Cu2   O8    S    
C9    H9    S    
C10   C15   S    
Cu1   O7    S    
C10   H10   S    
C4    H7    S    
Br6   C17   S    
Cu2   O2    S    
C6    O6    A    
Cu1   O1    S    
C12   C13   S    
C12   H14   S    
C16   C21   A    
C17   C19   A    
C2    H6    S    
C9    C14   S    
C2    C22   A    
C16   C18   A    
C5    C14   S    
C11   H11   S    
C12   H2    S    
C3    H1    S    
C8    C14   S    
C6    O5    A    
C1    C21   S    
Br4   C11   S    
C7    O8    A    
Cu1   O5    S    
Cu1   N1    S    
C9    C11   S    
Cu2   O6    S    
C2    N1    A    
Br1   C8    S    
C13   H13   S    
C19   C20   A    
Cu2   N2    S    
C11   C15   S    
Br5   C16   S    
C18   C20   A    
C22   H5    S    
C6    C20   S    
C1    O1    A    
