data_mof_unit_pretest_1522.cif
_audit_creation_date              2013-03-05T16:09:24-0500
_audit_creation_method            fapswitch 2.2
_symmetry_space_group_name_H-M    P1
_symmetry_Int_Tables_number       1
_space_group_crystal_system       triclinic
_cell_length_a                    10.757206
_cell_length_b                    12.749856
_cell_length_c                    13.913809
_cell_angle_alpha                 97.963445
_cell_angle_beta                  90.214218
_cell_angle_gamma                 93.216154
_cell_volume                      1886.81116639

loop_
_atom_site_label
_atom_site_type_symbol
_atom_site_description
_atom_site_fract_x
_atom_site_fract_y
_atom_site_fract_z
_atom_type_partial_charge
O1    O     O_R   0.492240 0.399110 0.356330 -0.577981
O2    O     O_R   0.505790 0.575900 0.366540 -0.523292
C1    C     C_R   0.499093 0.483590 0.315919 0.864060
O3    O     O_R   0.310920 0.411610 0.494880 -0.576690
O4    O     O_R   0.324460 0.588390 0.505090 -0.585749
C2    C     C_R   0.259518 0.500138 0.500229 0.817728
Cu1   Cu    Cu3+1 0.491980 0.395330 0.493960 0.998600
Cu2   Cu    Cu3+1 0.508020 0.604670 0.506040 1.062260
O5    O     O_R   0.494210 0.424100 0.633460 -0.579863
O6    O     O_R   0.507760 0.600890 0.643670 -0.568387
O7    O     O_R   0.675540 0.411610 0.494910 -0.594990
O8    O     O_R   0.689080 0.588390 0.505120 -0.536367
C3    C     C_R   0.500858 0.516490 0.684106 0.809579
C4    C     C_R   0.740553 0.499621 0.499065 0.783846
C5    C     C_3   0.063153 0.385441 0.500351 -0.339850
H1    H     H_    0.093590 0.355205 0.567515 0.179891
H2    H     H_    0.094994 0.329135 0.438476 0.232605
C6    C     C_3   0.920744 0.385171 0.498617 -0.428739
H3    H     H_    0.884096 0.331864 0.433253 0.201903
H4    H     H_    0.883534 0.352116 0.563462 0.197201
H5    H     H_    0.110616 0.540674 0.657004 0.183690
H6    H     H_    0.898325 0.536359 0.656171 0.166497
C7    C     C_3   0.076982 0.570148 0.590410 -0.443241
C8    C     C_3   0.075751 0.546688 0.407639 0.128528
C9    C     C_3   0.121914 0.499780 0.498550 -0.023854
H7    H     H_    0.109172 0.631875 0.417131 0.163925
C10   C     C_3   0.878297 0.499632 0.497800 -0.016230
C11   C     C_3   0.933536 0.568999 0.590567 -0.347056
C12   C     C_3   0.930889 0.539422 0.403406 0.114413
H8    H     H_    0.898958 0.478899 0.341345 0.141373
H9    H     H_    0.115754 0.653286 0.592796 0.202181
H10   H     H_    0.903213 0.651443 0.596805 0.227650
C13   C     C_1   0.496727 0.526519 0.787234 -0.143752
C14   C     C_2   0.484890 0.550993 0.978172 0.356735
C15   C     C_2   0.494217 0.464403 0.022523 -0.279649
C16   C     C_1   0.496422 0.468855 0.126015 0.144470
C17   C     C_1   0.491786 0.537344 0.874141 -0.041901
C18   C     C_1   0.497971 0.474753 0.212809 -0.037150
H11   H     H_    0.504754 0.387417 0.979706 0.143883
N1    N     N_1   0.479930 0.238040 0.484880 -0.156219
C19   C     C_2   0.464334 0.028157 0.473689 -0.230391
C20   C     C_2   0.535801 0.971821 0.526176 -0.246122
C21   C     C_1   0.525644 0.854626 0.519016 0.283747
C22   C     C_1   0.474421 0.145364 0.480917 0.233041
N2    N     N_1   0.520070 0.761960 0.515120 -0.141128
H12   H     H_    0.604694 0.014195 0.576553 0.168691
H13   H     H_    0.395442 0.985781 0.423311 0.185637
N3    N     N_R   0.883065 0.641080 0.386134 0.133486
O9    O     O_R   0.814025 0.645050 0.309859 -0.316590
O10   O     O_R   0.912353 0.728448 0.443772 -0.359021
N4    N     N_R   0.470194 0.656017 0.029620 0.156592
O11   O     O_R   0.490869 0.738390 0.984976 -0.317657
O12   O     O_R   0.424006 0.670069 0.116465 -0.293604
N5    N     N_R   0.128484 0.495820 0.316726 0.106245
O13   O     O_R   0.201998 0.551355 0.266524 -0.314377
O14   O     O_R   0.098280 0.397382 0.282662 -0.368607

loop_
_geom_bond_atom_site_label_1
_geom_bond_atom_site_label_2
_geom_bond_distance
_ccdc_geom_bond_type
C5    C6    1.531825 S    
C15   H11   1.087282 S    
Cu1   N1    1.988719 S    
C3    C13   1.423922 S    
C12   H8    1.114671 S    
C4    C10   1.481904 S    
C10   C12   1.568547 S    
C14   C17   1.436449 S    
C19   C20   1.357703 D    
N4    O12   1.301361 A    
C15   C16   1.433263 S    
C11   H10   1.110069 S    
Cu2   O8    1.970177 S    
C16   C18   1.199525 T    
O2    C1    1.283308 A    
C19   H13   1.085682 S    
Cu2   N2    1.988717 S    
Cu1   Cu2   2.646825 S    
H6    C11   1.113556 S    
C7    C11   1.542341 S    
Cu1   O7    1.973659 S    
C21   N2    1.173336 T    
C14   N4    1.445500 S    
O3    Cu1   1.970176 S    
N3    O10   1.301713 A    
N3    O9    1.301399 A    
C19   C22   1.481589 S    
C8    H7    1.114647 S    
C13   C17   1.199639 T    
C6    H3    1.113763 S    
C6    H4    1.114007 S    
C7    C9    1.551675 S    
H5    C7    1.113497 S    
O4    C2    1.284154 A    
O7    C4    1.282692 A    
N5    O14   1.301411 A    
C5    C9    1.559563 S    
C2    C9    1.480075 S    
C20   C21   1.481521 S    
C12   N3    1.470567 S    
C8    N5    1.470315 S    
C5    H1    1.113919 S    
N1    C22   1.173380 T    
C8    C9    1.562857 S    
C5    H2    1.110131 S    
C14   C15   1.345529 D    
C20   H12   1.085667 S    
C10   C11   1.555734 S    
Cu1   O5    1.924553 S    
O4    Cu2   1.973659 S    
N5    O13   1.301143 A    
O5    C3    1.284309 A    
O1    Cu1   1.922236 S    
C8    C12   1.556282 S    
O3    C2    1.277631 A    
Cu2   O6    1.922237 S    
O2    Cu2   1.924552 S    
C6    C10   1.554895 S    
N4    O11   1.301509 A    
C1    C18   1.423367 S    
O8    C4    1.280185 A    
O1    C1    1.281001 A    
O6    C3    1.280275 A    
C7    H9    1.113193 S    
