data_mof_unit_pretest_848.cif
_audit_creation_date              2012-12-10T19:14:00-0500
_audit_creation_method            fapswitch 2.2
_symmetry_space_group_name_H-M    P1
_symmetry_Int_Tables_number       1
_space_group_crystal_system       triclinic
_cell_length_a                    13.069111
_cell_length_b                    15.98324
_cell_length_c                    14.751403
_cell_angle_alpha                 90.019477
_cell_angle_beta                  95.96067
_cell_angle_gamma                 89.793021
_cell_volume                      3064.69274306

loop_
_atom_site_label
_atom_site_type_symbol
_atom_type_description
_atom_site_fract_x
_atom_site_fract_y
_atom_site_fract_z
_atom_type_partial_charge
C1    C     C_R   0.499828 0.340914 0.500080 0.780490
C2    C     C_R   0.500579 0.659083 0.500051 0.821494
C3    C     C_R   0.561042 0.956751 0.439773 0.315473
C4    C     C_R   0.453073 0.043149 0.567349 0.327553
C5    C     C_1   0.504709 0.822963 0.500415 0.077452
C6    C     C_1   0.503781 0.177056 0.503059 0.078128
C7    C     C_1   0.501566 0.252000 0.501104 -0.195565
C8    C     C_1   0.502787 0.748003 0.500144 -0.179384
C9    C     C_R   0.584826 0.524517 0.959384 -0.347779
C10   C     C_R   0.408663 0.480073 0.040110 -0.365945
C11   C     C_R   0.496646 0.501106 0.902581 -0.092531
C12   C     C_R   0.497800 0.502253 0.096802 -0.087880
C13   C     C_R   0.407438 0.477904 0.942965 0.502175
C14   C     C_R   0.585385 0.526707 0.055387 0.467152
C15   C     C_1   0.498599 0.500445 0.802574 0.220585
C16   C     C_1   0.498726 0.501022 0.197143 0.182902
C17   C     C_R   0.300204 0.498746 0.482989 0.886318
C18   C     C_R   0.699940 0.495605 0.516740 0.867491
C19   C     C_R   0.812766 0.488503 0.526611 -0.334906
C20   C     C_R   0.187724 0.497732 0.472290 -0.345791
C21   C     C_R   0.025530 0.533148 0.386110 0.402274
C22   C     C_R   0.976101 0.469323 0.620479 0.398695
C23   C     C_R   0.132168 0.522591 0.389694 0.278987
C24   C     C_R   0.867812 0.469280 0.611614 0.277073
C25   C     C_R   0.135594 0.471957 0.546218 0.376927
C26   C     C_R   0.866181 0.498981 0.449355 0.379214
C27   C     C_R   0.028763 0.482962 0.542998 -0.221882
C28   C     C_R   0.973266 0.506392 0.459637 -0.235899
C29   C     C_R   0.453110 0.955496 0.565823 0.333635
C30   C     C_R   0.562213 0.044534 0.442036 0.332318
C31   C     C_R   0.506086 0.912596 0.501588 -0.228514
C32   C     C_R   0.506729 0.087450 0.504656 -0.228965
Cu1   Cu    Cu3+1 0.500030 0.500000 0.589220 0.989326
Cu2   Cu    Cu3+1 0.499970 0.500000 0.410780 0.985685
H1    H     H_    0.653951 0.541618 0.929219 0.167994
H2    H     H_    0.340660 0.465414 0.072669 0.151788
N1    N     N_1   0.500030 0.499980 0.276710 -0.162713
N2    N     N_1   0.499970 0.500020 0.723290 -0.159598
O1    O     O_R   0.500050 0.380310 0.575330 -0.594259
O2    O     O_R   0.499950 0.619690 0.424670 -0.566893
O3    O     O_R   0.500000 0.380310 0.424640 -0.590583
O4    O     O_R   0.500000 0.619690 0.575360 -0.576534
O5    O     O_R   0.349020 0.499990 0.563110 -0.537896
O6    O     O_R   0.650980 0.500010 0.436890 -0.537969
O7    O     O_R   0.348970 0.499990 0.412410 -0.553437
O8    O     O_R   0.651030 0.500010 0.587590 -0.542301
O9    O     O_3   0.814829 0.494116 0.362463 -0.504387
C33   C     C_3   0.819465 0.409871 0.333177 0.115904
H3    H     H_    0.775471 0.368542 0.375880 0.119072
H4    H     H_    0.900423 0.386881 0.336217 0.116262
C34   C     C_3   0.772745 0.402751 0.234941 -0.696180
H5    H     H_    0.814797 0.443805 0.190832 0.272573
H6    H     H_    0.778410 0.337090 0.211321 0.168744
H7    H     H_    0.690505 0.421029 0.229662 0.264173
O10   O     O_3   0.188498 0.429637 0.618546 -0.516421
C35   C     C_3   0.195501 0.344523 0.593615 0.135669
H8    H     H_    0.235462 0.337029 0.530900 0.097661
H9    H     H_    0.117545 0.315989 0.581968 0.131610
C36   C     C_3   0.257158 0.296796 0.669697 -0.759743
H10   H     H_    0.215232 0.296845 0.731240 0.242183
H11   H     H_    0.267576 0.231186 0.647754 0.223715
H12   H     H_    0.333907 0.325938 0.685968 0.259339
O11   O     O_3   0.815911 0.451977 0.686832 -0.587837
C37   C     C_3   0.824886 0.365813 0.709596 0.087643
H13   H     H_    0.829118 0.360640 0.784996 0.157064
H14   H     H_    0.895820 0.335136 0.689171 0.149035
C38   C     C_3   0.730156 0.318090 0.667950 -0.334751
H15   H     H_    0.660265 0.345180 0.693598 0.246024
H16   H     H_    0.723371 0.324273 0.592544 0.200254
C39   C     C_3   0.737169 0.225406 0.692601 -0.947079
H17   H     H_    0.806745 0.196875 0.667868 0.265461
H18   H     H_    0.668463 0.192439 0.659910 0.255610
H19   H     H_    0.740299 0.217180 0.767599 0.251540
O12   O     O_3   0.182784 0.541351 0.314034 -0.579668
C40   C     C_3   0.159462 0.480523 0.244773 0.101603
H20   H     H_    0.178612 0.507884 0.179426 0.146440
H21   H     H_    0.076143 0.464743 0.234309 0.157280
C41   C     C_3   0.223793 0.400507 0.263205 -0.350805
H22   H     H_    0.306612 0.415373 0.262554 0.246458
H23   H     H_    0.211649 0.374424 0.331040 0.201685
C42   C     C_3   0.194547 0.333903 0.191295 -0.972807
H24   H     H_    0.112748 0.315660 0.192390 0.259386
H25   H     H_    0.243723 0.277643 0.205391 0.265699
H26   H     H_    0.206287 0.357983 0.122760 0.250880
O13   O     O_3   0.972725 0.570909 0.310486 -0.581996
C43   C     C_3   0.983259 0.659030 0.317429 0.097792
H27   H     H_    0.987496 0.684046 0.247717 0.160141
H28   H     H_    0.055407 0.679655 0.358527 0.135224
C44   C     C_3   0.889423 0.697559 0.356107 -0.342310
H29   H     H_    0.818439 0.680150 0.312156 0.244239
H30   H     H_    0.883608 0.672913 0.425731 0.220472
C45   C     C_3   0.897259 0.792695 0.361603 -0.912919
H31   H     H_    0.966193 0.811177 0.407584 0.261360
H32   H     H_    0.827869 0.818568 0.389202 0.293884
H33   H     H_    0.902567 0.819804 0.292993 0.254973
O14   O     O_3   0.029989 0.452500 0.704568 -0.583128
C46   C     C_3   0.031104 0.524052 0.761362 0.086112
H34   H     H_    0.037692 0.501642 0.833027 0.150258
H35   H     H_    0.958875 0.561849 0.751300 0.144129
C47   C     C_3   0.124242 0.579265 0.748615 -0.304997
H36   H     H_    0.195358 0.540571 0.755366 0.293629
H37   H     H_    0.115040 0.607402 0.679376 0.204590
C48   C     C_3   0.135892 0.649317 0.819151 -0.922801
H38   H     H_    0.065961 0.689463 0.813455 0.253034
H39   H     H_    0.203209 0.688547 0.807346 0.263550
H40   H     H_    0.148525 0.622728 0.889016 0.261918
O15   O     O_3   0.395313 0.084100 0.627561 -0.539026
C49   C     C_3   0.460912 0.119301 0.700028 0.079289
H41   H     H_    0.474987 0.186098 0.684907 0.160584
H42   H     H_    0.536791 0.086751 0.713078 0.109997
C50   C     C_3   0.408394 0.115352 0.787323 -0.808218
H43   H     H_    0.395248 0.049279 0.805931 0.250798
H44   H     H_    0.457647 0.145644 0.843790 0.197852
H45   H     H_    0.333179 0.148246 0.778146 0.258949
O16   O     O_3   0.621205 0.914941 0.382289 -0.538588
C51   C     C_3   0.558418 0.887335 0.304259 0.106457
H46   H     H_    0.509772 0.938805 0.272162 0.105180
H47   H     H_    0.507325 0.835611 0.321591 0.150112
C52   C     C_3   0.626628 0.854390 0.234617 -0.811207
H48   H     H_    0.673305 0.800798 0.263743 0.246591
H49   H     H_    0.578381 0.832946 0.172611 0.192686
H50   H     H_    0.678872 0.904527 0.215347 0.255357
O17   O     O_3   0.394705 0.912254 0.623280 -0.526237
C53   C     C_3   0.458920 0.886218 0.701221 0.103381
H51   H     H_    0.495931 0.940620 0.738248 0.130484
H52   H     H_    0.520095 0.842668 0.682848 0.137303
C54   C     C_3   0.394392 0.840396 0.765356 -0.779316
H53   H     H_    0.358123 0.784538 0.730790 0.252175
H54   H     H_    0.443939 0.819798 0.827095 0.190459
H55   H     H_    0.333283 0.882521 0.786296 0.250190
O18   O     O_3   0.626265 0.087811 0.389449 -0.530492
C55   C     C_3   0.569186 0.119186 0.309867 0.099722
H56   H     H_    0.487370 0.134136 0.318966 0.118090
H57   H     H_    0.570410 0.072629 0.254163 0.147631
C56   C     C_3   0.619750 0.198961 0.280367 -0.792230
H58   H     H_    0.700282 0.185828 0.266858 0.245544
H59   H     H_    0.576548 0.223760 0.217213 0.196856
H60   H     H_    0.620043 0.247091 0.334696 0.252059
O19   O     O_3   0.674077 0.548519 0.109264 -0.618839
C57   C     C_3   0.692357 0.635434 0.102715 0.068846
H61   H     H_    0.679273 0.664600 0.168939 0.163022
H62   H     H_    0.641305 0.668572 0.048559 0.121714
C58   C     C_3   0.804225 0.648757 0.085056 -0.330280
H63   H     H_    0.855683 0.617661 0.139656 0.251958
H64   H     H_    0.817671 0.619698 0.018838 0.211279
C59   C     C_3   0.830396 0.741599 0.082418 -0.952617
H65   H     H_    0.782693 0.772920 0.025481 0.260223
H66   H     H_    0.912788 0.749068 0.071975 0.257296
H67   H     H_    0.816394 0.772125 0.147584 0.261525
O20   O     O_3   0.319946 0.459183 0.884203 -0.619686
C60   C     C_3   0.259309 0.393932 0.915172 0.067340
H68   H     H_    0.193649 0.385031 0.862002 0.197633
H69   H     H_    0.223336 0.412000 0.977064 0.112440
C61   C     C_3   0.318421 0.310474 0.927168 -0.392045
H70   H     H_    0.358341 0.297832 0.865643 0.229467
H71   H     H_    0.377381 0.313957 0.986925 0.215784
C62   C     C_3   0.246303 0.237937 0.941783 -0.927968
H72   H     H_    0.205376 0.249218 0.002928 0.263593
H73   H     H_    0.291560 0.179171 0.952126 0.261133
H74   H     H_    0.188940 0.230095 0.881403 0.255398

loop_
_geom_bond_atom_site_label_1
_geom_bond_atom_site_label_2
_ccdc_geom_bond_type
C56   H60   S    
C6    C32   S    
O10   C35   S    
C62   H72   S    
C58   C59   S    
Cu2   N1    S    
C50   H43   S    
C57   C58   S    
C40   H20   S    
C42   H26   S    
C17   O5    A    
C46   H34   S    
O17   C53   S    
O13   C43   S    
C49   H41   S    
Cu1   O1    S    
Cu2   O2    S    
Cu1   O4    S    
C49   C50   S    
C57   H62   S    
C13   O20   S    
C43   H28   S    
C20   C25   A    
O16   C51   S    
C17   C20   S    
C35   H8    S    
C58   H64   S    
C18   C19   S    
C60   C61   S    
C19   C26   A    
C45   H31   S    
C42   H25   S    
C11   C15   S    
C33   C34   S    
C12   C16   S    
C49   H42   S    
C55   H56   S    
O15   C49   S    
C39   H17   S    
C44   H30   S    
C61   H71   S    
C4    C29   A    
C16   N1    T    
C33   H4    S    
C36   H10   S    
C62   H73   S    
C1    C7    S    
Cu1   O8    S    
C50   H45   S    
Cu2   O3    S    
C18   O8    A    
C45   H32   S    
C46   H35   S    
C42   H24   S    
C59   H66   S    
C52   H49   S    
C4    O15   S    
C21   O13   S    
C36   H11   S    
O12   C40   S    
C34   H5    S    
Cu1   O5    S    
C37   C38   S    
C56   H58   S    
Cu2   O6    S    
C57   H61   S    
C61   C62   S    
C48   H39   S    
C41   H22   S    
C43   C44   S    
C47   C48   S    
C38   H15   S    
C34   H6    S    
C37   H14   S    
C3    C30   A    
C9    C14   A    
C54   H54   S    
C15   N2    T    
C18   O6    A    
C59   H67   S    
C9    C11   A    
O9    C33   S    
C20   C23   A    
C60   H68   S    
O14   C46   S    
C39   H19   S    
C47   H37   S    
Cu1   Cu2   S    
C50   H44   S    
Cu2   O7    S    
C44   C45   S    
C3    C31   A    
C40   H21   S    
C61   H70   S    
C4    C32   A    
C10   C12   A    
C26   O9    S    
C51   H47   S    
C53   C54   S    
C1    O3    A    
C33   H3    S    
C21   C28   A    
C12   C14   A    
C24   O11   S    
C22   C27   A    
C21   C23   A    
C22   C24   A    
C45   H33   S    
C23   O12   S    
C54   H53   S    
C48   H38   S    
C46   C47   S    
O19   C57   S    
C53   H52   S    
C59   H65   S    
C52   H50   S    
C56   H59   S    
C36   H12   S    
C43   H27   S    
C22   O14   S    
C2    C8    S    
C25   O10   S    
C17   O7    A    
C10   C13   A    
C5    C8    T    
C10   H2    S    
C52   H48   S    
C35   C36   S    
C6    C7    T    
C62   H74   S    
C25   C27   A    
C26   C28   A    
Cu1   N2    S    
C51   C52   S    
C34   H7    S    
C37   H13   S    
C38   C39   S    
C58   H63   S    
C54   H55   S    
C29   C31   A    
C3    O16   S    
C30   C32   A    
C11   C13   A    
C41   C42   S    
C2    O4    A    
C55   C56   S    
C29   O17   S    
C47   H36   S    
C35   H9    S    
C51   H46   S    
C19   C24   A    
C48   H40   S    
C41   H23   S    
C60   H69   S    
O18   C55   S    
C40   C41   S    
C1    O1    A    
O11   C37   S    
C2    O2    A    
C14   O19   S    
C55   H57   S    
C27   C28   A    
C9    H1    S    
O20   C60   S    
C39   H18   S    
C38   H16   S    
C44   H29   S    
C30   O18   S    
C53   H51   S    
C5    C31   S    
