data_mof_unit_pretest_898.cif
_audit_creation_date              2012-12-10T18:11:35-0500
_audit_creation_method            fapswitch 2.2
_symmetry_space_group_name_H-M    P1
_symmetry_Int_Tables_number       1
_space_group_crystal_system       triclinic
_cell_length_a                    10.510735
_cell_length_b                    12.677132
_cell_length_c                    13.154786
_cell_angle_alpha                 82.41409
_cell_angle_beta                  91.355763
_cell_angle_gamma                 103.212053
_cell_volume                      1691.45346199

loop_
_atom_site_label
_atom_site_type_symbol
_atom_type_description
_atom_site_fract_x
_atom_site_fract_y
_atom_site_fract_z
_atom_type_partial_charge
C1    C     C_R   0.487573 0.438666 0.691465 0.836881
C2    C     C_R   0.505163 0.447885 0.974425 0.078216
C3    C     C_R   0.546920 0.466780 0.871493 0.096295
C4    C     C_R   0.742385 0.501415 0.500392 0.856080
C5    C     C_R   0.550095 0.530174 0.037720 0.082033
C6    C     C_R   0.653003 0.620945 0.004235 0.179046
C7    C     C_R   0.707379 0.630005 0.906926 -0.254425
C8    C     C_R   0.654989 0.553908 0.841202 -0.188863
C9    C     C_R   0.493043 0.525125 0.133148 -0.250579
C10   C     C_R   0.650979 0.686470 0.169173 -0.197069
C11   C     C_R   0.478799 0.398471 0.801631 -0.191486
C12   C     C_3   0.061388 0.572150 0.424385 -0.191893
C13   C     C_R   0.319043 0.080391 0.349838 -0.323532
C14   C     C_R   0.656379 0.800468 0.629213 0.017015
C15   C     C_R   0.689628 0.904702 0.658627 -0.230072
C16   C     C_R   0.517410 0.560944 0.308980 0.875595
C17   C     C_R   0.630384 0.985703 0.610969 -0.156227
C18   C     C_R   0.537808 0.962337 0.532969 0.018679
C19   C     C_R   0.507860 0.854198 0.505835 0.230607
C20   C     C_R   0.474181 0.041076 0.480311 -0.013800
C21   C     C_R   0.382753 0.007724 0.403656 0.157890
C22   C     C_R   0.355760 0.901763 0.378670 -0.268446
C23   C     C_3   0.990308 0.600769 0.514922 -0.126003
C24   C     C_R   0.418688 0.826561 0.428417 -0.193866
C25   C     C_R   0.496829 0.151370 0.499394 -0.036479
C26   C     C_R   0.345101 0.188369 0.368253 0.111082
C27   C     C_R   0.257393 0.498141 0.500577 0.894272
C28   C     C_3   0.936945 0.426315 0.577950 -0.235642
C29   C     C_3   0.052309 0.523846 0.591439 -0.159817
C30   C     C_3   0.121164 0.495302 0.500878 -0.038886
C31   C     C_3   0.007808 0.398977 0.487484 0.038047
C32   C     C_3   0.946200 0.474653 0.410453 -0.185797
C33   C     C_2   0.315247 0.222112 0.772861 0.952035
C34   C     C_3   0.878034 0.503189 0.501170 -0.014075
C35   C     C_2   0.273871 0.258658 0.298669 0.885516
C36   C     C_2   0.015361 0.285082 0.473828 0.948077
C37   C     C_R   0.701292 0.699793 0.069758 -0.192301
C38   C     C_R   0.548620 0.596854 0.201207 -0.058651
C39   C     C_R   0.389032 0.299600 0.839427 -0.038254
C40   C     C_R   0.365409 0.273605 0.944388 -0.173562
C41   C     C_R   0.421310 0.346868 0.010953 -0.203063
H1    H     H_    0.099571 0.543444 0.665138 0.154034
H2    H     H_    0.881928 0.367120 0.640384 0.156645
H3    H     H_    0.658804 0.065267 0.636197 0.154588
H4    H     H_    0.761153 0.922615 0.718202 0.162159
H5    H     H_    0.396417 0.747359 0.404083 0.211478
H6    H     H_    0.898778 0.455020 0.336794 0.171958
H7    H     H_    0.116253 0.631332 0.361882 0.140526
H8    H     H_    0.979018 0.683436 0.526136 0.150007
H9    H     H_    0.695917 0.742456 0.222093 0.161620
H10   H     H_    0.788958 0.696807 0.880953 0.144530
H11   H     H_    0.781159 0.768798 0.045658 0.144090
H12   H     H_    0.407356 0.462907 0.158285 0.169976
H13   H     H_    0.318787 0.107773 0.680758 0.346788
H14   H     H_    0.166596 0.273419 0.169751 0.352187
H15   H     H_    0.976374 0.164115 0.384641 0.343054
H16   H     H_    0.401258 0.321147 0.091326 0.176972
H17   H     H_    0.300311 0.197152 0.974866 0.172590
H18   H     H_    0.701411 0.562755 0.767097 0.153669
H19   H     H_    0.286424 0.876956 0.319100 0.153307
H20   H     H_    0.248730 0.051747 0.292154 0.198065
H21   H     H_    0.564747 0.182883 0.556668 0.156027
H22   H     H_    0.702806 0.737759 0.665730 0.130997
N1    N     N_R   0.432930 0.222190 0.444670 -0.125674
N2    N     N_R   0.566370 0.776980 0.554790 -0.131652
O1    O     O_R   0.467970 0.366730 0.627150 -0.583912
O2    O     O_R   0.380163 0.158984 0.722683 -0.798740
O3    O     O_2   0.260900 0.346347 0.318077 -0.598304
O4    O     O_R   0.214388 0.220519 0.209906 -0.852708
O5    O     O_2   0.063974 0.230568 0.540766 -0.597619
O6    O     O_R   0.965566 0.241506 0.385082 -0.799530
O7    O     O_R   0.510820 0.544830 0.662520 -0.613920
O8    O     O_R   0.664630 0.410960 0.482340 -0.622155
O9    O     O_R   0.707470 0.589060 0.517710 -0.636103
O10   O     O_R   0.489180 0.455170 0.337480 -0.583501
O11   O     O_R   0.532030 0.633270 0.372850 -0.646721
O12   O     O_R   0.292530 0.410940 0.482290 -0.545389
O13   O     O_R   0.335370 0.589040 0.517660 -0.643891
O14   O     O_2   0.196877 0.210577 0.765091 -0.600811
Zn1   Zn    Zn3+2 0.471390 0.381080 0.476380 1.012486
Zn2   Zn    Zn3+2 0.528610 0.618920 0.523620 0.928305

loop_
_geom_bond_atom_site_label_1
_geom_bond_atom_site_label_2
_ccdc_geom_bond_type
C29   H1    S    
C16   O10   A    
C1    C11   S    
C12   H7    S    
C27   O13   A    
C7    C8    A    
C12   C23   S    
C33   C39   S    
C10   C37   A    
C23   C29   S    
C28   C29   S    
C8    H18   S    
C22   H19   S    
C30   C31   S    
C23   H8    S    
C20   C25   A    
C2    C41   A    
C18   C19   A    
C26   N1    A    
C14   N2    A    
O10   Zn1   S    
C4    O9    A    
O7    Zn2   S    
C36   O6    S    
H15   O6    S    
C28   C34   S    
C21   C22   A    
C12   C32   S    
C27   C30   S    
N1    Zn1   S    
C36   O5    D    
C17   C18   A    
C4    C34   S    
C1    O7    A    
C40   H17   S    
C3    C8    A    
C39   C40   A    
C37   H11   S    
C33   O14   D    
H13   O2    S    
C25   N1    A    
C32   C34   S    
C5    C9    A    
C29   C30   S    
N2    Zn2   S    
C31   C32   S    
C14   C15   A    
C23   C34   S    
C1    O1    A    
C6    C37   A    
C13   C21   A    
C11   C39   A    
C4    O8    A    
H14   O4    S    
C40   C41   A    
C32   H6    S    
C22   C24   A    
C13   C26   A    
C2    C5    A    
C9    H12   S    
C15   H4    S    
O9    Zn2   S    
C10   H9    S    
C33   O2    S    
O12   Zn1   S    
C15   C17   A    
C12   C30   S    
C16   O11   A    
C19   C24   A    
C28   C31   S    
C27   O12   A    
O11   Zn2   S    
C6    C7    A    
O1    Zn1   S    
C28   H2    S    
C10   C38   A    
C24   H5    S    
C2    C3    A    
C17   H3    S    
C7    H10   S    
O13   Zn2   S    
C5    C6    A    
C35   O3    D    
C14   H22   S    
C9    C38   A    
O8    Zn1   S    
C19   N2    A    
C18   C20   A    
C25   H21   S    
C3    C11   A    
C41   H16   S    
C26   C35   S    
C13   H20   S    
C20   C21   A    
C35   O4    S    
C31   C36   S    
C16   C38   S    
