data_mof_unit_pretest_1831.cif
_audit_creation_date              2012-12-11T19:51:28-0500
_audit_creation_method            fapswitch 2.2
_symmetry_space_group_name_H-M    P1
_symmetry_Int_Tables_number       1
_space_group_crystal_system       triclinic
_cell_length_a                    16.662627
_cell_length_b                    27.995463
_cell_length_c                    8.372264
_cell_angle_alpha                 90.000258
_cell_angle_beta                  104.372527
_cell_angle_gamma                 90.020292
_cell_volume                      3783.243903

loop_
_atom_site_label
_atom_site_type_symbol
_atom_type_description
_atom_site_fract_x
_atom_site_fract_y
_atom_site_fract_z
_atom_type_partial_charge
Ba1   Ba    Ba6+2 0.000400 0.534870 0.845190 1.731667
Ba2   Ba    Ba6+2 0.000400 0.465130 0.345190 1.731256
Ba3   Ba    Ba6+2 0.500400 0.034870 0.845190 1.731570
Ba4   Ba    Ba6+2 0.500400 0.965130 0.345190 1.731576
C1    C     C_3   0.935071 0.759162 0.609284 0.563364
C2    C     C_3   0.933104 0.241617 0.107353 0.570599
C3    C     C_3   0.434279 0.258817 0.608860 0.565896
C4    C     C_3   0.433605 0.741376 0.108127 0.568494
C5    C     C_R   0.138797 0.617439 0.400314 -0.427938
C6    C     C_R   0.139080 0.382692 0.900938 -0.429454
C7    C     C_R   0.638937 0.117386 0.400630 -0.428277
C8    C     C_R   0.638906 0.882630 0.900628 -0.429277
C9    C     C_2   0.751678 0.358981 0.914918 -0.140845
C10   C     C_2   0.751593 0.640953 0.414467 -0.140284
C11   C     C_2   0.251528 0.859049 0.914565 -0.141389
C12   C     C_2   0.251713 0.141008 0.414701 -0.140450
C13   C     C_2   0.817116 0.390190 0.913057 0.120544
C14   C     C_2   0.817203 0.609843 0.413072 0.121852
C15   C     C_2   0.317146 0.890172 0.913102 0.120845
C16   C     C_2   0.317234 0.109849 0.413121 0.121596
C17   C     C_2   0.845947 0.345420 0.683662 -0.024888
C18   C     C_2   0.846178 0.654658 0.183765 -0.025254
C19   C     C_2   0.346063 0.845373 0.683810 -0.025337
C20   C     C_2   0.346238 0.154679 0.183894 -0.025050
C21   C     C_3   0.795001 0.307430 0.722491 -0.022234
C22   C     C_3   0.794994 0.692566 0.222219 -0.026692
C23   C     C_3   0.294870 0.807455 0.722290 -0.024827
C24   C     C_3   0.295183 0.192626 0.222539 -0.024286
C25   C     C_3   0.726188 0.324601 0.786032 0.118741
C26   C     C_3   0.726114 0.675275 0.285400 0.118445
C27   C     C_3   0.226009 0.824722 0.785505 0.121706
C28   C     C_3   0.226290 0.175380 0.285773 0.115026
C29   C     C_2   0.765063 0.271160 0.588741 -0.088686
C30   C     C_2   0.765083 0.728810 0.088373 -0.088887
C31   C     C_2   0.264912 0.771226 0.588426 -0.088353
C32   C     C_2   0.265332 0.228913 0.088800 -0.089572
C33   C     C_2   0.255114 0.725591 0.628190 0.630836
C34   C     C_2   0.255241 0.274507 0.128702 0.629577
C35   C     C_2   0.755273 0.225533 0.628635 0.632558
C36   C     C_2   0.754973 0.774407 0.128184 0.628077
C37   C     C_R   0.264402 0.682903 0.366032 -0.056257
C38   C     C_R   0.264493 0.317183 0.866399 -0.056126
C39   C     C_R   0.764569 0.182840 0.366435 -0.055955
C40   C     C_R   0.764259 0.817094 0.865966 -0.056075
C41   C     C_R   0.223365 0.689310 0.501006 -0.177301
C42   C     C_R   0.223595 0.310834 0.001625 -0.177212
C43   C     C_R   0.723580 0.189220 0.501501 -0.178016
C44   C     C_R   0.723297 0.810713 0.001077 -0.176746
C45   C     C_3   0.026783 0.711255 0.112438 0.320097
C46   C     C_3   0.025648 0.288366 0.614861 0.318567
C47   C     C_3   0.526497 0.211403 0.113363 0.319308
C48   C     C_3   0.525818 0.788381 0.614313 0.318595
C49   C     C_R   0.245723 0.640470 0.259713 0.590851
C50   C     C_R   0.245763 0.359576 0.759911 0.591466
C51   C     C_R   0.745819 0.140439 0.259954 0.590803
C52   C     C_R   0.745635 0.859532 0.759684 0.591460
C53   C     C_R   0.186962 0.609264 0.276472 -0.023248
C54   C     C_R   0.187071 0.390792 0.776753 -0.023214
C55   C     C_R   0.687042 0.109238 0.276663 -0.023277
C56   C     C_R   0.686972 0.890761 0.776584 -0.023047
C57   C     C_R   0.159292 0.654142 0.516294 0.016015
C58   C     C_R   0.159648 0.346044 0.017080 0.017839
C59   C     C_R   0.659485 0.154060 0.516728 0.016216
C60   C     C_R   0.659393 0.845940 0.016625 0.017390
C61   C     C_3   0.065943 0.760555 0.121323 -0.309501
C62   C     C_3   0.064622 0.239057 0.622902 -0.306965
C63   C     C_3   0.565708 0.260675 0.121511 -0.308590
C64   C     C_3   0.564952 0.739125 0.621696 -0.307398
C65   C     C_3   0.754790 0.529219 0.024515 0.854407
C66   C     C_3   0.754582 0.470778 0.524751 0.855542
C67   C     C_3   0.254743 0.029207 0.024500 0.854895
C68   C     C_3   0.254667 0.970789 0.524537 0.854809
C69   C     C_3   0.690952 0.559065 0.903832 -0.191435
C70   C     C_3   0.691225 0.440981 0.402902 -0.190351
C71   C     C_3   0.190937 0.059034 0.903700 -0.191938
C72   C     C_3   0.190922 0.940933 0.403651 -0.191119
C73   C     C_3   0.237238 0.470554 0.132417 0.346739
C74   C     C_3   0.237042 0.529538 0.632476 0.346032
C75   C     C_3   0.737104 0.970513 0.132418 0.346418
C76   C     C_3   0.737160 0.029501 0.632475 0.346442
C77   C     C_3   0.315394 0.440247 0.161027 0.564705
C78   C     C_3   0.315119 0.559942 0.660959 0.563997
C79   C     C_3   0.815210 0.940165 0.160913 0.564357
C80   C     C_3   0.815282 0.059868 0.661033 0.564088
C81   C     C_3   0.974600 0.710303 0.607009 0.292118
C82   C     C_3   0.973285 0.290452 0.108706 0.286235
C83   C     C_3   0.474078 0.209987 0.607705 0.290295
C84   C     C_3   0.473593 0.790219 0.108301 0.289370
C85   C     C_2   0.863413 0.383188 0.785923 -0.243709
C86   C     C_2   0.863715 0.616938 0.286261 -0.243342
C87   C     C_2   0.363618 0.883103 0.786253 -0.243461
C88   C     C_2   0.363705 0.116926 0.286246 -0.243180
H1    H     H_    0.627674 0.550647 0.916531 0.149901
H2    H     H_    0.627749 0.449377 0.414249 0.149821
H3    H     H_    0.127651 0.050625 0.916334 0.149618
H4    H     H_    0.127614 0.949313 0.416129 0.149987
H5    H     H_    0.703339 0.597660 0.929456 0.043134
H6    H     H_    0.703466 0.402375 0.428401 0.043654
H7    H     H_    0.203316 0.097633 0.929258 0.043174
H8    H     H_    0.203295 0.902340 0.429235 0.043873
H9    H     H_    0.693650 0.551391 0.775322 0.115869
H10   H     H_    0.694593 0.448739 0.274946 0.115839
H11   H     H_    0.193670 0.051334 0.775235 0.115845
H12   H     H_    0.193723 0.948636 0.275238 0.115552
H13   H     H_    0.208939 0.473055 0.998353 -0.047369
H14   H     H_    0.208624 0.527070 0.498446 -0.047414
H15   H     H_    0.708733 0.972998 0.998379 -0.047350
H16   H     H_    0.708799 0.027016 0.498424 -0.047456
H17   H     H_    0.193400 0.453098 0.194742 -0.052905
H18   H     H_    0.193250 0.546908 0.695060 -0.051766
H19   H     H_    0.693294 0.953093 0.194888 -0.052351
H20   H     H_    0.693349 0.046906 0.694937 -0.052288
H21   H     H_    0.299922 0.403284 0.117252 -0.073242
H22   H     H_    0.299514 0.596916 0.617526 -0.072266
H23   H     H_    0.799655 0.903195 0.117305 -0.073175
H24   H     H_    0.799747 0.096833 0.617431 -0.072295
H25   H     H_    0.346211 0.438963 0.294812 0.098944
H26   H     H_    0.346079 0.561169 0.794683 0.099208
H27   H     H_    0.846115 0.938913 0.294658 0.099018
H28   H     H_    0.846169 0.061128 0.794792 0.098986
H29   H     H_    0.969464 0.699946 0.476645 -0.062193
H30   H     H_    0.966276 0.302199 0.979119 -0.058738
H31   H     H_    0.468210 0.199155 0.477494 -0.061537
H32   H     H_    0.467187 0.801516 0.978448 -0.061042
H33   H     H_    0.943585 0.771747 0.738355 0.055189
H34   H     H_    0.945660 0.226967 0.234424 0.054655
H35   H     H_    0.444078 0.272040 0.737509 0.055043
H36   H     H_    0.444513 0.727496 0.235965 0.054762
H37   H     H_    0.906273 0.410658 0.767969 0.071875
H38   H     H_    0.906695 0.589521 0.268550 0.072377
H39   H     H_    0.406603 0.910531 0.768506 0.072233
H40   H     H_    0.406600 0.089479 0.268388 0.072249
H41   H     H_    0.090677 0.592237 0.408096 0.093783
H42   H     H_    0.090915 0.407855 0.908604 0.094077
H43   H     H_    0.590761 0.092210 0.408299 0.093923
H44   H     H_    0.590809 0.907827 0.908424 0.093964
H45   H     H_    0.745728 0.282554 0.460865 0.031834
H46   H     H_    0.745976 0.717407 0.960486 0.032890
H47   H     H_    0.245530 0.782657 0.460616 0.032357
H48   H     H_    0.246258 0.217543 0.960878 0.032459
H49   H     H_    0.067710 0.685666 0.068649 0.062868
H50   H     H_    0.067330 0.314112 0.574037 0.059065
H51   H     H_    0.567692 0.185661 0.071001 0.061368
H52   H     H_    0.567364 0.814243 0.573596 0.059484
H53   H     H_    0.072608 0.771411 0.997608 0.143966
H54   H     H_    0.072691 0.228772 0.499580 0.140140
H55   H     H_    0.573009 0.271181 0.997880 0.142880
H56   H     H_    0.572823 0.728945 0.498294 0.141768
H57   H     H_    0.026696 0.787064 0.165405 0.168883
H58   H     H_    0.024460 0.212317 0.663489 0.171445
H59   H     H_    0.526134 0.287364 0.163882 0.169402
H60   H     H_    0.525054 0.712324 0.662390 0.170062
H61   H     H_    0.817158 0.541209 0.016746 -0.024761
H62   H     H_    0.817149 0.458811 0.518373 -0.026656
H63   H     H_    0.317120 0.041197 0.016845 -0.024798
H64   H     H_    0.317053 0.958817 0.517062 -0.025075
O1    O     O_2   0.163830 0.569270 0.980510 -0.436746
O2    O     O_2   0.163830 0.430730 0.480510 -0.436620
O3    O     O_2   0.663830 0.069270 0.980510 -0.436626
O4    O     O_2   0.663830 0.930730 0.480510 -0.436740
O5    O     O_3   0.738475 0.519324 0.488738 -0.577686
O6    O     O_3   0.738538 0.480686 0.988520 -0.577219
O7    O     O_3   0.238486 0.019320 0.488524 -0.577625
O8    O     O_3   0.238519 0.980669 0.988552 -0.577319
O9    O     O_3   0.948006 0.712411 0.001869 -0.608378
O10   O     O_3   0.947589 0.287619 0.501806 -0.609018
O11   O     O_3   0.448002 0.212396 0.001725 -0.608676
O12   O     O_3   0.447675 0.787621 0.501541 -0.608840
O13   O     O_3   0.904940 0.476110 0.001150 -0.507921
O14   O     O_3   0.904940 0.523890 0.501150 -0.507362
O15   O     O_3   0.404940 0.976110 0.001150 -0.507532
O16   O     O_3   0.404940 0.023890 0.501150 -0.507435
O17   O     O_3   0.095420 0.524330 0.188510 -0.523653
O18   O     O_3   0.095420 0.475670 0.688510 -0.523738
O19   O     O_3   0.595420 0.024330 0.188510 -0.523709
O20   O     O_3   0.595420 0.975670 0.688510 -0.523722
O21   O     O_3   0.028940 0.612400 0.656050 -0.522109
O22   O     O_3   0.028940 0.387600 0.156050 -0.522687
O23   O     O_3   0.528940 0.112400 0.656050 -0.522328
O24   O     O_3   0.528940 0.887600 0.156050 -0.522606
O25   O     O_2   0.164116 0.649643 0.852577 -0.368429
O26   O     O_2   0.163333 0.349847 0.353463 -0.368102
O27   O     O_2   0.663804 0.149847 0.853021 -0.368452
O28   O     O_2   0.663582 0.850020 0.353055 -0.367934
O29   O     O_3   0.259207 0.516027 0.198008 -0.555782
O30   O     O_3   0.259150 0.484057 0.697810 -0.556169
O31   O     O_3   0.759162 0.015991 0.197898 -0.556084
O32   O     O_3   0.759189 0.984024 0.697921 -0.555907
O33   O     O_3   0.057847 0.712368 0.696721 -0.591634
O34   O     O_3   0.057221 0.287483 0.193502 -0.594814
O35   O     O_3   0.557625 0.212427 0.695551 -0.592757
O36   O     O_3   0.557307 0.787537 0.194669 -0.593180
O37   O     O_2   0.837400 0.570350 0.710350 -0.487765
O38   O     O_2   0.837400 0.429650 0.210350 -0.487436
O39   O     O_2   0.337400 0.070350 0.710350 -0.487480
O40   O     O_2   0.337400 0.929650 0.210350 -0.487379
O41   O     O_3   0.972820 0.612580 0.035550 -0.500348
O42   O     O_3   0.972820 0.387420 0.535550 -0.499931
O43   O     O_3   0.472820 0.112580 0.035550 -0.500167
O44   O     O_3   0.472820 0.887420 0.535550 -0.499932
O45   O     O_2   0.837069 0.651544 0.843950 -0.501023
O46   O     O_2   0.836819 0.348549 0.344049 -0.502467
O47   O     O_2   0.336994 0.151514 0.844101 -0.501622
O48   O     O_2   0.336833 0.848557 0.344127 -0.501973
P1    P     P_3+3 0.171820 0.553000 0.158080 1.085857
P2    P     P_3+3 0.171820 0.447000 0.658080 1.085840
P3    P     P_3+3 0.671820 0.053000 0.158080 1.085778
P4    P     P_3+3 0.671820 0.947000 0.658080 1.085950
P5    P     P_3+3 0.829210 0.554130 0.532500 1.071132
P6    P     P_3+3 0.829210 0.445870 0.032500 1.070800
P7    P     P_3+3 0.329210 0.054130 0.532500 1.071357
P8    P     P_3+3 0.329210 0.945870 0.032500 1.071466
P9    P     P_3+3 0.898901 0.657757 0.014174 0.935525
P10   P     P_3+3 0.898693 0.342313 0.514191 0.934324
P11   P     P_3+3 0.398899 0.157754 0.014227 0.934912
P12   P     P_3+3 0.398747 0.842289 0.514207 0.934616
P13   P     P_3+3 0.103934 0.342948 0.181289 1.032966
P14   P     P_3+3 0.104105 0.656987 0.681373 1.032617
P15   P     P_3+3 0.603929 0.842953 0.181262 1.033446
P16   P     P_3+3 0.604055 0.157016 0.681410 1.032501
H65   H     H_    0.939690 0.684426 0.664610 0.005552
H66   H     H_    0.940191 0.315733 0.172178 0.013027
H67   H     H_    0.439856 0.184276 0.667483 0.008426
H68   H     H_    0.439924 0.815699 0.169882 0.010483
F1    F     F_    0.369399 0.459543 0.076800 -0.642244
F2    F     F_    0.369029 0.540798 0.576267 -0.642352
F3    F     F_    0.869156 0.959393 0.076421 -0.642315
F4    F     F_    0.869241 0.040656 0.576576 -0.642469
H69   H     H_    0.867642 0.756632 0.551346 0.062000
H70   H     H_    0.865079 0.245021 0.058676 0.055425
H71   H     H_    0.366599 0.255933 0.553757 0.059613
H72   H     H_    0.365824 0.744462 0.055708 0.057629
H73   H     H_    0.128242 0.759907 0.208313 0.059265
H74   H     H_    0.126275 0.239362 0.712342 0.059315
H75   H     H_    0.627728 0.260175 0.209560 0.059317
H76   H     H_    0.626670 0.739426 0.710634 0.059331
H77   H     H_    0.712423 0.365362 0.998550 0.094793
H78   H     H_    0.712182 0.634498 0.497772 0.094364
H79   H     H_    0.212148 0.865492 0.997925 0.094882
H80   H     H_    0.212333 0.134576 0.498081 0.094284
F5    F     F_    0.291875 0.632390 0.149835 -0.629056
F6    F     F_    0.291770 0.367593 0.649718 -0.629060
F7    F     F_    0.791910 0.132389 0.149946 -0.629300
F8    F     F_    0.791711 0.867575 0.649633 -0.629104
F9    F     F_    0.274893 0.712174 0.789149 -0.664659
F10   F     F_    0.274599 0.287846 0.289736 -0.666201
F11   F     F_    0.775009 0.212157 0.789663 -0.662500
F12   F     F_    0.774363 0.787778 0.289176 -0.668174
F13   F     F_    0.970709 0.791726 0.522907 -0.649032
F14   F     F_    0.963836 0.210566 0.008493 -0.648473
F15   F     F_    0.468387 0.290995 0.518498 -0.648270
F16   F     F_    0.466298 0.709751 0.014133 -0.648479
H81   H     H_    0.022633 0.701175 0.238658 -0.027846
H82   H     H_    0.020304 0.297952 0.740721 -0.022267
H83   H     H_    0.521819 0.201633 0.239551 -0.025684
H84   H     H_    0.520557 0.797825 0.740338 -0.023278
F17   F     F_    0.745003 0.537770 0.179707 -0.772777
F18   F     F_    0.743893 0.462128 0.679204 -0.771713
F19   F     F_    0.244876 0.037779 0.179609 -0.772709
F20   F     F_    0.244698 0.962225 0.679555 -0.772361

loop_
_geom_bond_atom_site_label_1
_geom_bond_atom_site_label_2
_ccdc_geom_bond_type
C72   H12   S    
C71   H11   S    
O34   P13   S    
O27   P16   D    
C68   H64   S    
Ba4   O15   S    
C51   C55   D    
O23   P16   S    
C73   O29   S    
C70   H2    S    
O22   P13   S    
C47   O11   S    
C3    H35   S    
O11   P11   S    
O21   P14   S    
C84   H32   S    
O16   P7    S    
C47   H83   S    
O2    P2    D    
C71   H3    S    
C70   H6    S    
C79   F3    S    
C53   P1    S    
C69   H5    S    
C16   C88   S    
C63   H75   S    
C29   C35   D    
C51   F7    S    
C42   C58   S    
C30   C36   D    
C50   F6    S    
O47   P11   D    
C12   C16   A    
C6    C54   S    
C49   F5    S    
C62   H58   S    
C7    C59   A    
Ba2   O17   S    
C43   C59   S    
C17   P10   S    
C8    C60   A    
C20   P11   S    
Ba3   O16   S    
C44   C60   S    
O4    P4    D    
C54   P2    S    
C2    H34   S    
C81   O33   S    
C34   F10   S    
C77   H25   S    
Ba1   O14   S    
C33   F9    S    
C36   C44   S    
Ba1   Ba2   S    
C38   C42   S    
C16   P7    S    
C79   H27   S    
Ba3   O23   S    
C61   H73   S    
C18   C22   A    
C64   H76   S    
C31   H47   S    
Ba1   O21   S    
C4    H36   S    
O28   P15   D    
C3    C83   S    
O19   P3    S    
C29   H45   S    
C75   C79   S    
Ba4   O19   S    
C45   H49   S    
C66   C70   S    
Ba3   O43   S    
C84   H68   S    
C65   C69   S    
C74   O30   S    
C12   H80   S    
C69   H1    S    
C19   C87   D    
Ba1   P1    S    
C64   H56   S    
C76   C80   S    
C70   H10   S    
C1    C81   S    
C69   H9    S    
C52   F8    S    
C80   H24   S    
C66   H62   S    
O3    P3    D    
Ba3   O3    S    
O48   P12   D    
C46   O10   S    
C4    F16   S    
C6    C58   A    
C5    H41   S    
Ba4   O24   S    
C7    C55   S    
C75   O31   S    
C20   C88   D    
C11   H79   S    
C36   F12   S    
C22   C30   S    
Ba4   P4    S    
C19   P12   S    
C21   C25   A    
C75   H15   S    
Ba1   O18   S    
Ba2   P6    S    
C82   O34   S    
C67   O8    S    
O30   P2    S    
Ba1   P5    S    
C15   P8    S    
C14   C86   S    
C58   P13   S    
C79   H23   S    
C24   C28   A    
C14   P5    S    
C13   C85   S    
C65   O6    S    
C78   H22   S    
C1    F13   S    
C13   P6    S    
C10   H78   S    
C55   P3    S    
C2    F14   S    
C56   P4    S    
C17   C85   D    
O6    P6    S    
Ba3   P7    S    
C23   C31   S    
C48   C64   S    
C10   C26   A    
C35   C43   S    
O5    P5    S    
C75   H19   S    
C30   H46   S    
C46   H50   S    
C65   H61   S    
Ba4   O40   S    
C52   C56   D    
C3    F15   S    
C4    C84   S    
C86   H38   S    
C59   P16   S    
C83   H31   S    
C11   C15   A    
O39   P7    D    
C64   H60   S    
C1    H69   S    
O29   P1    S    
O38   P6    D    
C45   H81   S    
C40   C52   S    
C83   O35   S    
O37   P5    D    
C73   C77   S    
C80   H28   S    
C67   H63   S    
C76   H20   S    
C21   C29   S    
C71   H7    S    
C18   C86   D    
O1    P1    D    
C68   C72   S    
C74   H18   S    
C47   C63   S    
Ba1   O1    S    
O46   P10   D    
C81   H29   S    
C46   C62   S    
O45   P9    D    
C77   F1    S    
C45   C61   S    
C57   P14   S    
Ba2   O14   S    
C35   F11   S    
C8    C56   S    
O9    P9    S    
C81   H65   S    
C62   H74   S    
C45   O9    S    
C68   F20   S    
C19   C23   A    
C48   H52   S    
C23   C27   A    
C63   H55   S    
O31   P3    S    
O43   P11   S    
C18   P9    S    
C12   C28   A    
C78   H26   S    
C33   C41   S    
Ba3   Ba4   S    
C80   F4    S    
C66   O5    S    
Ba1   O13   S    
C62   H54   S    
O41   P9    S    
O33   P14   S    
C78   F2    S    
C65   F17   S    
C48   O12   S    
C50   C54   D    
C9    C25   A    
C84   O36   S    
C17   C21   A    
C73   H17   S    
O7    P7    S    
Ba4   O16   S    
C60   P15   S    
C88   H40   S    
Ba2   O42   S    
C10   C14   A    
Ba1   O41   S    
C7    H43   S    
C20   C24   A    
C46   H82   S    
C74   C78   S    
C49   C53   D    
O35   P16   S    
C9    H77   S    
C11   C27   A    
C39   C51   S    
C47   H51   S    
C72   H8    S    
C82   H66   S    
C76   H16   S    
O32   P4    S    
C2    C82   S    
C9    C13   A    
C74   H14   S    
Ba3   P3    S    
O20   P4    S    
C2    H70   S    
C48   H84   S    
Ba2   P2    S    
C31   C33   D    
C72   H4    S    
C32   C34   D    
C67   C71   S    
O15   P8    S    
C4    H72   S    
O12   P12   S    
Ba4   O4    S    
O14   P5    S    
C39   C43   S    
O10   P10   S    
O8    P8    S    
C63   H59   S    
Ba4   P8    S    
C3    H71   S    
C61   H53   S    
C41   C57   S    
O44   P12   S    
C68   O7    S    
C1    H33   S    
C5    C57   A    
C5    C53   S    
C32   H48   S    
C61   H57   S    
C82   H30   S    
C73   H13   S    
Ba3   O39   S    
C34   C42   S    
C15   C87   S    
Ba2   O13   S    
C37   C49   S    
O40   P8    D    
C40   C44   S    
Ba3   O20   S    
Ba4   O44   S    
C6    H42   S    
C87   H39   S    
Ba2   O2    S    
C24   C32   S    
O26   P13   D    
C8    H44   S    
C66   F18   S    
C77   H21   S    
O25   P14   D    
O18   P2    S    
C37   C41   S    
Ba1   O37   S    
O24   P15   S    
O17   P1    S    
Ba2   O22   S    
O36   P15   S    
Ba2   O38   S    
C85   H37   S    
C67   F19   S    
O13   P6    S    
C38   C50   S    
Ba3   O15   S    
C83   H67   S    
C76   O32   S    
C22   C26   A    
O42   P10   S    
