data_mof_unit_pretest_212.cif
_audit_creation_date              2012-12-11T15:10:48-0500
_audit_creation_method            fapswitch 2.2
_symmetry_space_group_name_H-M    P1
_symmetry_Int_Tables_number       1
_space_group_crystal_system       triclinic
_cell_length_a                    21.150152
_cell_length_b                    7.239129
_cell_length_c                    18.259635
_cell_angle_alpha                 90.003532
_cell_angle_beta                  93.41468
_cell_angle_gamma                 89.997834
_cell_volume                      2790.74508043

loop_
_atom_site_label
_atom_site_type_symbol
_atom_type_description
_atom_site_fract_x
_atom_site_fract_y
_atom_site_fract_z
_atom_type_partial_charge
O1    O     O_R   0.448880 0.506250 0.415280 -0.527623
O2    O     O_R   0.551120 0.006250 0.584720 -0.527633
O3    O     O_R   0.434830 0.174000 0.557310 -0.521317
O4    O     O_R   0.565170 0.674000 0.442690 -0.521320
C1    C     C_R   0.416992 0.344583 0.579656 0.697798
C2    C     C_R   0.583009 0.844575 0.420345 0.697795
O5    O     O_R   0.441680 0.176440 0.414130 -0.530385
O6    O     O_R   0.558320 0.676440 0.585870 -0.530381
O7    O     O_R   0.558020 0.007570 0.440520 -0.519828
O8    O     O_R   0.441980 0.507570 0.559480 -0.519828
C3    C     C_R   0.428073 0.344784 0.388299 0.695275
C4    C     C_R   0.571926 0.844787 0.611702 0.695267
O9    O     O_3   0.538160 0.339670 0.508820 -0.365831
O10   O     O_3   0.461840 0.839670 0.491180 -0.365825
V1    V     V_3+5 0.492920 0.064260 0.498360 1.438577
V2    V     V_3+5 0.507080 0.564260 0.501640 1.438584
C5    C     C_R   0.875656 0.986898 0.688316 -0.162340
C6    C     C_R   0.124317 0.486477 0.311705 -0.162335
H1    H     H_    0.963538 0.014070 0.752056 0.107201
H2    H     H_    0.036435 0.513640 0.247963 0.107192
H3    H     H_    0.795701 0.987401 0.571089 0.123794
H4    H     H_    0.204255 0.486756 0.428946 0.123792
H5    H     H_    0.897540 0.018498 0.637604 0.114283
H6    H     H_    0.102418 0.517855 0.362429 0.114283
C7    C     C_R   0.887098 0.942888 0.819823 -0.039846
C8    C     C_R   0.112904 0.442877 0.180174 -0.039823
C9    C     C_R   0.582589 0.810823 0.745785 -0.188719
C10   C     C_R   0.417427 0.311045 0.254203 -0.188751
C11   C     C_R   0.617333 0.806217 0.812876 0.338980
C12   C     C_R   0.382694 0.306580 0.187104 0.338984
C13   C     C_R   0.682412 0.839280 0.816667 -0.192892
C14   C     C_R   0.317609 0.339572 0.183316 -0.192907
C15   C     C_R   0.714721 0.878554 0.752836 0.026692
C16   C     C_R   0.285284 0.378620 0.247160 0.026684
C17   C     C_R   0.678379 0.885107 0.684004 0.068392
C18   C     C_R   0.321615 0.385025 0.316002 0.068391
C19   C     C_R   0.781806 0.911123 0.755043 0.094675
C20   C     C_R   0.218194 0.411102 0.244956 0.094679
C21   C     C_R   0.810409 0.951433 0.688362 0.139107
C22   C     C_R   0.189572 0.451144 0.311653 0.139102
C23   C     C_R   0.773880 0.957053 0.621966 -0.200364
C24   C     C_R   0.226090 0.456617 0.378058 -0.200360
C25   C     C_R   0.709069 0.924040 0.619677 -0.170317
C26   C     C_R   0.290909 0.423717 0.380342 -0.170287
C27   C     C_R   0.821787 0.906094 0.820777 -0.205414
C28   C     C_R   0.178223 0.406223 0.179213 -0.205410
C29   C     C_R   0.913439 0.983924 0.753428 -0.166527
C30   C     C_R   0.086543 0.483633 0.246585 -0.166542
C31   C     C_R   0.612010 0.850452 0.681062 -0.133866
C32   C     C_R   0.387990 0.350460 0.318939 -0.133856
H7    H     H_    0.803788 0.876753 0.873513 0.103627
H8    H     H_    0.196236 0.377093 0.126465 0.103608
H9    H     H_    0.532179 0.782803 0.744081 0.145316
H10   H     H_    0.467843 0.283107 0.255903 0.145312
H11   H     H_    0.706195 0.832950 0.870395 0.146379
H12   H     H_    0.293835 0.333365 0.129582 0.146382
H13   H     H_    0.683068 0.929678 0.566813 0.105526
H14   H     H_    0.316901 0.429233 0.433213 0.105475
C33   C     C_1   0.864589 0.938943 0.132175 -0.198300
C34   C     C_1   0.135409 0.438922 0.867824 -0.198305
C35   C     C_1   0.821764 0.924885 0.175969 0.012396
C36   C     C_1   0.178235 0.424868 0.824031 0.012388
C37   C     C_1   0.771224 0.905758 0.228123 0.015302
C38   C     C_1   0.228775 0.405752 0.771877 0.015301
C39   C     C_1   0.728669 0.889118 0.272133 0.016073
C40   C     C_1   0.271332 0.389124 0.727867 0.016074
C41   C     C_1   0.678121 0.869987 0.324273 0.015557
C42   C     C_1   0.321880 0.370004 0.675727 0.015555
C43   C     C_1   0.635276 0.855929 0.368038 -0.192378
C44   C     C_1   0.364725 0.355950 0.631962 -0.192375
O11   O     O_R   0.058070 0.289240 0.940580 -0.520381
O12   O     O_R   0.941930 0.789240 0.059420 -0.520374
O13   O     O_R   0.058330 0.616740 0.085880 -0.531651
O14   O     O_R   0.941670 0.116740 0.914120 -0.531645
C45   C     C_R   0.072023 0.448796 0.111726 0.686160
C46   C     C_R   0.927979 0.948793 0.888273 0.686165
O15   O     O_R   0.065180 0.619040 0.942700 -0.521514
O16   O     O_R   0.934820 0.119040 0.057300 -0.521517
O17   O     O_R   0.948870 0.787780 0.915270 -0.530251
O18   O     O_R   0.051130 0.287780 0.084730 -0.530240
C47   C     C_R   0.083174 0.450318 0.920184 0.705136
C48   C     C_R   0.916825 0.950326 0.079815 0.705144
O19   O     O_3   0.961870 0.453310 0.991210 -0.364964
O20   O     O_3   0.038130 0.953310 0.008790 -0.364963
V3    V     V_3+5 0.007070 0.728770 0.001630 1.429124
V4    V     V_3+5 0.992930 0.228770 0.998370 1.429132
Br1   Br    Br    0.575514 0.752344 0.900348 -0.440645
Br2   Br    Br    0.424537 0.253032 0.099614 -0.440627

loop_
_geom_bond_atom_site_label_1
_geom_bond_atom_site_label_2
_ccdc_geom_bond_type
C2    C43   S    
C40   C42   S    
C37   C39   T    
C9    C11   A    
C23   C25   A    
O1    C3    A    
C46   O17   A    
O2    C4    A    
C2    O7    A    
O12   V3    S    
O3    V1    S    
C21   C23   A    
O5    C3    A    
C5    H5    S    
O14   C46   A    
C6    H6    S    
H1    C29   S    
C27   H7    S    
C28   H8    S    
C34   C36   T    
C5    C21   A    
C35   C37   S    
C6    C22   A    
C36   C38   S    
C10   C32   A    
C26   H14   S    
C39   C41   S    
C17   C31   A    
O18   V4    S    
C33   C48   S    
C12   C14   A    
C17   C25   A    
C45   O18   A    
C7    C29   A    
C8    C30   A    
O16   V4    S    
O5    V1    S    
O15   V3    S    
O6    V2    S    
O13   C45   A    
C24   C26   A    
C4    C31   S    
C33   C35   T    
C20   C28   A    
O20   V3    S    
O4    C2    A    
C10   H10   S    
C15   C19   A    
C41   C43   T    
C14   C16   A    
O4    V2    S    
C1    C44   S    
O11   V4    S    
C34   C47   S    
O16   C48   A    
O15   C47   A    
O6    C4    A    
C13   C15   A    
C8    C45   S    
C25   H13   S    
O1    V2    S    
O14   V4    S    
O2    V1    S    
O13   V3    S    
H2    C30   S    
H3    C23   S    
C42   C44   T    
C18   C26   A    
C19   C27   A    
C7    C27   A    
O17   V3    S    
C18   C32   A    
C16   C20   A    
C5    C29   A    
O3    C1    A    
C6    C30   A    
C9    H9    S    
C7    C46   S    
C10   C12   A    
O7    V1    S    
C1    O8    A    
C19   C21   A    
C3    C32   S    
O8    V2    S    
C20   C22   A    
H4    C24   S    
C22   C24   A    
C15   C17   A    
C16   C18   A    
C11   Br1   S    
C8    C28   A    
O19   V4    S    
C11   C13   A    
O9    V2    S    
O10   V1    S    
C13   H11   S    
C12   Br2   S    
C14   H12   S    
O12   C48   A    
C9    C31   A    
C38   C40   T    
O11   C47   A    
