data_mof_unit_pretest_1154.cif
_audit_creation_date              2012-12-11T15:39:13-0500
_audit_creation_method            fapswitch 2.2
_symmetry_space_group_name_H-M    P1
_symmetry_Int_Tables_number       1
_space_group_crystal_system       triclinic
_cell_length_a                    14.297798
_cell_length_b                    14.76937
_cell_length_c                    33.143052
_cell_angle_alpha                 97.704665
_cell_angle_beta                  90.242347
_cell_angle_gamma                 118.868546
_cell_volume                      6054.52141105

loop_
_atom_site_label
_atom_site_type_symbol
_atom_type_description
_atom_site_fract_x
_atom_site_fract_y
_atom_site_fract_z
_atom_type_partial_charge
C1    C     C_R   0.617083 0.911046 0.436774 0.541613
C2    C     C_R   0.736381 0.388900 0.180931 0.112360
C3    C     C_R   0.735379 0.885033 0.649601 0.259749
C4    C     C_R   0.666850 0.780119 0.653653 -0.000277
C5    C     C_R   0.637967 0.858049 0.584429 -0.010294
C6    C     C_R   0.051799 0.781154 0.063965 0.540807
C7    C     C_R   0.743502 0.485173 0.065697 0.547660
C8    C     C_R   0.742309 0.789490 0.066259 0.555149
C9    C     C_R   0.023228 0.733293 0.947773 0.537252
C10   C     C_R   0.711953 0.436588 0.949318 0.545800
C11   C     C_R   0.742330 0.717195 0.945500 0.566327
C12   C     C_R   0.825240 0.409636 0.158115 0.292025
C13   C     C_R   0.823730 0.433862 0.118946 -0.109985
C14   C     C_R   0.711594 0.280309 0.234626 0.233155
C15   C     C_R   0.701691 0.268078 0.275781 -0.142228
C16   C     C_R   0.712956 0.350763 0.305321 -0.053293
C17   C     C_R   0.739582 0.447852 0.294375 -0.131585
C18   C     C_R   0.756921 0.463538 0.253789 0.204064
C19   C     C_R   0.738600 0.378082 0.223891 0.060392
C20   C     C_R   0.616124 0.348301 0.367519 -0.120100
C21   C     C_R   0.594568 0.205827 0.456640 0.570399
C22   C     C_R   0.585404 0.313593 0.405436 0.259005
C23   C     C_R   0.723041 0.260664 0.403847 -0.177823
C24   C     C_R   0.751113 0.293735 0.366551 -0.139618
C25   C     C_R   0.695067 0.333606 0.347554 0.000897
C26   C     C_R   0.636998 0.265264 0.422649 0.043346
C27   C     C_R   0.232314 0.872581 0.395025 0.025240
C28   C     C_R   0.216002 0.952710 0.382546 0.224814
C29   C     C_R   0.196486 0.951489 0.341055 -0.115188
C30   C     C_R   0.179999 0.865935 0.312475 -0.061496
C31   C     C_R   0.175178 0.777970 0.325567 -0.133289
C32   C     C_R   0.292462 0.891401 0.434907 0.554647
C33   C     C_R   0.204063 0.781081 0.366593 0.220487
C34   C     C_R   0.186306 0.801761 0.164737 -0.132972
C35   C     C_R   0.162618 0.783085 0.122595 -0.131450
C36   C     C_R   0.084848 0.897821 0.130410 -0.126605
C37   C     C_R   0.108145 0.915942 0.172689 -0.119916
C38   C     C_R   0.155509 0.864963 0.189958 0.024548
C39   C     C_1   0.164024 0.869301 0.233418 -0.046775
C40   C     C_1   0.170111 0.868709 0.269595 -0.041682
C41   C     C_R   0.107323 0.827214 0.105180 0.019201
C42   C     C_R   0.638029 0.883898 0.394469 -0.031861
C43   C     C_R   0.614471 0.904228 0.551322 0.563331
C44   C     C_R   0.575781 0.782931 0.371447 0.274740
C45   C     C_R   0.572661 0.770810 0.328467 0.289131
C46   C     C_R   0.639821 0.857197 0.309217 -0.008245
C47   C     C_R   0.711722 0.952403 0.332542 -0.193357
C48   C     C_R   0.710044 0.966192 0.374661 -0.200539
C49   C     C_R   0.768533 0.915504 0.175260 0.255887
C50   C     C_R   0.790802 0.900963 0.134577 -0.104358
C51   C     C_R   0.607298 0.762964 0.117286 -0.146521
C52   C     C_R   0.584420 0.776928 0.157776 -0.169576
C53   C     C_R   0.665579 0.849944 0.187063 0.027268
C54   C     C_R   0.588479 0.197553 0.571334 0.541959
C55   C     C_1   0.647154 0.849445 0.229534 -0.026296
C56   C     C_1   0.639244 0.850714 0.265641 -0.014624
C57   C     C_R   0.711636 0.822252 0.105664 -0.023328
C58   C     C_R   0.614073 0.236704 0.615551 0.025089
C59   C     C_R   0.549330 0.270253 0.637476 -0.124061
C60   C     C_R   0.552168 0.278755 0.679982 -0.102962
C61   C     C_R   0.619460 0.253736 0.700966 0.039417
C62   C     C_R   0.689661 0.227726 0.679757 -0.130921
C63   C     C_R   0.687371 0.219511 0.637278 -0.135969
C64   C     C_R   0.746988 0.333199 0.842971 0.275479
C65   C     C_R   0.289717 0.887323 0.548895 0.540911
C66   C     C_R   0.767201 0.365804 0.885632 0.257155
C67   C     C_R   0.580901 0.322824 0.890085 -0.198515
C68   C     C_R   0.559361 0.282015 0.848564 -0.187598
C69   C     C_R   0.642535 0.289782 0.824799 0.005741
C70   C     C_1   0.624870 0.267159 0.781080 -0.000084
C71   C     C_1   0.618989 0.257687 0.744412 -0.031704
C72   C     C_R   0.685641 0.369587 0.908754 -0.018444
C73   C     C_R   0.079828 0.763180 0.910931 0.021207
C74   C     C_R   0.105003 0.860250 0.899602 -0.139894
C75   C     C_R   0.135351 0.880424 0.860664 -0.126001
C76   C     C_R   0.735704 0.439743 0.103003 -0.026623
C77   C     C_R   0.141899 0.804263 0.832629 0.030909
C78   C     C_R   0.128893 0.712232 0.845460 -0.134574
C79   C     C_R   0.097285 0.691415 0.884409 -0.132059
C80   C     C_R   0.210702 0.784154 0.764899 -0.129526
C81   C     C_R   0.208658 0.786620 0.723118 -0.093037
C82   C     C_R   0.143264 0.819146 0.705092 0.102371
C83   C     C_R   0.079530 0.848922 0.729013 -0.079267
C84   C     C_R   0.081643 0.846678 0.770814 -0.127224
C85   C     C_R   0.147441 0.814483 0.789086 0.023343
C86   C     C_R   0.202144 0.934445 0.652312 0.224379
C87   C     C_R   0.644552 0.410668 0.124859 -0.149865
C88   C     C_R   0.240917 0.950516 0.613891 -0.134820
C89   C     C_R   0.166892 0.763388 0.593299 -0.140869
C90   C     C_R   0.128350 0.746138 0.632052 0.222116
C91   C     C_R   0.152380 0.832698 0.662090 0.051977
C92   C     C_R   0.228186 0.865954 0.585029 -0.064064
C93   C     C_R   0.722592 0.704760 0.900814 0.012327
C94   C     C_R   0.624336 0.630765 0.879389 -0.137279
C95   C     C_R   0.609694 0.626522 0.837140 -0.080338
C96   C     C_R   0.693504 0.695174 0.815931 0.045261
C97   C     C_R   0.792832 0.764907 0.837171 -0.145042
C98   C     C_R   0.644767 0.384296 0.163443 -0.144710
C99   C     C_R   0.807170 0.769535 0.878997 -0.131232
C100  C     C_R   0.594218 0.719659 0.759455 0.282836
C101  C     C_R   0.587027 0.735865 0.719012 -0.110147
C102  C     C_R   0.666773 0.744346 0.692965 0.015264
C103  C     C_R   0.750021 0.728516 0.706154 -0.094543
C104  C     C_R   0.754251 0.705816 0.745445 -0.178755
C105  C     C_R   0.677271 0.701923 0.772537 0.030209
C106  C     C_R   0.588494 0.713155 0.622434 -0.163643
C107  C     C_R   0.571863 0.751124 0.587809 0.252448
C108  C     C_R   0.721694 0.922921 0.614613 -0.173755
Cr1   Cr    Cr6+3 0.424820 0.846020 0.489780 1.056902
Cr2   Cr    Cr6+3 0.657880 0.078580 0.505700 0.994692
Cr3   Cr    Cr6+3 0.417280 0.075360 0.504550 1.028561
Cr4   Cr    Cr6+3 0.903360 0.812540 0.006510 0.998319
Cr5   Cr    Cr6+3 0.914630 0.587050 0.006280 1.021440
Cr6   Cr    Cr6+3 0.673560 0.582680 0.008540 1.007016
H1    H     H_    0.574726 0.412017 0.112868 0.138378
H2    H     H_    0.765082 0.225371 0.416652 0.134817
H3    H     H_    0.181105 0.728545 0.103973 0.123275
H4    H     H_    0.224339 0.763063 0.177720 0.105994
H5    H     H_    0.151504 0.707844 0.303721 0.110380
H6    H     H_    0.193480 0.017280 0.331295 0.125179
H7    H     H_    0.872211 0.946019 0.126458 0.132821
H8    H     H_    0.765492 0.018206 0.317964 0.124408
H9    H     H_    0.760990 0.043804 0.391429 0.146132
H10   H     H_    0.504964 0.726763 0.166617 0.108161
H11   H     H_    0.813705 0.284038 0.351619 0.112492
H12   H     H_    0.743831 0.210702 0.695916 0.094976
H13   H     H_    0.737955 0.193074 0.621401 0.122313
H14   H     H_    0.492391 0.284453 0.621640 0.116564
H15   H     H_    0.479002 0.250363 0.834507 0.131003
H16   H     H_    0.499775 0.301889 0.696351 0.105029
H17   H     H_    0.094774 0.918163 0.919912 0.117956
H18   H     H_    0.079475 0.616464 0.892616 0.148409
H19   H     H_    0.683133 0.193686 0.284759 0.110684
H20   H     H_    0.147998 0.953174 0.851710 0.105435
H21   H     H_    0.029039 0.874446 0.715370 0.117449
H22   H     H_    0.288003 0.030177 0.607978 0.147777
H23   H     H_    0.151428 0.697808 0.570074 0.123752
H24   H     H_    0.558565 0.578333 0.895290 0.127093
H25   H     H_    0.884543 0.825785 0.894531 0.133358
H26   H     H_    0.522136 0.747212 0.708461 0.093528
H27   H     H_    0.820043 0.695113 0.755314 0.113683
H28   H     H_    0.539285 0.631736 0.625694 0.111815
H29   H     H_    0.858369 0.819076 0.821668 0.098762
H30   H     H_    0.774425 0.004018 0.611693 0.127204
H31   H     H_    0.577290 0.383637 0.352715 0.083496
O1    O     O_R   0.318160 0.824460 0.443680 -0.478488
O2    O     O_R   0.645130 0.163230 0.552140 -0.502242
O3    O     O_R   0.498360 0.178430 0.555780 -0.522957
O4    O     O_R   0.328690 0.978040 0.538950 -0.511437
O5    O     O_3   0.499990 0.999990 0.500010 -0.252930
O6    O     O_R   0.828710 0.851830 0.052170 -0.516443
O7    O     O_R   0.005980 0.823990 0.047210 -0.502011
O8    O     O_R   0.031900 0.688850 0.050170 -0.517694
O9    O     O_R   0.830940 0.518420 0.048680 -0.508464
O10   O     O_R   0.668160 0.499860 0.053480 -0.512992
O11   O     O_R   0.689170 0.693840 0.050110 -0.488595
O12   O     O_R   0.525040 0.857250 0.449830 -0.466851
O13   O     O_R   0.803860 0.812940 0.962540 -0.515800
O14   O     O_R   0.982950 0.787950 0.964120 -0.529276
O15   O     O_R   0.007050 0.649970 0.960540 -0.491118
O16   O     O_R   0.807910 0.482370 0.965590 -0.452516
O17   O     O_R   0.643310 0.460980 0.963840 -0.535838
O18   O     O_R   0.666140 0.657800 0.967020 -0.499164
O19   O     O_3   0.830520 0.660760 0.007110 -0.260061
O20   O     O_R   0.684760 0.998800 0.456360 -0.531922
O21   O     O_R   0.647540 0.166310 0.470260 -0.520737
O22   O     O_R   0.500960 0.181750 0.467450 -0.449748
O23   O     O_R   0.331100 0.981120 0.457080 -0.473080
O24   O     O_R   0.315560 0.821140 0.532010 -0.518091
O25   O     O_R   0.522630 0.854180 0.531710 -0.447557
O26   O     O_R   0.682160 0.995480 0.544690 -0.535192
O27   O     O_3   0.512479 0.331931 0.427877 -0.563811
C109  C     C_3   0.422424 0.313689 0.403228 0.022937
H32   H     H_    0.392397 0.240361 0.380720 0.153679
H33   H     H_    0.442837 0.381433 0.387109 0.112026
C110  C     C_3   0.333416 0.302949 0.430790 -0.223291
H34   H     H_    0.312646 0.236848 0.447908 0.208124
H35   H     H_    0.362266 0.375699 0.453289 0.152805
C111  C     C_3   0.233582 0.283957 0.406119 -0.487636
H36   H     H_    0.251310 0.353158 0.391404 0.141699
H37   H     H_    0.168597 0.270746 0.426704 0.139006
H38   H     H_    0.205673 0.214054 0.382211 0.160356
O28   O     O_3   0.909448 0.397733 0.171992 -0.568646
C112  C     C_3   0.985284 0.490702 0.196933 0.000608
H39   H     H_    0.959547 0.490625 0.228510 0.139365
H40   H     H_    0.995755 0.562701 0.185596 0.125700
C113  C     C_3   0.093761 0.493712 0.197701 -0.261753
H41   H     H_    0.083110 0.416312 0.202465 0.178085
H42   H     H_    0.128010 0.510586 0.167812 0.157221
C114  C     C_3   0.172079 0.576798 0.231791 -0.497473
H43   H     H_    0.180166 0.654420 0.229399 0.147094
H44   H     H_    0.251998 0.582070 0.229689 0.148968
H45   H     H_    0.143232 0.555195 0.261926 0.140861
O29   O     O_3   0.191944 0.691558 0.380255 -0.564353
C115  C     C_3   0.257354 0.654600 0.360475 0.038694
H46   H     H_    0.329328 0.680399 0.381363 0.221976
H47   H     H_    0.285854 0.684006 0.331171 0.138047
C116  C     C_3   0.195211 0.534956 0.352500 -0.267353
H48   H     H_    0.174843 0.504853 0.382052 0.171857
H49   H     H_    0.119271 0.508395 0.333770 0.158283
C117  C     C_3   0.259786 0.489489 0.330087 -0.472362
H50   H     H_    0.278505 0.516714 0.300060 0.174291
H51   H     H_    0.212166 0.402734 0.324777 0.119649
H52   H     H_    0.335488 0.513494 0.348449 0.202644
O30   O     O_3   0.223814 0.035968 0.409937 -0.569053
C118  C     C_3   0.133839 0.000897 0.433624 0.021065
H53   H     H_    0.152615 0.063266 0.460115 0.138543
H54   H     H_    0.118341 0.929585 0.446641 0.123622
C119  C     C_3   0.032485 0.981678 0.409243 -0.286755
H55   H     H_    0.048206 0.053451 0.396786 0.160911
H56   H     H_    0.009710 0.917081 0.383273 0.153324
C120  C     C_3   0.938513 0.951723 0.436006 -0.476862
H57   H     H_    0.921880 0.880465 0.449077 0.144132
H58   H     H_    0.865862 0.934963 0.417309 0.157034
H59   H     H_    0.956362 0.016846 0.461199 0.151459
H60   H     H_    0.084101 0.965162 0.191993 0.127825
H61   H     H_    0.041539 0.932316 0.117965 0.127739
H62   H     H_    0.893284 0.451839 0.101776 0.138202
O31   O     O_3   0.852559 0.981832 0.203977 -0.597566
C121  C     C_3   0.848542 0.075378 0.215418 0.016690
H63   H     H_    0.776593 0.060162 0.232340 0.153874
H64   H     H_    0.846807 0.111408 0.188105 0.169646
C122  C     C_3   0.948766 0.152698 0.243316 -0.262573
H65   H     H_    0.956602 0.114893 0.269012 0.165520
H66   H     H_    0.020581 0.174638 0.225672 0.160704
C123  C     C_3   0.944267 0.251392 0.260760 -0.475750
H67   H     H_    0.929353 0.287233 0.235854 0.207157
H68   H     H_    0.021617 0.309123 0.278094 0.130538
H69   H     H_    0.879559 0.232015 0.281867 0.144897
O32   O     O_3   0.512784 0.695996 0.389756 -0.578336
C124  C     C_3   0.577657 0.673307 0.414558 0.018284
H70   H     H_    0.523847 0.614924 0.433428 0.162354
H71   H     H_    0.635323 0.742556 0.436495 0.127212
C125  C     C_3   0.637305 0.625942 0.388949 -0.287149
H72   H     H_    0.578174 0.551358 0.370135 0.148658
H73   H     H_    0.688364 0.680252 0.368235 0.140673
C126  C     C_3   0.708905 0.605123 0.416178 -0.468032
H74   H     H_    0.769621 0.679253 0.434924 0.143529
H75   H     H_    0.751433 0.571535 0.396939 0.152028
H76   H     H_    0.660130 0.548958 0.436685 0.192233
H77   H     H_    0.544938 0.701748 0.095543 0.128922
O33   O     O_3   0.493818 0.678683 0.306051 -0.572885
C127  C     C_3   0.538761 0.620727 0.285248 0.012605
H78   H     H_    0.529758 0.558860 0.303059 0.136324
H79   H     H_    0.625538 0.668294 0.280719 0.129613
C128  C     C_3   0.476631 0.568519 0.243587 -0.266010
H80   H     H_    0.392224 0.511978 0.247822 0.151478
H81   H     H_    0.476690 0.628642 0.226728 0.169765
C129  C     C_3   0.525613 0.510722 0.218287 -0.467484
H82   H     H_    0.607732 0.566738 0.211284 0.197358
H83   H     H_    0.475835 0.469718 0.189050 0.132344
H84   H     H_    0.528806 0.452150 0.235235 0.153563
O34   O     O_3   0.870108 0.406628 0.903495 -0.553634
C130  C     C_3   0.892788 0.324481 0.906901 0.019455
H85   H     H_    0.981212 0.358169 0.908271 0.144656
H86   H     H_    0.859878 0.261008 0.879939 0.143999
C131  C     C_3   0.852716 0.278806 0.946230 -0.271712
H87   H     H_    0.889313 0.342216 0.972948 0.180560
H88   H     H_    0.764250 0.244447 0.945477 0.152488
C132  C     C_3   0.881433 0.193745 0.951266 -0.486815
H89   H     H_    0.843946 0.128563 0.925219 0.147734
H90   H     H_    0.851451 0.162321 0.979955 0.159253
H91   H     H_    0.969729 0.226374 0.952878 0.143925
O35   O     O_3   0.829239 0.341782 0.818989 -0.592486
C133  C     C_3   0.894648 0.447061 0.813039 0.019388
H92   H     H_    0.978264 0.461239 0.812281 0.146949
H93   H     H_    0.895544 0.506032 0.838158 0.152625
C134  C     C_3   0.860675 0.464365 0.772096 -0.281609
H94   H     H_    0.855213 0.402716 0.747416 0.176464
H95   H     H_    0.781299 0.460289 0.773799 0.168189
C135  C     C_3   0.939226 0.571064 0.761504 -0.481079
H96   H     H_    0.941825 0.633346 0.785054 0.161399
H97   H     H_    0.912809 0.580009 0.731438 0.168917
H98   H     H_    0.020271 0.579099 0.759670 0.149800
H99   H     H_    0.516367 0.322745 0.907097 0.146887
O36   O     O_3   0.059187 0.646814 0.640624 -0.570047
C136  C     C_3   0.104006 0.579932 0.633668 0.006578
H100  H     H_    0.190777 0.620841 0.644397 0.112657
H101  H     H_    0.093647 0.548356 0.600583 0.131289
C137  C     C_3   0.043729 0.488851 0.657373 -0.247837
H102  H     H_    0.053053 0.519956 0.690429 0.168324
H103  H     H_    0.956967 0.447584 0.647112 0.178665
C138  C     C_3   0.085282 0.410892 0.651407 -0.500333
H104  H     H_    0.075097 0.377043 0.618649 0.147973
H105  H     H_    0.039292 0.346333 0.669105 0.142376
H106  H     H_    0.171197 0.450119 0.662546 0.144058
H107  H     H_    0.260112 0.765660 0.704950 0.094279
H108  H     H_    0.261813 0.759055 0.778330 0.101538
H109  H     H_    0.030033 0.867873 0.788715 0.093245
O37   O     O_3   0.227479 0.019221 0.682393 -0.569983
C139  C     C_3   0.171820 0.072444 0.673257 0.010693
H110  H     H_    0.113863 0.062941 0.696756 0.152597
H111  H     H_    0.124779 0.042664 0.642858 0.124034
C140  C     C_3   0.251830 0.188750 0.675431 -0.259861
H112  H     H_    0.296534 0.219755 0.706056 0.173333
H113  H     H_    0.309984 0.198823 0.652004 0.156726
C141  C     C_3   0.195823 0.251203 0.667990 -0.492202
H114  H     H_    0.152777 0.223414 0.637088 0.149219
H115  H     H_    0.256413 0.335169 0.670041 0.142505
H116  H     H_    0.137893 0.243231 0.691339 0.147794
H117  H     H_    0.134860 0.652828 0.824451 0.097276
O38   O     O_3   0.701077 0.200117 0.204647 -0.571169
C142  C     C_3   0.598273 0.111886 0.203415 -0.006406
H118  H     H_    0.534423 0.134791 0.206432 0.129616
H119  H     H_    0.595560 0.067099 0.228242 0.127726
C143  C     C_3   0.575907 0.041150 0.162423 -0.248419
H120  H     H_    0.579113 0.085165 0.137275 0.176962
H121  H     H_    0.638460 0.017251 0.158772 0.171325
C144  C     C_3   0.466066 0.943618 0.159309 -0.480815
H122  H     H_    0.460849 0.898295 0.184202 0.149994
H123  H     H_    0.452809 0.893067 0.129510 0.151152
H124  H     H_    0.402398 0.966244 0.161392 0.161144
O39   O     O_3   0.817554 0.948149 0.679578 -0.571791
C145  C     C_3   0.803531 0.032067 0.698291 0.002691
H125  H     H_    0.717754 0.006576 0.703468 0.125380
H126  H     H_    0.833579 0.095083 0.678958 0.123478
C146  C     C_3   0.868330 0.075600 0.739724 -0.272596
H127  H     H_    0.837444 0.013483 0.759452 0.165543
H128  H     H_    0.953751 0.099277 0.735443 0.162958
C147  C     C_3   0.861142 0.170041 0.760966 -0.459088
H129  H     H_    0.897567 0.235413 0.742900 0.147304
H130  H     H_    0.905284 0.196729 0.791621 0.168782
H131  H     H_    0.776270 0.149071 0.764776 0.171654
O40   O     O_3   0.520453 0.720348 0.786409 -0.586833
C148  C     C_3   0.530438 0.821504 0.794969 0.005526
H132  H     H_    0.457188 0.812840 0.809425 0.153013
H133  H     H_    0.533114 0.856421 0.766961 0.114669
C149  C     C_3   0.628055 0.896074 0.824979 -0.265080
H134  H     H_    0.623640 0.860554 0.852922 0.187293
H135  H     H_    0.702836 0.909045 0.810718 0.153978
C150  C     C_3   0.632898 0.001856 0.836936 -0.478186
H136  H     H_    0.637030 0.038638 0.809407 0.154003
H137  H     H_    0.705397 0.054727 0.857876 0.142778
H138  H     H_    0.561040 0.992050 0.852785 0.154745
H139  H     H_    0.532683 0.571053 0.821134 0.141507
H140  H     H_    0.812540 0.735687 0.686344 0.140273
O41   O     O_3   0.499342 0.684424 0.555100 -0.554349
C151  C     C_3   0.397652 0.614968 0.567354 0.018693
H141  H     H_    0.336305 0.623036 0.549858 0.155980
H142  H     H_    0.386265 0.632330 0.600217 0.100939
C152  C     C_3   0.376630 0.502354 0.556268 -0.262147
H143  H     H_    0.373871 0.483035 0.522550 0.164623
H144  H     H_    0.442827 0.494537 0.570049 0.169863
C153  C     C_3   0.271220 0.424596 0.571202 -0.499706
H145  H     H_    0.275432 0.439047 0.605058 0.142781
H146  H     H_    0.256400 0.343619 0.561244 0.146589
H147  H     H_    0.203675 0.431983 0.558441 0.139866
H148  H     H_    0.574398 0.362823 0.180267 0.105023
H149  H     H_    0.747920 0.511473 0.317303 0.116672
O42   O     O_3   0.783402 0.559553 0.242348 -0.582936
C154  C     C_3   0.884285 0.638815 0.261525 0.011867
H150  H     H_    0.941878 0.665825 0.237691 0.143715
H151  H     H_    0.921123 0.613019 0.284074 0.099308
C155  C     C_3   0.873998 0.731322 0.283353 -0.262006
H152  H     H_    0.807277 0.702799 0.303669 0.144408
H153  H     H_    0.948950 0.785823 0.302792 0.125161
C156  C     C_3   0.854787 0.791264 0.253170 -0.379785
H154  H     H_    0.922404 0.822596 0.233389 0.166234
H155  H     H_    0.848833 0.858041 0.270248 0.153753
H156  H     H_    0.779261 0.739504 0.233693 0.186496

loop_
_geom_bond_atom_site_label_1
_geom_bond_atom_site_label_2
_ccdc_geom_bond_type
C21   C26   S    
C156  H154  S    
C86   O37   S    
C117  H51   S    
C122  H65   S    
C55   C56   T    
O41   C151  S    
C122  C123  S    
C142  H119  S    
Cr4   O13   S    
C86   C88   A    
C106  C107  A    
C135  H96   S    
C103  H140  S    
C34   C35   A    
C130  H86   S    
C110  C111  S    
C66   C72   A    
C139  H110  S    
O40   C148  S    
C4    C102  S    
C51   C57   A    
C87   H1    S    
C115  C116  S    
Cr2   O26   S    
C61   C71   S    
C109  H33   S    
C5    C43   S    
C59   C60   A    
C10   O17   A    
C74   H17   S    
C50   H7    S    
C125  H73   S    
Cr3   O4    S    
Cr6   O11   S    
C104  C105  A    
C43   O25   A    
C106  H28   S    
Cr4   O19   S    
C51   C52   A    
C147  H131  S    
C62   H12   S    
C118  H53   S    
C145  H125  S    
C77   C78   A    
C21   O21   A    
C125  C126  S    
C64   C66   A    
C146  C147  S    
O28   C112  S    
C37   C38   A    
C107  O41   S    
C8    C57   S    
C142  H118  S    
C66   O34   S    
C139  C140  S    
C64   O35   S    
C143  H120  S    
Cr4   O6    S    
C14   O38   S    
C149  H135  S    
C134  H95   S    
C33   O29   S    
C156  H156  S    
C32   O23   A    
Cr3   O22   S    
C108  H30   S    
C5    C107  A    
C16   C25   S    
O30   C118  S    
C2    C19   S    
C50   C57   A    
C14   C19   A    
Cr2   O5    S    
C36   H61   S    
C130  C131  S    
Cr3   O3    S    
C52   H10   S    
C140  H112  S    
C49   C53   A    
C124  C125  S    
C65   O4    A    
O42   C154  S    
C6    O8    A    
Cr5   O16   S    
C115  H46   S    
C120  H57   S    
C104  H27   S    
C116  H49   S    
C34   H4    S    
C114  H43   S    
C154  H150  S    
Cr1   O12   S    
C80   C85   A    
O39   C145  S    
C75   H20   S    
C27   C33   A    
C129  H82   S    
C49   O31   S    
C36   C37   A    
C139  H111  S    
C18   C19   A    
O34   C130  S    
C18   O42   S    
C12   O28   S    
C112  H39   S    
C67   C72   A    
C148  H133  S    
O35   C133  S    
C23   C24   A    
C13   C76   A    
C13   H62   S    
C37   H60   S    
C110  H35   S    
C77   C85   S    
C136  H100  S    
C138  H106  S    
C141  H115  S    
C99   H25   S    
O32   C124  S    
C121  H63   S    
Cr1   O24   S    
C119  H55   S    
C152  H144  S    
C80   H108  S    
C137  H102  S    
C39   C40   T    
C43   O26   A    
C68   C69   A    
C9    O15   A    
C4    C106  A    
C147  H130  S    
C29   C30   A    
C133  H93   S    
Cr6   O19   S    
C83   C84   A    
C120  H59   S    
C127  C128  S    
C11   O18   A    
C17   C18   A    
C73   C79   A    
C42   C48   A    
C64   C69   A    
C75   C77   A    
C76   C87   A    
C151  H142  S    
C3    C4    A    
C52   C53   A    
C54   O3    A    
C128  H80   S    
C129  H84   S    
C149  H134  S    
C90   O36   S    
C122  H66   S    
C7    C76   S    
C98   H148  S    
C3    C108  A    
C151  C152  S    
C155  H153  S    
C112  C113  S    
C131  C132  S    
C87   C98   A    
C126  H75   S    
Cr1   O5    S    
C11   C93   S    
C7    O9    A    
C100  C101  A    
C117  H52   S    
C102  C103  A    
C35   C41   A    
C150  H138  S    
C35   H3    S    
C12   C13   A    
C155  H152  S    
C126  H76   S    
C46   C56   S    
C138  H104  S    
C14   C15   A    
C45   O33   S    
C121  C122  S    
C115  H47   S    
C128  C129  S    
C10   C72   S    
C135  H98   S    
C96   C105  S    
C101  C102  A    
C65   C92   S    
C73   C74   A    
C137  C138  S    
Cr5   O9    S    
C48   H9    S    
C45   C46   A    
O27   C109  S    
C42   C44   A    
C3    O39   S    
C28   C29   A    
C86   C91   A    
C132  H91   S    
C30   C31   A    
Cr2   O20   S    
C118  H54   S    
Cr6   O17   S    
C32   O1    A    
C20   C25   A    
C145  H126  S    
C127  H78   S    
C119  C120  S    
O37   C139  S    
C117  H50   S    
C23   C26   A    
C146  H128  S    
C113  C114  S    
C114  H45   S    
C23   H2    S    
C68   H15   S    
Cr1   O1    S    
C16   C17   A    
C143  H121  S    
Cr4   O7    S    
C70   C71   T    
C81   H107  S    
C93   C99   A    
C111  H38   S    
C6    O7    A    
C145  C146  S    
O29   C115  S    
C156  H155  S    
C28   O30   S    
C36   C41   A    
C51   H77   S    
C149  C150  S    
C142  C143  S    
C29   H6    S    
C154  C155  S    
C143  C144  S    
C67   C68   A    
C84   C85   A    
C88   H22   S    
C140  C141  S    
Cr5   O8    S    
O31   C121  S    
C132  H89   S    
C58   C59   A    
C144  H122  S    
C65   O24   A    
C60   C61   A    
C150  H136  S    
C62   C63   A    
C153  H147  S    
O33   C127  S    
C124  H71   S    
C31   H5    S    
C120  H58   S    
C10   O16   A    
C89   H23   S    
C100  O40   S    
C94   H24   S    
C125  H72   S    
C123  H69   S    
Cr3   O5    S    
Cr6   O10   S    
C44   C45   A    
C46   C47   A    
C114  H44   S    
C27   C32   S    
C154  H151  S    
C21   O22   A    
C113  H41   S    
C90   C91   A    
C38   C39   S    
C112  H40   S    
C67   H99   S    
C148  H132  S    
C69   C70   S    
C82   C91   S    
C111  H36   S    
C1    C42   S    
C7    O10   A    
C134  H94   S    
C82   C83   A    
C22   C26   A    
C103  C104  A    
C20   H31   S    
Cr3   O23   S    
C89   C90   A    
C11   O13   A    
C5    C108  A    
C78   H117  S    
C93   C94   A    
Cr4   O14   S    
C138  H105  S    
C141  H114  S    
C95   C96   A    
C2    C12   A    
C121  H64   S    
C81   C82   A    
C109  H32   S    
C100  C105  A    
C130  H85   S    
C144  H124  S    
C137  H103  S    
C131  H87   S    
C95   H139  S    
C17   H149  S    
C9    O14   A    
C15   C16   A    
C49   C50   A    
C44   O32   S    
C97   H29   S    
C153  H145  S    
C119  H56   S    
C84   H109  S    
C88   C92   A    
C127  H79   S    
C6    C41   S    
C31   C33   A    
C116  H48   S    
C133  H92   S    
C83   H21   S    
C61   C62   A    
C9    C73   S    
C97   C99   A    
C101  H26   S    
C53   C55   S    
C128  H81   S    
C129  H83   S    
C74   C75   A    
C8    O6    A    
C24   C25   A    
C132  H90   S    
C60   H16   S    
C78   C79   A    
C47   H8    S    
C59   H14   S    
C131  H88   S    
C148  C149  S    
C47   C48   A    
C134  C135  S    
C1    O20   A    
C96   C97   A    
C116  C117  S    
C30   C40   S    
C94   C95   A    
O36   C136  S    
C89   C92   A    
C150  H137  S    
C110  H34   S    
C153  H146  S    
C123  H67   S    
C123  H68   S    
C136  H101  S    
C24   H11   S    
C141  H116  S    
C136  C137  S    
Cr2   O2    S    
C124  H70   S    
Cr1   O25   S    
C54   C58   S    
C152  C153  S    
C58   C63   A    
C135  H97   S    
O38   C142  S    
C34   C38   A    
C20   C22   A    
C80   C81   A    
C15   H19   S    
C155  C156  S    
C147  H129  S    
C1    O12   A    
Cr5   O19   S    
C140  H113  S    
Cr2   O21   S    
C118  C119  S    
Cr6   O18   S    
C144  H123  S    
C79   H18   S    
C109  C110  S    
Cr5   O15   S    
C146  H127  S    
C8    O11   A    
C133  C134  S    
C22   O27   S    
C113  H42   S    
C2    C98   A    
C151  H141  S    
C27   C28   A    
C152  H143  S    
C126  H74   S    
C63   H13   S    
C54   O2    A    
C111  H37   S    
