data_mof_unit_pretest_859.cif
_audit_creation_date              2012-12-10T20:36:34-0500
_audit_creation_method            fapswitch 2.2
_symmetry_space_group_name_H-M    P1
_symmetry_Int_Tables_number       1
_space_group_crystal_system       triclinic
_cell_length_a                    10.49766
_cell_length_b                    10.677375
_cell_length_c                    9.879012
_cell_angle_alpha                 89.816051
_cell_angle_beta                  90.577919
_cell_angle_gamma                 90.010014
_cell_volume                      1107.25124188

loop_
_atom_site_label
_atom_site_type_symbol
_atom_type_description
_atom_site_fract_x
_atom_site_fract_y
_atom_site_fract_z
_atom_type_partial_charge
C1    C     C_R   0.504123 0.259952 0.500217 0.874944
C2    C     C_R   0.526070 0.935464 0.622784 0.133827
C3    C     C_3   0.436496 0.927410 0.739127 -0.473445
C4    C     C_R   0.257317 0.500397 0.499322 0.862368
C5    C     C_3   0.436564 0.069302 0.739645 -0.500721
C6    C     C_R   0.389234 0.483601 0.070046 0.219268
C7    C     C_R   0.607477 0.527161 0.072869 -0.145608
C8    C     C_R   0.607508 0.527040 0.929115 -0.144112
C9    C     C_R   0.389088 0.484338 0.927640 0.226594
C10   C     C_3   0.302596 0.373912 0.920721 -0.520071
C11   C     C_3   0.303944 0.372025 0.074445 -0.511702
C12   C     C_3   0.956539 0.605755 0.441065 -0.183811
C13   C     C_R   0.504273 0.739976 0.499849 0.874065
C14   C     C_R   0.742679 0.499923 0.500760 0.857978
C15   C     C_3   0.043408 0.395051 0.559624 -0.184065
C16   C     C_3   0.956923 0.399778 0.432358 -0.176652
C17   C     C_3   0.877717 0.500029 0.502251 0.036812
C18   C     C_3   0.961497 0.495304 0.629697 -0.144239
C19   C     C_3   0.043091 0.601012 0.568257 -0.177768
C20   C     C_3   0.038396 0.505558 0.370959 -0.144078
C21   C     C_3   0.122256 0.500736 0.498263 0.034320
C22   C     C_R   0.526099 0.063232 0.623133 0.140232
C23   C     C_R   0.525113 0.128535 0.500951 -0.105903
C24   C     C_R   0.549196 0.065168 0.379609 -0.234666
C25   C     C_R   0.549323 0.935607 0.379350 -0.233576
C26   C     C_R   0.525312 0.871279 0.500415 -0.106308
H1    H     H_    0.917029 0.317927 0.377343 0.132206
H2    H     H_    0.083778 0.309484 0.607699 0.126378
H3    H     H_    0.926153 0.491066 0.735170 0.131699
H4    H     H_    0.083099 0.682837 0.623230 0.127919
H5    H     H_    0.072999 0.510906 0.265406 0.131151
H6    H     H_    0.558780 0.114521 0.284260 0.171346
H7    H     H_    0.558991 0.887004 0.283911 0.171994
H8    H     H_    0.342691 0.886286 0.710479 0.198520
H9    H     H_    0.348823 0.290984 0.875211 0.212490
H10   H     H_    0.916237 0.691396 0.393106 0.129333
H11   H     H_    0.482364 0.885748 0.830661 0.205226
H12   H     H_    0.342712 0.110692 0.711432 0.196830
H13   H     H_    0.482776 0.109327 0.831535 0.203584
H14   H     H_    0.694842 0.547397 0.127368 0.153416
H15   H     H_    0.694860 0.547048 0.876199 0.147551
H16   H     H_    0.207996 0.398385 0.876461 0.201401
H17   H     H_    0.209716 0.394011 0.118436 0.194521
H18   H     H_    0.351929 0.288155 0.118361 0.215229
N1    N     N_R   0.499140 0.499140 0.142800 -0.106998
N2    N     N_R   0.499140 0.499180 0.857150 -0.106318
O1    O     O_R   0.500020 0.316790 0.614690 -0.614325
O2    O     O_R   0.500000 0.316760 0.385350 -0.622333
O3    O     O_R   0.313960 0.499990 0.614650 -0.622405
O4    O     O_R   0.313940 0.499950 0.385310 -0.622304
O5    O     O_R   0.500000 0.683240 0.614650 -0.616290
O6    O     O_R   0.499980 0.683210 0.385310 -0.621819
O7    O     O_R   0.686060 0.500050 0.614690 -0.633164
O8    O     O_R   0.686040 0.500010 0.385350 -0.630773
Zn1   Zn    Zn3+2 0.500010 0.500020 0.653130 0.936539
Zn2   Zn    Zn3+2 0.499990 0.499980 0.346870 0.935715

loop_
_geom_bond_atom_site_label_1
_geom_bond_atom_site_label_2
_ccdc_geom_bond_type
N2    Zn1   S    
C12   C17   S    
C15   C18   S    
C7    H14   S    
C24   H6    S    
C1    O2    A    
C2    C22   A    
C10   H9    S    
C6    N1    A    
C12   H10   S    
C13   O6    A    
C9    C10   S    
C16   C20   S    
C4    O3    A    
C23   C24   A    
C12   C20   S    
C6    C9    A    
O7    Zn1   S    
C2    C3    S    
C24   C25   A    
C11   H18   S    
C2    C26   A    
C18   H3    S    
O3    Zn1   S    
C5    H12   S    
C8    H15   S    
C11   H17   S    
C4    C21   S    
C14   C17   S    
C9    N2    A    
C15   H2    S    
C16   C17   S    
C15   C21   S    
C16   H1    S    
C7    N1    A    
C12   C19   S    
C14   O8    A    
C17   C18   S    
C1    C23   S    
O5    Zn1   S    
C5    H13   S    
C8    N2    A    
C13   C26   S    
C10   H16   S    
C10   C11   S    
C15   C16   S    
C7    C8    A    
C14   O7    A    
C20   C21   S    
C3    H11   S    
O1    Zn1   S    
C18   C19   S    
C4    O4    A    
C6    C11   S    
O2    Zn2   S    
C22   C23   A    
C1    O1    A    
C3    H8    S    
C19   C21   S    
C25   C26   A    
C13   O5    A    
C19   H4    S    
O4    Zn2   S    
C5    C22   S    
O6    Zn2   S    
N1    Zn2   S    
C25   H7    S    
O8    Zn2   S    
C3    C5    S    
C20   H5    S    
