data_mof_unit_pretest_353.cif
_audit_creation_date              2012-10-26T19:42:40-0400
_audit_creation_method            fapswitch 2.2
_symmetry_space_group_name_H-M    P1
_symmetry_Int_Tables_number       1
_space_group_crystal_system       triclinic
_cell_length_a                    19.356191
_cell_length_b                    10.779569
_cell_length_c                    9.603613
_cell_angle_alpha                 90.033324
_cell_angle_beta                  90.030407
_cell_angle_gamma                 92.544594
_cell_volume                      2001.83079923

loop_
_atom_site_label
_atom_site_type_symbol
_atom_type_description
_atom_site_fract_x
_atom_site_fract_y
_atom_site_fract_z
_atom_type_partial_charge
C1    C     C_R   0.497573 0.262584 0.500002 0.543175
C2    C     C_R   0.853930 0.508146 0.500203 0.034042
C3    C     C_R   0.387777 0.120463 0.647083 -0.109069
C4    C     C_R   0.367557 0.499980 0.500027 0.531035
C5    C     C_R   0.336677 0.051456 0.718872 -0.121210
C6    C     C_R   0.336777 0.922448 0.719043 -0.116258
C7    C     C_R   0.387997 0.861623 0.647481 -0.098545
C8    C     C_R   0.441121 0.929660 0.575900 0.029366
C9    C     C_R   0.441006 0.060905 0.575735 0.025575
C10   C     C_R   0.492837 0.128394 0.499840 0.001911
C11   C     C_R   0.541394 0.067331 0.420894 -0.146135
C12   C     C_R   0.291609 0.501529 0.500102 0.010043
C13   C     C_R   0.541511 0.939361 0.421019 -0.152225
C14   C     C_R   0.493060 0.870499 0.500077 0.006255
C15   C     C_R   0.592084 0.664783 0.144100 -0.090723
C16   C     C_R   0.497887 0.737096 0.500048 0.526727
C17   C     C_R   0.637152 0.745182 0.072038 -0.173763
C18   C     C_R   0.637139 0.745231 0.928564 -0.168157
C19   C     C_R   0.592039 0.664913 0.856252 -0.086938
C20   C     C_R   0.545223 0.581053 0.925305 0.157340
C21   C     C_R   0.545233 0.580985 0.074851 0.159089
C22   C     C_R   0.456899 0.423019 0.073772 -0.003227
C23   C     C_R   0.930116 0.508834 0.500242 0.345322
C24   C     C_R   0.456919 0.423037 0.925914 -0.002854
C25   C     C_R   0.632458 0.500976 0.500002 0.534217
C26   C     C_R   0.255154 0.505199 0.626277 -0.144863
C27   C     C_R   0.183231 0.507343 0.626357 -0.121261
C28   C     C_R   0.146384 0.505846 0.500252 0.035306
C29   C     C_R   0.182941 0.502234 0.374085 -0.118534
C30   C     C_R   0.254859 0.500094 0.374020 -0.130746
C31   C     C_R   0.070262 0.507530 0.500274 0.345217
C32   C     C_R   0.817203 0.508035 0.626345 -0.119038
C33   C     C_R   0.745174 0.505803 0.626286 -0.136343
C34   C     C_R   0.708494 0.503574 0.500083 0.009990
C35   C     C_R   0.745136 0.504500 0.373940 -0.138538
C36   C     C_R   0.817160 0.506695 0.374000 -0.119404
Cu1   Cu    Cu3+1 0.500000 0.499990 0.640660 0.913032
Cu2   Cu    Cu3+1 0.500000 0.500010 0.359340 0.925063
H1    H     H_    0.282119 0.506589 0.725155 0.124566
H2    H     H_    0.672342 0.808098 0.872523 0.126381
H3    H     H_    0.596324 0.672908 0.746514 0.183325
H4    H     H_    0.156610 0.510155 0.725365 0.136936
H5    H     H_    0.421586 0.359907 0.870673 0.109914
H6    H     H_    0.156093 0.500946 0.275119 0.137045
H7    H     H_    0.281583 0.497301 0.275087 0.128862
H8    H     H_    0.843993 0.509332 0.725374 0.139003
H9    H     H_    0.718313 0.505698 0.725204 0.133911
H10   H     H_    0.718248 0.503357 0.274973 0.133547
H11   H     H_    0.843913 0.506977 0.275007 0.139109
H12   H     H_    0.384082 0.220206 0.645998 0.126985
H13   H     H_    0.580471 0.119267 0.361376 0.131950
H14   H     H_    0.296269 0.098285 0.772997 0.115214
H15   H     H_    0.296441 0.869145 0.773284 0.119157
H16   H     H_    0.384469 0.761329 0.646878 0.144532
H17   H     H_    0.580683 0.893798 0.361596 0.111902
H18   H     H_    0.421553 0.359882 0.128818 0.116793
H19   H     H_    0.596415 0.672705 0.253820 0.177786
H20   H     H_    0.672343 0.808037 0.128288 0.120840
N1    N     N_R   0.034467 0.506459 0.378692 -0.229246
N2    N     N_R   0.965780 0.507092 0.378676 -0.229184
N3    N     N_R   0.965914 0.510133 0.621832 -0.229253
N4    N     N_R   0.034608 0.509517 0.621848 -0.229779
N5    N     N_R   0.500660 0.501210 0.147910 -0.242675
N6    N     N_R   0.500680 0.501290 0.852040 -0.242841
O1    O     O_R   0.499990 0.319640 0.618810 -0.497485
O2    O     O_R   0.500000 0.319660 0.381240 -0.495809
O3    O     O_R   0.400140 0.499970 0.618820 -0.519194
O4    O     O_R   0.400150 0.500000 0.381250 -0.499691
O5    O     O_R   0.500000 0.680340 0.618760 -0.525638
O6    O     O_R   0.500010 0.680360 0.381190 -0.512654
O7    O     O_R   0.599850 0.500000 0.618750 -0.517573
O8    O     O_R   0.599860 0.500030 0.381180 -0.521612

loop_
_geom_bond_atom_site_label_1
_geom_bond_atom_site_label_2
_ccdc_geom_bond_type
C20   N6    A    
C4    O3    A    
C1    O1    A    
Cu2   O6    S    
C5    H14   S    
C29   C30   A    
C3    C9    A    
Cu1   O5    S    
C4    C12   S    
C11   C13   A    
C9    C10   A    
C25   C34   S    
C30   H7    S    
C19   C20   A    
C31   N4    A    
C15   C21   A    
C17   H20   S    
C3    C5    A    
C32   C33   A    
N3    N4    A    
C17   C18   A    
Cu2   O8    S    
N1    N2    A    
C24   N6    A    
C25   O8    A    
C13   C14   A    
C15   H19   S    
C27   H4    S    
C26   C27   A    
C6    C7    A    
C32   H8    S    
C24   H5    S    
C34   C35   A    
C25   O7    A    
C5    C6    A    
Cu1   O3    S    
C28   C29   A    
C33   C34   A    
Cu1   Cu2   S    
Cu2   O4    S    
C1    O2    A    
C22   C24   A    
C2    C23   S    
Cu1   O7    S    
C29   H6    S    
C12   C26   A    
C23   N2    A    
C33   H9    S    
C14   C16   S    
C26   H1    S    
C21   N5    A    
C11   H13   S    
C10   C11   A    
C16   O5    A    
C6    H15   S    
C31   N1    A    
Cu2   O2    S    
C23   N3    A    
Cu1   N6    S    
C16   O6    A    
C20   C21   A    
C2    C32   A    
Cu2   N5    S    
C1    C10   S    
C2    C36   A    
C27   C28   A    
C15   C17   A    
C7    C8    A    
C18   H2    S    
C18   C19   A    
C22   H18   S    
C8    C14   A    
C7    H16   S    
C12   C30   A    
C22   N5    A    
C4    O4    A    
C3    H12   S    
C28   C31   S    
C36   H11   S    
C19   H3    S    
C35   H10   S    
C8    C9    A    
C13   H17   S    
C35   C36   A    
Cu1   O1    S    
