data_mof_unit_pretest_982.cif
_audit_creation_date              2012-12-10T16:48:50-0500
_audit_creation_method            fapswitch 2.2
_symmetry_space_group_name_H-M    P1
_symmetry_Int_Tables_number       1
_space_group_crystal_system       triclinic
_cell_length_a                    17.266457
_cell_length_b                    8.731233
_cell_length_c                    7.508005
_cell_angle_alpha                 102.885039
_cell_angle_beta                  91.370631
_cell_angle_gamma                 94.73319
_cell_volume                      1098.57953851

loop_
_atom_site_label
_atom_site_type_symbol
_atom_type_description
_atom_site_fract_x
_atom_site_fract_y
_atom_site_fract_z
_atom_type_partial_charge
C1    C     C_R   0.496771 0.200356 0.454691 0.856460
C2    C     C_R   0.503234 0.799645 0.545304 0.856492
C3    C     C_2   0.485546 0.033566 0.434932 0.141536
C4    C     C_2   0.514470 0.966432 0.565039 0.141496
C5    C     C_R   0.351621 0.500930 0.523750 0.901683
C6    C     C_R   0.648372 0.499038 0.476241 0.901732
C7    C     C_R   0.268036 0.505586 0.533285 -0.279840
C8    C     C_R   0.731958 0.494309 0.466692 -0.279728
C9    C     C_R   0.219590 0.380776 0.424287 0.193355
C10   C     C_R   0.780414 0.619016 0.575740 0.193416
C11   C     C_R   0.140556 0.397447 0.399596 0.236517
C12   C     C_R   0.859442 0.602222 0.600564 0.236509
C13   C     C_R   0.109383 0.536137 0.492209 -0.165097
C14   C     C_R   0.890598 0.463547 0.507988 -0.165018
C15   C     C_R   0.157975 0.660276 0.602898 0.370851
C16   C     C_R   0.841996 0.339522 0.397228 0.371000
C17   C     C_R   0.237467 0.644895 0.623767 0.288887
C18   C     C_R   0.762508 0.354996 0.376280 0.288875
C19   C     C_2   0.025861 0.551777 0.475565 -0.022690
C20   C     C_2   0.974122 0.447878 0.524648 -0.022555
Cu1   Cu    Cu3+1 0.508700 0.517250 0.683000 1.187824
Cu2   Cu    Cu3+1 0.491300 0.482750 0.317000 1.187819
H1    H     H_    0.993136 0.345563 0.567667 0.216046
H2    H     H_    0.006828 0.654083 0.432545 0.216011
N1    N     N_2   0.478180 0.456750 0.041980 0.064046
N2    N     N_2   0.521820 0.543250 0.958020 0.064056
O1    O     O_R   0.505650 0.286040 0.618880 -0.567829
O2    O     O_R   0.494350 0.713960 0.381120 -0.567822
O3    O     O_R   0.490960 0.256910 0.309800 -0.516000
O4    O     O_R   0.509040 0.743090 0.690200 -0.515985
O5    O     O_R   0.394600 0.516230 0.672450 -0.549518
O6    O     O_R   0.605400 0.483770 0.327550 -0.549536
O7    O     O_R   0.379910 0.487100 0.363380 -0.555617
O8    O     O_R   0.620090 0.512900 0.636620 -0.555628
Br1   Br    Br    0.261839 0.186827 0.307793 -0.222324
Br2   Br    Br    0.738212 0.812907 0.692188 -0.222368
Cl1   Cl    Cl    0.700589 0.195396 0.246158 -0.399358
Cl2   Cl    Cl    0.299392 0.804581 0.753883 -0.399267
Cl3   Cl    Cl    0.120159 0.837619 0.712929 -0.368592
Cl4   Cl    Cl    0.879814 0.162302 0.287261 -0.368785
Br3   Br    Br    0.921953 0.762021 0.776928 -0.226664
Br4   Br    Br    0.078011 0.237347 0.223306 -0.226370
Cl5   Cl    Cl    0.422884 0.932037 0.246492 -0.410009
Cl6   Cl    Cl    0.577165 0.067954 0.753402 -0.410065
Br5   Br    Br    0.400736 0.303847 0.916845 -0.174014
Br6   Br    Br    0.599261 0.696153 0.083168 -0.173930

loop_
_geom_bond_atom_site_label_1
_geom_bond_atom_site_label_2
_ccdc_geom_bond_type
C7    C17   A    
C6    O6    A    
Cu1   N2    S    
C15   C17   A    
C12   Br3   S    
Cu2   O3    S    
N1    Br5   S    
C11   C13   A    
Cu1   O4    S    
C2    C4    S    
C19   C20   D    
C20   H1    S    
C2    O4    A    
C15   Cl3   S    
C7    C9    A    
C1    O3    A    
C19   H2    S    
Cu1   O1    S    
Cu2   O2    S    
Cu1   Cu2   S    
Cu1   O5    S    
C3    Cl5   S    
Cu2   O6    S    
C16   Cl4   S    
C10   C12   A    
C16   C18   A    
C18   Cl1   S    
C12   C14   A    
C5    C7    S    
C17   Cl2   S    
C9    C11   A    
C13   C15   A    
C14   C16   A    
C2    O2    A    
C13   C19   S    
C9    Br1   S    
C3    C4    D    
C14   C20   S    
C11   Br4   S    
C8    C10   A    
C1    C3    S    
C1    O1    A    
Cu2   O7    S    
N2    Br6   S    
C6    C8    S    
Cu1   O8    S    
C4    Cl6   S    
C5    O5    A    
N1    N2    D    
C8    C18   A    
C6    O8    A    
C10   Br2   S    
Cu2   N1    S    
C5    O7    A    
