data_mof_unit_pretest_1439.cif
_audit_creation_date              2012-10-26T20:17:41-0400
_audit_creation_method            fapswitch 2.2
_symmetry_space_group_name_H-M    P1
_symmetry_Int_Tables_number       1
_space_group_crystal_system       triclinic
_cell_length_a                    27.799435
_cell_length_b                    8.660044
_cell_length_c                    7.425501
_cell_angle_alpha                 103.189474
_cell_angle_beta                  93.910306
_cell_angle_gamma                 92.434668
_cell_volume                      1733.33624281

loop_
_atom_site_label
_atom_site_type_symbol
_atom_type_description
_atom_site_fract_x
_atom_site_fract_y
_atom_site_fract_z
_atom_type_partial_charge
C1    C     C_R   0.498534 0.199520 0.452986 0.554645
C2    C     C_R   0.868502 0.375974 0.390081 0.012028
C3    C     C_R   0.354676 0.496935 0.509153 0.006288
C4    C     C_R   0.645324 0.503067 0.490838 0.006282
C5    C     C_R   0.970396 0.365555 0.399832 0.026258
C6    C     C_R   0.029608 0.634529 0.599799 0.026264
C7    C     C_R   0.978406 0.638846 0.594321 -0.026237
C8    C     C_R   0.021598 0.361216 0.405357 -0.026236
C9    C     C_R   0.949093 0.505322 0.492589 0.022341
C10   C     C_R   0.050911 0.494748 0.507082 0.022335
C11   C     C_R   0.939449 0.232901 0.307820 -0.159209
C12   C     C_R   0.501466 0.800480 0.547014 0.554644
C13   C     C_R   0.060556 0.767221 0.691734 -0.159225
C14   C     C_R   0.889714 0.238629 0.302787 -0.130621
C15   C     C_R   0.110292 0.761475 0.696851 -0.130640
C16   C     C_R   0.407494 0.499357 0.502875 0.553039
C17   C     C_R   0.592506 0.500644 0.497124 0.553040
C18   C     C_R   0.044577 0.227888 0.309357 -0.147985
C19   C     C_R   0.955428 0.772137 0.690411 -0.148000
C20   C     C_2   0.497835 0.031441 0.426539 -0.148156
C21   C     C_2   0.502165 0.968559 0.573461 -0.148156
C22   C     C_R   0.175053 0.353738 0.430784 0.420192
C23   C     C_R   0.102108 0.489945 0.513321 -0.077307
C24   C     C_R   0.824950 0.646297 0.568976 0.420214
C25   C     C_R   0.181826 0.620144 0.612128 0.382841
C26   C     C_R   0.818179 0.379904 0.387681 0.382825
C27   C     C_R   0.274771 0.485171 0.351457 -0.057439
C28   C     C_R   0.716488 0.502903 0.318412 -0.048565
C29   C     C_R   0.324773 0.488929 0.346429 -0.136185
C30   C     C_R   0.666382 0.498757 0.323005 -0.141226
C31   C     C_R   0.333605 0.501056 0.676921 -0.141216
C32   C     C_R   0.675241 0.511253 0.653595 -0.136196
C33   C     C_R   0.283498 0.496903 0.681445 -0.048575
C34   C     C_R   0.897896 0.510115 0.486394 -0.077304
C35   C     C_R   0.725243 0.515026 0.648535 -0.057454
C36   C     C_R   0.253957 0.488838 0.518674 0.238493
C37   C     C_R   0.746045 0.511169 0.481219 0.238504
C38   C     C_3   0.097040 0.944778 0.262685 -0.004011
C39   C     C_3   0.134509 0.820376 0.229823 -0.321251
C40   C     C_3   0.902975 0.055254 0.737185 -0.004028
C41   C     C_3   0.865482 0.179584 0.769849 -0.321203
C42   C     C_R   0.124080 0.352427 0.421734 0.033215
C43   C     C_R   0.875924 0.647614 0.578012 0.033225
C44   C     C_R   0.094853 0.219032 0.322514 0.272363
C45   C     C_R   0.905151 0.780995 0.677264 0.272384
C46   C     C_R   0.131502 0.624095 0.609647 0.012031
Cu1   Cu    Cu3+1 0.505380 0.517380 0.684380 0.964153
Cu2   Cu    Cu3+1 0.494620 0.482620 0.315620 0.964148
H1    H     H_    0.355751 0.506883 0.804345 0.129169
H2    H     H_    0.252102 0.480066 0.225465 0.128586
H3    H     H_    0.867850 0.133023 0.231444 0.184923
H4    H     H_    0.132157 0.867098 0.768167 0.184921
H5    H     H_    0.952095 0.120188 0.240675 0.109812
H6    H     H_    0.047908 0.879986 0.758727 0.109802
H7    H     H_    0.024603 0.128925 0.217242 0.098801
H8    H     H_    0.975402 0.871055 0.782616 0.098833
H9    H     H_    0.493764 0.959210 0.285229 0.135821
H10   H     H_    0.506236 0.040790 0.714771 0.135820
H11   H     H_    0.087723 0.961810 0.409508 0.129311
H12   H     H_    0.660084 0.514431 0.784840 0.130680
H13   H     H_    0.064380 0.898136 0.167772 0.121059
H14   H     H_    0.166493 0.858582 0.330856 0.201968
H15   H     H_    0.118780 0.705219 0.247283 0.098711
H16   H     H_    0.146144 0.803571 0.086987 0.180641
H17   H     H_    0.935611 0.101938 0.832239 0.121059
H18   H     H_    0.912343 0.038249 0.590406 0.129256
H19   H     H_    0.853796 0.196365 0.912622 0.180652
H20   H     H_    0.881212 0.294763 0.752446 0.098702
H21   H     H_    0.833528 0.141323 0.668663 0.202003
H22   H     H_    0.462118 0.378179 0.948364 0.239068
H23   H     H_    0.537882 0.621821 0.051636 0.239069
H24   H     H_    0.267588 0.499800 0.811212 0.129500
H25   H     H_    0.747924 0.520320 0.774583 0.128621
H26   H     H_    0.644225 0.492781 0.195551 0.129198
H27   H     H_    0.339940 0.485899 0.215233 0.130696
H28   H     H_    0.732388 0.499881 0.188578 0.129522
N1    N     N_R   0.202449 0.486779 0.522783 -0.410528
N2    N     N_R   0.797553 0.513252 0.477042 -0.410488
N3    N     N_2   0.486510 0.456430 0.038510 -0.257966
N4    N     N_2   0.513490 0.543570 0.961490 -0.257967
O1    O     O_R   0.503500 0.286120 0.619780 -0.505102
O2    O     O_2   0.802645 0.776394 0.650659 -0.425517
O3    O     O_2   0.789971 0.250427 0.299158 -0.492213
O4    O     O_2   0.210036 0.749614 0.700709 -0.492151
O5    O     O_3   0.115985 0.086622 0.222924 -0.510139
O6    O     O_3   0.884021 0.913394 0.776886 -0.510161
O7    O     O_R   0.496500 0.713880 0.380220 -0.505102
O8    O     O_R   0.494410 0.256780 0.308360 -0.494383
O9    O     O_R   0.505590 0.743220 0.691640 -0.494384
O10   O     O_R   0.434810 0.514700 0.655690 -0.507432
O11   O     O_R   0.565190 0.485300 0.344310 -0.507447
O12   O     O_R   0.425720 0.485350 0.344280 -0.502553
O13   O     O_R   0.574280 0.514650 0.655720 -0.502547
O14   O     O_2   0.197358 0.223642 0.349043 -0.425457

loop_
_geom_bond_atom_site_label_1
_geom_bond_atom_site_label_2
_ccdc_geom_bond_type
C19   H8    S    
C16   O10   A    
C26   O3    S    
C27   C29   A    
C22   O14   S    
C17   O11   A    
C41   H19   S    
C39   H16   S    
C26   N2    A    
C23   C42   A    
C25   N1    A    
Cu2   N3    S    
C35   C37   A    
C5    C11   A    
C36   N1    S    
C38   C39   S    
C30   H26   S    
C11   C14   A    
C1    O1    A    
C33   C36   A    
C40   O6    S    
C3    C29   A    
C24   O2    S    
C33   H24   S    
C14   H3    S    
Cu2   O11   S    
C25   O4    S    
Cu2   O8    S    
C11   H5    S    
C27   H2    S    
C38   H13   S    
C2    C34   A    
C1    O8    A    
C23   C46   A    
C40   H18   S    
Cu1   O9    S    
C42   C44   A    
Cu1   N4    S    
C31   H1    S    
H23   N4    S    
C41   H20   S    
C38   O5    S    
C32   C35   A    
C12   O9    A    
C12   C21   S    
C8    C18   A    
N3    N4    D    
C5    C9    A    
C18   C44   A    
Cu1   Cu2   S    
C31   C33   A    
Cu1   O13   S    
Cu2   O7    S    
C2    C26   A    
C15   H4    S    
C3    C31   A    
C43   C45   A    
C4    C32   A    
C18   H7    S    
C4    C17   S    
C24   N2    A    
C40   C41   S    
C16   O12   A    
C7    C19   A    
C40   H17   S    
C13   C15   A    
C9    C34   A    
C10   C23   A    
Cu1   O10   S    
C17   O13   A    
C32   H12   S    
C44   O5    S    
C28   H28   S    
C41   H21   S    
C13   H6    S    
C7    C9    A    
C39   H14   S    
C35   H25   S    
C1    C20   S    
C12   O7    A    
H22   N3    S    
C34   C43   A    
C22   N1    A    
C6    C10   A    
C5    C8    A    
C19   C45   A    
C6    C7    A    
C29   H27   S    
C27   C36   A    
C39   H15   S    
C37   N2    S    
C28   C30   A    
C45   O6    S    
C21   H10   S    
C6    C13   A    
C22   C42   A    
C28   C37   A    
Cu1   O1    S    
C2    C14   A    
C38   H11   S    
C20   C21   D    
C8    C10   A    
Cu2   O12   S    
C24   C43   A    
C15   C46   A    
C20   H9    S    
C25   C46   A    
C4    C30   A    
C3    C16   S    
