data_mof_unit_pretest_721.cif
_audit_creation_date              2012-12-10T17:44:37-0500
_audit_creation_method            fapswitch 2.2
_symmetry_space_group_name_H-M    P1
_symmetry_Int_Tables_number       1
_space_group_crystal_system       triclinic
_cell_length_a                    9.908539
_cell_length_b                    10.671239
_cell_length_c                    15.435438
_cell_angle_alpha                 92.966597
_cell_angle_beta                  67.636784
_cell_angle_gamma                 91.568451
_cell_volume                      1507.26414241

loop_
_atom_site_label
_atom_site_type_symbol
_atom_type_description
_atom_site_fract_x
_atom_site_fract_y
_atom_site_fract_z
_atom_type_partial_charge
C1    C     C_R   0.509674 0.737872 0.487020 0.862429
C2    C     C_R   0.690090 0.630127 0.054273 0.152512
C3    C     C_R   0.568934 0.549290 0.095725 0.050838
C4    C     C_R   0.408155 0.501636 0.676283 0.871189
C5    C     C_R   0.787534 0.657740 0.099025 -0.211589
C6    C     C_R   0.761277 0.609957 0.186342 -0.199756
C7    C     C_R   0.563808 0.481962 0.172843 -0.061701
C8    C     C_R   0.356508 0.852644 0.379168 -0.147295
C9    C     C_R   0.262537 0.910505 0.346105 -0.121382
C10   C     C_R   0.250291 0.040090 0.353661 -0.125012
C11   C     C_R   0.333333 0.112173 0.393246 -0.155901
C12   C     C_R   0.392893 0.544553 0.922151 0.082570
C13   C     C_R   0.425611 0.055725 0.430750 0.100171
C14   C     C_R   0.435493 0.923698 0.424689 0.091638
C15   C     C_R   0.531279 0.867186 0.459531 -0.180444
C16   C     C_R   0.503350 0.259389 0.491211 0.894005
C17   C     C_R   0.644161 0.939301 0.471940 -0.020281
C18   C     C_R   0.630531 0.066806 0.481861 -0.252657
C19   C     C_R   0.514773 0.125329 0.470000 -0.148826
C20   C     C_R   0.793205 0.667364 0.623046 -0.147641
C21   C     C_R   0.831318 0.749969 0.682870 -0.208120
C22   C     C_R   0.968933 0.745347 0.685839 -0.178558
C23   C     C_R   0.253034 0.493026 0.973902 0.111262
C24   C     C_R   0.070954 0.660736 0.626759 -0.147220
C25   C     C_R   0.037924 0.579096 0.562726 0.163332
C26   C     C_R   0.893878 0.580573 0.561841 0.188979
C27   C     C_R   0.962241 0.425512 0.439006 -0.118079
C28   C     C_R   0.591533 0.500743 0.323971 0.854421
C29   C     C_R   0.105658 0.426763 0.438286 -0.122174
C30   C     C_R   0.348152 0.507262 0.778738 -0.063243
C31   C     C_R   0.647411 0.523454 0.224118 -0.084325
C32   C     C_R   0.157912 0.460649 0.927508 -0.189996
C33   C     C_R   0.205298 0.468120 0.830504 -0.199926
C34   C     C_R   0.489279 0.579581 0.967368 0.066595
C35   C     C_R   0.438495 0.548903 0.824810 -0.257739
C36   C     C_1   0.074721 0.418867 0.126513 0.143440
C37   C     C_1   0.779111 0.888421 0.470085 0.199581
C38   C     C_1   0.491085 0.360804 0.191845 0.149535
C39   C     C_R   0.458807 0.538210 0.058071 0.049725
C40   C     C_R   0.316696 0.494379 0.110592 -0.257500
C41   C     C_R   0.214193 0.472375 0.069760 -0.025622
C42   C     C_R   0.614156 0.655567 0.925315 -0.214819
C43   C     C_R   0.710775 0.683359 0.969561 -0.215494
H1    H     H_    0.371769 0.752929 0.363902 0.168851
H2    H     H_    0.174999 0.663123 0.632173 0.202756
H3    H     H_    0.187428 0.368791 0.386541 0.139759
H4    H     H_    0.827028 0.642887 0.225317 0.166560
H5    H     H_    0.802756 0.745374 0.936801 0.145154
H6    H     H_    0.048801 0.425142 0.965162 0.158592
H7    H     H_    0.548579 0.576689 0.782801 0.153880
H8    H     H_    0.282558 0.480093 0.184844 0.161243
H9    H     H_    0.634099 0.700731 0.860828 0.145423
H10   H     H_    0.878366 0.721934 0.069290 0.147038
H11   H     H_    0.132699 0.437952 0.795693 0.162931
H12   H     H_    0.202695 0.854874 0.311766 0.145681
H13   H     H_    0.180667 0.085434 0.325262 0.142695
H14   H     H_    0.329678 0.211506 0.388205 0.168185
H15   H     H_    0.711587 0.120204 0.500035 0.179762
H16   H     H_    0.936195 0.364747 0.389114 0.153961
H17   H     H_    0.685835 0.677731 0.624440 0.196330
H18   H     H_    0.753504 0.818438 0.726951 0.143404
H19   H     H_    0.997486 0.808697 0.733404 0.146253
N1    N     N_R   0.856800 0.501200 0.500850 -0.119303
N2    N     N_R   0.142390 0.501280 0.500880 -0.121538
N3    N     N_1   0.963763 0.375085 0.172059 -0.209463
N4    N     N_1   0.888852 0.849647 0.466962 -0.206221
N5    N     N_1   0.433832 0.263794 0.205759 -0.228811
O1    O     O_R   0.385310 0.683220 0.500000 -0.638906
O2    O     O_R   0.614640 0.683250 0.500010 -0.629408
O3    O     O_R   0.319840 0.499980 0.632240 -0.628485
O4    O     O_R   0.549160 0.500000 0.632250 -0.625091
O5    O     O_R   0.385360 0.316750 0.499990 -0.621533
O6    O     O_R   0.614690 0.316780 0.500000 -0.610700
O7    O     O_R   0.450840 0.500000 0.367750 -0.627409
O8    O     O_R   0.680160 0.500020 0.367760 -0.605170
Zn1   Zn    Zn3+2 0.346880 0.499980 0.499990 0.923568
Zn2   Zn    Zn3+2 0.653120 0.500020 0.500010 0.943084

loop_
_geom_bond_atom_site_label_1
_geom_bond_atom_site_label_2
_ccdc_geom_bond_type
C27   C29   A    
O2    Zn2   S    
C34   C42   A    
O5    Zn1   S    
C28   O7    A    
C11   H14   S    
C4    O3    A    
C12   C23   A    
O7    Zn1   S    
C30   C35   A    
C24   H2    S    
C5    H10   S    
C3    C7    A    
N1    Zn2   S    
C5    C6    A    
C1    O1    A    
C18   C19   A    
C18   H15   S    
C8    C9    A    
C16   O5    A    
C1    C15   S    
C20   H17   S    
C10   H13   S    
C43   H5    S    
C21   H18   S    
C6    C31   A    
C29   N2    A    
C3    C39   A    
C21   C22   A    
C36   C41   S    
C7    C31   A    
C6    H4    S    
C13   C19   A    
C16   O6    A    
C24   C25   A    
C39   C40   A    
C36   N3    T    
C25   C26   A    
C1    O2    A    
C34   C39   A    
C25   N2    A    
C26   N1    A    
C22   H19   S    
C2    C43   A    
C37   N4    T    
C35   H7    S    
C17   C18   A    
N2    Zn1   S    
C17   C37   S    
C38   N5    T    
C12   C35   A    
O8    Zn2   S    
C27   N1    A    
C9    H12   S    
C40   C41   A    
O3    Zn1   S    
C22   C24   A    
C2    C5    A    
C42   C43   A    
C12   C34   A    
O4    Zn2   S    
C9    C10   A    
C33   H11   S    
C15   C17   A    
C8    C14   A    
C30   C33   A    
C28   C31   S    
C8    H1    S    
O1    Zn1   S    
C40   H8    S    
C23   C41   A    
C29   H3    S    
C23   C32   A    
C2    C3    A    
C27   H16   S    
C32   C33   A    
C11   C13   A    
C20   C26   A    
C16   C19   S    
C7    C38   S    
C32   H6    S    
C10   C11   A    
C20   C21   A    
O6    Zn2   S    
C14   C15   A    
C13   C14   A    
C28   O8    A    
C4    O4    A    
C4    C30   S    
C42   H9    S    
