data_mof_unit_pretest_172.cif
_audit_creation_date              2012-12-11T16:24:04-0500
_audit_creation_method            fapswitch 2.2
_symmetry_space_group_name_H-M    P1
_symmetry_Int_Tables_number       1
_space_group_crystal_system       triclinic
_cell_length_a                    14.744924
_cell_length_b                    14.756
_cell_length_c                    33.315815
_cell_angle_alpha                 96.245371
_cell_angle_beta                  96.491497
_cell_angle_gamma                 61.131942
_cell_volume                      6295.00467991

loop_
_atom_site_label
_atom_site_type_symbol
_atom_type_description
_atom_site_fract_x
_atom_site_fract_y
_atom_site_fract_z
_atom_type_partial_charge
C1    C     C_R   0.390234 0.700574 0.446296 0.534258
C2    C     C_R   0.334937 0.348288 0.308212 0.080266
C3    C     C_R   0.415920 0.264213 0.327995 0.257848
C4    C     C_R   0.433104 0.273705 0.370229 -0.121740
C5    C     C_R   0.402036 0.250580 0.164804 0.254361
C6    C     C_R   0.387869 0.233147 0.123145 -0.087228
C7    C     C_R   0.216548 0.384294 0.121719 0.253193
C8    C     C_R   0.229365 0.400355 0.163655 -0.124890
C9    C     C_R   0.319624 0.332525 0.185376 -0.021955
C10   C     C_1   0.321886 0.342000 0.228680 -0.005762
C11   C     C_1   0.325670 0.346122 0.264946 0.048150
C12   C     C_R   0.405822 0.386335 0.433953 0.546497
C13   C     C_R   0.293864 0.295899 0.101495 -0.029021
C14   C     C_R   0.749907 0.374025 0.408528 0.009128
C15   C     C_R   0.793092 0.427528 0.392172 0.235890
C16   C     C_R   0.813712 0.408147 0.351099 -0.139367
C17   C     C_R   0.791005 0.337419 0.326298 -0.003723
C18   C     C_R   0.753231 0.279631 0.343465 0.230770
C19   C     C_R   0.736942 0.296008 0.384519 -0.116735
C20   C     C_R   0.821179 0.317898 0.202155 0.340204
C21   C     C_R   0.803581 0.329265 0.282763 0.329375
C22   C     C_R   0.841162 0.392146 0.142487 -0.134048
C23   C     C_R   0.700330 0.409880 0.447342 0.572020
C24   C     C_R   0.872940 0.379531 0.103700 -0.153969
C25   C     C_R   0.882489 0.209259 0.094882 0.233044
C26   C     C_R   0.854583 0.221228 0.134567 -0.045386
C27   C     C_R   0.837105 0.311006 0.158981 -0.014476
C28   C     C_R   0.900279 0.285901 0.080290 0.004763
C29   C     C_R   0.368225 0.754997 0.408801 -0.034202
C30   C     C_R   0.288702 0.755235 0.381279 -0.179623
C31   C     C_R   0.282543 0.776789 0.341373 -0.182621
C32   C     C_R   0.355129 0.799688 0.327627 -0.012615
C33   C     C_R   0.427224 0.813189 0.356149 0.325367
C34   C     C_R   0.393569 0.701491 0.561286 0.555153
C35   C     C_R   0.433990 0.790935 0.396753 0.251794
C36   C     C_R   0.356097 0.811001 0.202422 0.348645
C37   C     C_R   0.355583 0.805152 0.283546 0.355122
C38   C     C_R   0.276974 0.809580 0.132239 -0.128662
C39   C     C_R   0.253051 0.845009 0.092971 0.203082
C40   C     C_R   0.382589 0.904793 0.106100 0.213644
C41   C     C_R   0.403992 0.870000 0.145096 -0.110267
C42   C     C_R   0.348302 0.826819 0.159029 -0.043310
C43   C     C_R   0.301277 0.899184 0.080625 0.060413
C44   C     C_R   0.370846 0.370774 0.585489 0.013076
C45   C     C_R   0.407331 0.388927 0.549107 0.576935
C46   C     C_R   0.288277 0.454858 0.604725 -0.161707
C47   C     C_R   0.265704 0.449311 0.643775 0.260213
C48   C     C_R   0.329273 0.359005 0.664653 0.005893
C49   C     C_R   0.405087 0.271604 0.644049 -0.159524
C50   C     C_R   0.426116 0.276196 0.604460 0.230706
C51   C     C_R   0.316960 0.353185 0.789328 0.340799
C52   C     C_R   0.323040 0.356099 0.708391 0.367929
C53   C     C_R   0.217413 0.405815 0.851216 -0.117737
C54   C     C_R   0.206633 0.385025 0.889715 -0.130938
C55   C     C_R   0.385696 0.249276 0.892996 -0.123780
C56   C     C_R   0.701379 0.413693 0.562727 0.542106
C57   C     C_R   0.396512 0.270153 0.854580 -0.108414
C58   C     C_R   0.311089 0.345328 0.832579 0.036398
C59   C     C_R   0.289324 0.303307 0.910104 0.021629
C60   C     C_R   0.754246 0.380906 0.603016 -0.024921
C61   C     C_R   0.768654 0.452087 0.631004 -0.145463
C62   C     C_R   0.795701 0.430722 0.671680 -0.169233
C63   C     C_R   0.810215 0.337511 0.684854 0.043525
C64   C     C_R   0.805111 0.261686 0.656762 0.294580
C65   C     C_R   0.775223 0.284592 0.616003 -0.109144
C66   C     C_R   0.869951 0.216210 0.823999 0.257993
C67   C     C_R   0.371024 0.366575 0.392279 -0.011644
C68   C     C_R   0.899301 0.206302 0.865754 -0.130146
C69   C     C_R   0.882105 0.379046 0.872061 -0.142258
C70   C     C_R   0.854091 0.388791 0.830812 -0.172306
C71   C     C_R   0.851316 0.306651 0.806561 0.080200
C72   C     C_1   0.836034 0.314191 0.763446 0.054905
C73   C     C_1   0.824961 0.323079 0.727506 0.040416
C74   C     C_R   0.909077 0.286207 0.889700 -0.009360
C75   C     C_R   0.378128 0.753651 0.602382 -0.010056
C76   C     C_R   0.279659 0.802968 0.618513 0.265685
C77   C     C_R   0.272337 0.828361 0.660172 -0.134640
C78   C     C_R   0.285917 0.446906 0.372170 -0.141515
C79   C     C_R   0.361134 0.808332 0.685683 0.030826
C80   C     C_R   0.458195 0.767089 0.669697 0.248578
C81   C     C_R   0.465962 0.740465 0.627946 -0.173847
C82   C     C_R   0.398335 0.880684 0.833189 0.237625
C83   C     C_R   0.376474 0.911651 0.873746 -0.129239
C84   C     C_R   0.230874 0.876340 0.863705 -0.123877
C85   C     C_R   0.249576 0.848976 0.822637 0.237243
C86   C     C_R   0.332257 0.853256 0.807329 0.046876
C87   C     C_1   0.344657 0.836553 0.764566 0.084447
C88   C     C_1   0.352697 0.824304 0.728642 0.072786
C89   C     C_R   0.268265 0.437789 0.330328 -0.163902
C90   C     C_R   0.291090 0.912360 0.889055 -0.069414
C91   C     C_R   0.961622 0.265074 0.045015 0.542033
C92   C     C_R   0.273028 0.259805 0.060021 0.561859
C93   C     C_R   0.259811 0.959429 0.043914 0.593520
C94   C     C_R   0.962411 0.267713 0.930677 0.539146
C95   C     C_R   0.270747 0.264086 0.945379 0.539414
C96   C     C_R   0.256210 0.964694 0.929025 0.545092
Cr1   Cr    Cr6+3 0.576280 0.580550 0.506370 1.064903
Cr2   Cr    Cr6+3 0.346780 0.572400 0.496520 1.037598
Cr3   Cr    Cr6+3 0.576960 0.347070 0.497150 1.047730
Cr4   Cr    Cr6+3 0.087320 0.083240 0.984860 1.059672
Cr5   Cr    Cr6+3 0.087720 0.316210 0.996740 1.041893
Cr6   Cr    Cr6+3 0.317350 0.090340 0.995890 1.035502
H1    H     H_    0.449311 0.166463 0.108119 0.186868
H2    H     H_    0.703989 0.253832 0.396554 0.168965
H3    H     H_    0.882410 0.441176 0.093165 0.163442
H4    H     H_    0.844917 0.450650 0.338114 0.134318
H5    H     H_    0.826264 0.463130 0.160397 0.154652
H6    H     H_    0.847321 0.159592 0.146348 0.170054
H7    H     H_    0.235312 0.730720 0.389599 0.157837
H8    H     H_    0.223668 0.769644 0.320801 0.163129
H9    H     H_    0.236104 0.772879 0.142443 0.131349
H10   H     H_    0.460000 0.883318 0.165235 0.172720
H11   H     H_    0.245030 0.528220 0.590686 0.165149
H12   H     H_    0.131509 0.428412 0.902259 0.130502
H13   H     H_    0.450967 0.200416 0.659364 0.139725
H14   H     H_    0.150562 0.465277 0.835245 0.138030
H15   H     H_    0.451158 0.186637 0.908224 0.135831
H16   H     H_    0.470340 0.223431 0.841343 0.148870
H17   H     H_    0.919403 0.134478 0.878965 0.109800
H18   H     H_    0.763548 0.228999 0.595079 0.145802
H19   H     H_    0.752607 0.527095 0.622052 0.136406
H20   H     H_    0.838714 0.459101 0.817492 0.111325
H21   H     H_    0.888401 0.442237 0.889620 0.138527
H22   H     H_    0.498606 0.210977 0.385411 0.125318
H23   H     H_    0.800973 0.488919 0.693182 0.123339
H24   H     H_    0.423691 0.939737 0.892584 0.151702
H25   H     H_    0.541893 0.703419 0.615983 0.126819
H26   H     H_    0.166141 0.874133 0.875162 0.148976
H27   H     H_    0.197387 0.860750 0.672730 0.127712
H28   H     H_    0.236868 0.519408 0.388330 0.141991
H29   H     H_    0.166489 0.463638 0.179447 0.138696
H30   H     H_    0.205622 0.502569 0.315005 0.123719
N1    N     N_R   0.787409 0.409993 0.224045 -0.218682
N2    N     N_R   0.236900 0.424207 0.727552 -0.160606
N3    N     N_R   0.406192 0.286959 0.730560 -0.219703
N4    N     N_R   0.403113 0.285313 0.770168 -0.215525
N5    N     N_R   0.778492 0.415624 0.263581 -0.213932
N6    N     N_R   0.838548 0.236841 0.261037 -0.190895
N7    N     N_R   0.847102 0.231291 0.221420 -0.215391
N8    N     N_R   0.283424 0.796451 0.218011 -0.221006
N9    N     N_R   0.283474 0.793206 0.257701 -0.234797
N10   N     N_R   0.429311 0.818029 0.267865 -0.148604
N11   N     N_R   0.429151 0.821628 0.228132 -0.214904
N12   N     N_R   0.233721 0.422495 0.767204 -0.228916
O1    O     O_R   0.679450 0.499830 0.463150 -0.422453
O2    O     O_R   0.356040 0.477400 0.534170 -0.521471
O3    O     O_R   0.495910 0.323070 0.537100 -0.436416
O4    O     O_R   0.663920 0.359620 0.542290 -0.500444
O5    O     O_3   0.500010 0.500010 0.500010 -0.259944
O6    O     O_R   0.170070 0.978950 0.027680 -0.434492
O7    O     O_R   0.001760 0.175230 0.026640 -0.483282
O8    O     O_R   0.984760 0.333570 0.037150 -0.500425
O9    O     O_R   0.183410 0.309240 0.041890 -0.442653
O10   O     O_R   0.340240 0.172500 0.045430 -0.506311
O11   O     O_R   0.309670 0.000990 0.032050 -0.468543
O12   O     O_R   0.480650 0.664000 0.464630 -0.477454
O13   O     O_R   0.168330 0.982130 0.939200 -0.516818
O14   O     O_R   0.000140 0.178170 0.944610 -0.507460
O15   O     O_R   0.983010 0.336750 0.948660 -0.522654
O16   O     O_R   0.181800 0.312190 0.959860 -0.508187
O17   O     O_R   0.338500 0.175680 0.956950 -0.521785
O18   O     O_R   0.308050 0.003930 0.950020 -0.507533
O19   O     O_3   0.164130 0.163270 0.992500 -0.256468
O20   O     O_R   0.323930 0.675950 0.455370 -0.521911
O21   O     O_R   0.354700 0.475360 0.451930 -0.501551
O22   O     O_R   0.494470 0.320860 0.448390 -0.516189
O23   O     O_R   0.662580 0.357570 0.460050 -0.530095
O24   O     O_R   0.680900 0.502040 0.551870 -0.516822
O25   O     O_R   0.481990 0.666040 0.546870 -0.520956
O26   O     O_R   0.325370 0.678160 0.544080 -0.454613
O27   O     O_3   0.724355 0.212110 0.321143 -0.665877
H31   H     H_    0.697623 0.237579 0.293771 0.352974
O28   O     O_3   0.894704 0.120812 0.072171 -0.667222
H32   H     H_    0.871919 0.139225 0.043722 0.330534
O29   O     O_3   0.506828 0.803287 0.423212 -0.644822
H33   H     H_    0.481546 0.819741 0.450744 0.320090
O30   O     O_3   0.180468 0.830687 0.066947 -0.662649
H34   H     H_    0.154628 0.791528 0.080297 0.319564
O31   O     O_3   0.495037 0.182677 0.184081 -0.663325
H35   H     H_    0.499347 0.207939 0.212614 0.359254
O32   O     O_3   0.495931 0.842163 0.344295 -0.501321
C97   C     C_3   0.450884 0.951138 0.349181 -0.061663
H36   H     H_    0.437944 0.979079 0.381488 0.133325
H37   H     H_    0.376771 0.989389 0.330161 0.118799
H38   H     H_    0.505195 0.974747 0.339153 0.163799
O33   O     O_3   0.431610 0.957437 0.095460 -0.534066
C98   C     C_3   0.531140 0.884204 0.083531 -0.092870
H39   H     H_    0.568620 0.926355 0.073252 0.147110
H40   H     H_    0.526499 0.831640 0.057676 0.103336
H41   H     H_    0.581217 0.838445 0.109276 0.118843
O34   O     O_3   0.502832 0.190893 0.584717 -0.663742
H42   H     H_    0.533929 0.131665 0.602361 0.326693
O35   O     O_3   0.191724 0.537276 0.663433 -0.525175
C99   C     C_3   0.092333 0.554495 0.647461 -0.091545
H43   H     H_    0.081503 0.485646 0.649876 0.115641
H44   H     H_    0.077555 0.576239 0.615525 0.113250
H45   H     H_    0.033365 0.620214 0.665391 0.155475
O36   O     O_3   0.479841 0.176151 0.305382 -0.682794
H46   H     H_    0.534101 0.125773 0.323800 0.330119
O37   O     O_3   0.862618 0.137797 0.799626 -0.690767
H47   H     H_    0.873354 0.082253 0.816853 0.308988
O38   O     O_3   0.817896 0.170284 0.669954 -0.534335
C100  C     C_3   0.914030 0.088732 0.658143 -0.105742
H48   H     H_    0.979462 0.103811 0.670172 0.105340
H49   H     H_    0.914029 0.074653 0.624655 0.101644
H50   H     H_    0.927325 0.016683 0.670987 0.160359
O39   O     O_3   0.477663 0.888047 0.817879 -0.545341
C101  C     C_3   0.571563 0.797932 0.826667 -0.096829
H51   H     H_    0.569081 0.726897 0.812815 0.132380
H52   H     H_    0.590761 0.792150 0.859892 0.099399
H53   H     H_    0.635070 0.802161 0.813446 0.158469
O40   O     O_3   0.544563 0.749304 0.695522 -0.683115
H54   H     H_    0.606594 0.718886 0.679530 0.315897
O41   O     O_3   0.191410 0.817862 0.594511 -0.535804
C102  C     C_3   0.141588 0.920119 0.582046 -0.115844
H55   H     H_    0.192205 0.933230 0.563619 0.116910
H56   H     H_    0.116978 0.977954 0.608378 0.091130
H57   H     H_    0.070632 0.932607 0.562720 0.145633
O42   O     O_3   0.188809 0.815633 0.797440 -0.554521
C103  C     C_3   0.091296 0.901827 0.788801 -0.094104
H58   H     H_    0.099231 0.964020 0.775893 0.128025
H59   H     H_    0.046301 0.932798 0.816184 0.115169
H60   H     H_    0.046345 0.876395 0.765793 0.162854
O43   O     O_3   0.123232 0.448704 0.101728 -0.539674
C104  C     C_3   0.128743 0.535780 0.091188 -0.108205
H61   H     H_    0.192599 0.512662 0.070952 0.113544
H62   H     H_    0.138270 0.581708 0.118567 0.111987
H63   H     H_    0.054824 0.586745 0.074344 0.142646
O44   O     O_3   0.811675 0.499998 0.416263 -0.650248
H64   H     H_    0.841280 0.530476 0.399974 0.330680

loop_
_geom_bond_atom_site_label_1
_geom_bond_atom_site_label_2
_ccdc_geom_bond_type
C84   H26   S    
C99   H44   S    
Cr3   O4    S    
N1    N5    A    
C94   O15   A    
C55   C59   A    
C1    O12   A    
C52   N2    A    
C41   C42   A    
C74   C94   S    
C66   C68   A    
N6    N7    A    
C21   N5    A    
C100  H48   S    
O43   C104  S    
C3    O36   S    
C103  H59   S    
N3    N4    A    
O28   H32   S    
C25   C28   A    
C23   O1    A    
C26   C27   A    
O44   H64   S    
C89   H30   S    
C37   N9    A    
C5    C6    A    
C20   N7    A    
C36   N11   A    
C38   C42   A    
C48   C52   S    
C95   O17   A    
C68   H17   S    
C85   C86   A    
C91   O8    A    
C99   H45   S    
C40   O33   S    
C69   H21   S    
C68   C74   A    
C15   C16   A    
O32   C97   S    
C104  H63   S    
Cr1   O25   S    
C4    H22   S    
C61   H19   S    
C18   C19   A    
C51   N4    A    
Cr1   O12   S    
C49   C50   A    
C97   H36   S    
C82   O39   S    
C98   H41   S    
Cr3   O3    S    
C14   C15   A    
C104  H62   S    
C36   C42   S    
Cr4   O13   S    
C65   H18   S    
C40   C43   A    
C5    O31   S    
C66   C71   A    
Cr5   O16   S    
O37   H47   S    
C41   H10   S    
C70   C71   A    
C20   N1    A    
Cr3   O5    S    
C29   C30   A    
C9    C10   S    
Cr6   O10   S    
C34   O26   A    
C53   H14   S    
C16   H4    S    
C34   C75   S    
C80   O40   S    
Cr3   O22   S    
C99   H43   S    
C78   C89   A    
C28   C91   S    
C81   H25   S    
C93   O6    A    
C61   C62   A    
C67   C78   A    
C84   C90   A    
C21   N6    A    
C2    C11   S    
C103  H58   S    
C39   O30   S    
C53   C54   A    
C44   C46   A    
C104  H61   S    
Cr3   O23   S    
C54   C59   A    
C77   C79   A    
Cr4   O7    S    
C12   C67   S    
C91   O7    A    
C32   C37   S    
C37   N10   A    
Cr6   O19   S    
C30   H7    S    
C95   O16   A    
C100  H50   S    
C93   O11   A    
C84   C85   A    
N8    N9    A    
C1    O20   A    
C72   C73   T    
O38   C100  S    
C102  H57   S    
C101  H51   S    
O42   C103  S    
O41   C102  S    
C8    C9    A    
C39   C43   A    
C63   C73   S    
Cr4   O6    S    
C25   C26   A    
C18   O27   S    
C17   C21   S    
O39   C101  S    
C60   C61   A    
C97   H38   S    
C14   C23   S    
C56   O4    A    
C2    C89   A    
C75   C76   A    
C5    C9    A    
C62   C63   A    
C25   O28   S    
C62   H23   S    
C100  H49   S    
C19   H2    S    
C70   H20   S    
C47   C48   A    
C92   O9    A    
Cr5   O9    S    
C30   C31   A    
Cr6   O18   S    
C56   O24   A    
C8    H29   S    
C1    C29   S    
C17   C18   A    
C69   C74   A    
C51   C58   S    
C77   H27   S    
C6    H1    S    
C76   C77   A    
C50   O34   S    
C36   N8    A    
O27   H31   S    
O36   H46   S    
C34   O25   A    
C79   C88   S    
C59   C95   S    
C23   O23   A    
C40   C41   A    
C49   H13   S    
C60   C65   A    
O35   C99   S    
C22   C27   A    
C55   C57   A    
C13   C92   S    
C33   O32   S    
C22   C24   A    
C83   H24   S    
C26   H6    S    
C3    C4    A    
C76   O41   S    
C12   O21   A    
C44   C45   S    
C86   C87   S    
C55   H15   S    
C44   C50   A    
O34   H42   S    
C38   H9    S    
C83   C90   A    
C64   O38   S    
C46   C47   A    
C48   C49   A    
Cr1   O5    S    
C46   H11   S    
C45   O3    A    
Cr1   O1    S    
C14   C19   A    
C47   O35   S    
C31   C32   A    
C75   C81   A    
C24   C28   A    
C80   C81   A    
C94   O14   A    
C4    C67   A    
Cr2   O20   S    
C53   C58   A    
C90   C96   S    
C20   C27   S    
O31   H35   S    
Cr1   O24   S    
Cr2   O2    S    
C29   C35   A    
Cr5   O8    S    
C45   O2    A    
C43   C93   S    
C35   O29   S    
C64   C65   A    
C102  H56   S    
C2    C3    A    
C78   H28   S    
C98   H39   S    
O29   H33   S    
C82   C86   A    
C32   C33   A    
C6    C13   A    
C12   O22   A    
C7    O43   S    
C57   C58   A    
C38   C39   A    
C101  H53   S    
Cr6   O17   S    
C54   H12   S    
Cr5   O19   S    
C63   C64   A    
C33   C35   A    
C31   H8    S    
C96   O18   A    
C96   O13   A    
Cr4   O19   S    
C66   O37   S    
C102  H55   S    
C85   O42   S    
C69   C70   A    
C97   H37   S    
C98   H40   S    
Cr2   O21   S    
C7    C8    A    
C10   C11   T    
O30   H34   S    
N2    N12   A    
C79   C80   A    
Cr2   O26   S    
Cr4   O14   S    
C7    C13   A    
C56   C60   S    
O40   H54   S    
Cr5   O15   S    
C87   C88   T    
C101  H52   S    
C82   C83   A    
C52   N3    A    
C51   N12   A    
N10   N11   A    
C92   O10   A    
C24   H3    S    
C71   C72   S    
O33   C98   S    
Cr6   O11   S    
C103  H60   S    
C15   O44   S    
C22   H5    S    
C16   C17   A    
C57   H16   S    
Cr2   O5    S    
