data_mof_unit_pretest_117.cif
_audit_creation_date              2013-03-05T15:40:19-0500
_audit_creation_method            fapswitch 2.2
_symmetry_space_group_name_H-M    P1
_symmetry_Int_Tables_number       1
_space_group_crystal_system       triclinic
_cell_length_a                    10.863661
_cell_length_b                    10.886202
_cell_length_c                    17.754497
_cell_angle_alpha                 97.855494
_cell_angle_beta                  73.411067
_cell_angle_gamma                 97.941755
_cell_volume                      1982.53932119

loop_
_atom_site_label
_atom_site_type_symbol
_atom_site_description
_atom_site_fract_x
_atom_site_fract_y
_atom_site_fract_z
_atom_type_partial_charge
Zn1   Zn    Zn3+2 0.577310 0.422690 0.565550 1.030294
Zn2   Zn    Zn3+2 0.403760 0.371330 0.445150 0.990085
Zn3   Zn    Zn3+2 0.634990 0.589920 0.423760 1.018727
Zn4   Zn    Zn3+2 0.383940 0.616050 0.565540 0.998574
O1    O     O_3   0.500000 0.500000 0.500000 -0.511770
O2    O     O_R   0.209690 0.568800 0.556400 -0.636518
O3    O     O_R   0.763190 0.458310 0.535350 -0.594574
O4    O     O_R   0.414000 0.207090 0.472140 -0.642616
O5    O     O_R   0.613120 0.765800 0.436110 -0.609012
O6    O     O_R   0.470800 0.371790 0.332500 -0.627170
O7    O     O_R   0.380610 0.619380 0.674980 -0.624903
O8    O     O_R   0.632640 0.524780 0.317540 -0.623992
O9    O     O_R   0.515950 0.484050 0.674980 -0.599361
O10   O     O_R   0.535460 0.243030 0.556410 -0.615863
O11   O     O_R   0.437420 0.784080 0.535340 -0.620927
O12   O     O_R   0.223560 0.397520 0.472140 -0.643371
O13   O     O_R   0.803560 0.575360 0.436110 -0.640341
C1    C     C_R   0.158979 0.481449 0.516410 0.823806
C2    C     C_R   0.842758 0.520073 0.482968 0.902405
C3    C     C_R   0.467381 0.169563 0.519045 0.909208
C4    C     C_R   0.528956 0.832601 0.482006 0.832416
C5    C     C_R   0.564387 0.435762 0.288186 0.811979
C6    C     C_R   0.433885 0.561230 0.713345 0.810206
C7    C     C_R   0.387627 0.571138 0.801751 -0.221370
C8    C     C_R   0.589285 0.407287 0.203132 -0.039472
C9    C     C_R   0.226704 0.627108 0.926492 0.141392
C10   C     C_R   0.267854 0.617567 0.843048 -0.088040
C11   C     C_R   0.461062 0.530993 0.845906 -0.067733
C12   C     C_R   0.404279 0.511514 0.926582 -0.016064
C13   C     C_R   0.289814 0.566368 0.968909 0.003575
C14   C     C_R   0.463084 0.442503 0.966595 0.011807
C15   C     C_R   0.433414 0.458151 0.049431 0.051806
C16   C     C_R   0.314846 0.505600 0.092162 0.098611
C17   C     C_R   0.241577 0.556637 0.051866 -0.080030
C18   C     C_R   0.541660 0.348908 0.925885 -0.258398
C19   C     C_R   0.611640 0.290240 0.962903 0.189770
C20   C     C_R   0.605739 0.327130 0.043328 0.053362
C21   C     C_R   0.517630 0.414684 0.086257 0.027357
C22   C     C_R   0.681424 0.277566 0.083398 0.231515
C23   C     C_R   0.668932 0.315807 0.163531 -0.262951
C24   C     C_R   0.518455 0.459390 0.164229 -0.187179
H1    H     H_    0.464289 0.535510 0.196034 0.163116
H2    H     H_    0.721868 0.273912 0.194975 0.142765
H3    H     H_    0.543430 0.315623 0.865476 0.194463
C25   C     C_2   0.979831 0.522789 0.475708 -0.414317
H4    H     H_    0.048220 0.565058 0.426016 0.134725
C26   C     C_2   0.022529 0.472017 0.527235 0.093916
C27   C     C_2   0.534385 0.964638 0.471847 -0.285905
C28   C     C_2   0.458385 0.039444 0.528463 -0.009465
C29   C     C_2   0.109845 0.587731 0.096585 0.960132
O14   O     O_2   0.095536 0.672954 0.149851 -0.627926
O15   O     O_R   0.002477 0.520000 0.076829 -0.822666
H5    H     H_    0.917887 0.549448 0.111265 0.354484
N1    N     N_2   0.766525 0.185921 0.045106 -0.290241
H6    H     H_    0.752068 0.109164 0.076041 0.231872
C30   C     C_3   0.901304 0.234162 0.021906 -0.675115
H7    H     H_    0.959020 0.159729 0.985559 0.231919
H8    H     H_    0.936760 0.265220 0.074980 0.238400
H9    H     H_    0.915328 0.313605 0.986115 0.274579
N2    N     N_2   0.938178 0.426843 0.597711 -0.256373
H10   H     H_    0.907263 0.498209 0.640602 0.233086
C31   C     C_3   0.977352 0.324892 0.626978 -0.729616
H11   H     H_    0.896504 0.288057 0.675018 0.240375
H12   H     H_    0.061748 0.357347 0.650762 0.234941
H13   H     H_    0.002041 0.247989 0.579009 0.247569
C32   C     C_2   0.621995 0.010707 0.397092 0.910971
O16   O     O_2   0.637389 0.942355 0.335163 -0.595123
O17   O     O_R   0.688501 0.130324 0.397549 -0.815783
H14   H     H_    0.744109 0.149677 0.343194 0.331479
N3    N     N_2   0.387494 0.998544 0.603715 -0.267084
H15   H     H_    0.444914 0.977685 0.636592 0.247509
C33   C     C_3   0.278138 0.063606 0.649547 -0.729035
H16   H     H_    0.223344 0.011202 0.700320 0.267761
H17   H     H_    0.212517 0.070133 0.612677 0.234889
H18   H     H_    0.311474 0.158548 0.672759 0.217423
N4    N     N_2   0.684226 0.191936 0.919266 -0.275458
H19   H     H_    0.626649 0.113112 0.906004 0.233338
C34   C     C_3   0.788045 0.226594 0.851479 -0.729898
H20   H     H_    0.853004 0.151354 0.831543 0.246125
H21   H     H_    0.845522 0.314193 0.866814 0.256822
H22   H     H_    0.748604 0.238969 0.802165 0.237187
N5    N     N_2   0.123487 0.699949 0.967419 -0.290527
H23   H     H_    0.046570 0.690758 0.943235 0.251229
C35   C     C_3   0.164726 0.828116 0.990711 -0.688618
H24   H     H_    0.079642 0.875330 0.026857 0.245955
H25   H     H_    0.211538 0.878515 0.937787 0.249893
H26   H     H_    0.233868 0.832185 0.026809 0.247548
C36   C     C_2   0.183656 0.657496 0.800399 0.963281
O18   O     O_2   0.178293 0.768447 0.798502 -0.633482
O19   O     O_R   0.111055 0.567456 0.762197 -0.815385
H27   H     H_    0.057535 0.605583 0.734900 0.346187
C37   C     C_2   0.603903 0.539036 0.814769 0.918527
O20   O     O_2   0.669705 0.626618 0.839809 -0.621223
O21   O     O_R   0.663252 0.444537 0.761034 -0.794374
H28   H     H_    0.759898 0.454311 0.753166 0.331881
N6    N     N_2   0.258693 0.481620 0.172626 -0.324860
H29   H     H_    0.210872 0.551722 0.209532 0.256734
C38   C     C_3   0.190561 0.358634 0.183439 -0.741281
H30   H     H_    0.158597 0.345846 0.247366 0.246389
H31   H     H_    0.254894 0.285755 0.152494 0.253173
H32   H     H_    0.104302 0.347370 0.160388 0.237874

loop_
_geom_bond_atom_site_label_1
_geom_bond_atom_site_label_2
_geom_bond_distance
_ccdc_geom_bond_type
C32   O17   1.399362 S    
C24   H1    1.081155 S    
C18   C19   1.397159 A    
C7    C10   1.421896 A    
C1    C26   1.430206 S    
C25   H4    1.088255 S    
O6    C5    1.278683 A    
C9    C10   1.413541 A    
C12   C13   1.420058 A    
Zn1   O1    1.946620 S    
C19   C20   1.415054 A    
C20   C21   1.429172 A    
C35   H25   1.110643 S    
C8    C23   1.390717 A    
C34   H21   1.111290 S    
C22   N1    1.422256 S    
C38   H30   1.110384 S    
O8    C5    1.282395 A    
C30   H7    1.110212 S    
O9    C6    1.291710 A    
N2    C31   1.448224 S    
C31   H12   1.111097 S    
Zn3   O8    1.927949 S    
C19   N4    1.423029 S    
C26   N2    1.426947 S    
C23   H2    1.084336 S    
O17   H14   1.013986 S    
C5    C8    1.453137 S    
N6    C38   1.446555 S    
C29   O15   1.397306 S    
C6    C7    1.498717 S    
C35   H26   1.111232 S    
N3    H15   1.031853 S    
C15   C21   1.426247 A    
Zn2   O12   1.929889 S    
C4    C27   1.464049 S    
C32   O16   1.223246 D    
C9    N5    1.427260 S    
C10   C36   1.481330 S    
C33   H18   1.111124 S    
C16   C17   1.417804 A    
C25   C26   1.344974 D    
O2    C1    1.267233 A    
N1    C30   1.446224 S    
C17   C29   1.484776 S    
C13   C17   1.428890 A    
O10   C3    1.264275 A    
N4    H19   1.031292 S    
C21   C24   1.405367 A    
C33   H17   1.111283 S    
C8    C24   1.386392 A    
C22   C23   1.399768 A    
C34   H20   1.109963 S    
C33   H16   1.110279 S    
N2    H10   1.029851 S    
C3    C28   1.435668 S    
Zn3   O5    1.936923 S    
C14   C15   1.404254 A    
C12   C14   1.419448 A    
N6    H29   1.029620 S    
C31   H11   1.108199 S    
C37   O21   1.395675 S    
C29   O14   1.222847 D    
C11   C37   1.485652 S    
O4    C3    1.277087 A    
C35   H24   1.110311 S    
Zn4   O7    1.928485 S    
C18   H3    1.079768 S    
Zn4   O2    1.938521 S    
C27   C28   1.357720 D    
C36   O19   1.397489 S    
C9    C13   1.425011 A    
O3    C2    1.271017 A    
C28   N3    1.434122 S    
C14   C18   1.405690 A    
Zn2   O1    1.951237 S    
Zn1   O9    1.922000 S    
Zn2   O6    1.923694 S    
C16   N6    1.428794 S    
O15   H5    1.013938 S    
N1    H6    1.031726 S    
C11   C12   1.421097 A    
C31   H13   1.111256 S    
Zn1   O3    1.933335 S    
Zn2   O4    1.938650 S    
C7    C11   1.410354 A    
N4    C34   1.447185 S    
Zn4   O1    1.933998 S    
Zn3   O1    1.942443 S    
C2    C25   1.454046 S    
C38   H32   1.110930 S    
N5    C35   1.446993 S    
C30   H9    1.110612 S    
C15   C16   1.421367 A    
Zn4   O11   1.941028 S    
C20   C22   1.426479 A    
C34   H22   1.109377 S    
O5    C4    1.274811 A    
O19   H27   1.013797 S    
O7    C6    1.282134 A    
C37   O20   1.222692 D    
O13   C2    1.282839 A    
C30   H8    1.111220 S    
Zn3   O13   1.935411 S    
O21   H28   1.011254 S    
C38   H31   1.111117 S    
O11   C4    1.272175 A    
C36   O18   1.222734 D    
O12   C1    1.269151 A    
N5    H23   1.030839 S    
N3    C33   1.448495 S    
Zn1   O10   1.941109 S    
C27   C32   1.499232 S    
