data_mof_unit_pretest_1668.cif
_audit_creation_date              2012-12-10T20:58:44-0500
_audit_creation_method            fapswitch 2.2
_symmetry_space_group_name_H-M    P1
_symmetry_Int_Tables_number       1
_space_group_crystal_system       triclinic
_cell_length_a                    15.892337
_cell_length_b                    15.099899
_cell_length_c                    14.177434
_cell_angle_alpha                 89.999835
_cell_angle_beta                  89.981711
_cell_angle_gamma                 90.000039
_cell_volume                      3402.19670983

loop_
_atom_site_label
_atom_site_type_symbol
_atom_type_description
_atom_site_fract_x
_atom_site_fract_y
_atom_site_fract_z
_atom_type_partial_charge
C1    C     C_1   0.250976 0.500000 0.500043 -0.160562
C2    C     C_R   0.660974 0.500000 0.499958 0.904279
C3    C     C_R   0.500000 0.500000 0.328686 0.891773
C4    C     C_R   0.500000 0.500000 0.671314 0.891772
C5    C     C_1   0.500009 0.806902 0.499357 0.020579
C6    C     C_1   0.499991 0.193098 0.500643 0.020584
C7    C     C_1   0.500000 0.500000 0.227369 -0.185000
C8    C     C_1   0.500000 0.500000 0.772631 -0.185002
C9    C     C_1   0.500000 0.500000 0.142263 0.008727
C10   C     C_1   0.500000 0.500000 0.857737 0.008727
C11   C     C_1   0.500000 0.500000 0.042550 0.026612
C12   C     C_1   0.749024 0.500000 0.499956 -0.160562
C13   C     C_1   0.500000 0.500000 0.957450 0.026611
C14   C     C_R   0.422985 0.952589 0.498775 -0.019167
C15   C     C_R   0.577014 0.047411 0.501225 -0.019167
C16   C     C_R   0.577010 0.952589 0.501458 -0.019206
C17   C     C_R   0.422989 0.047412 0.498542 -0.019205
C18   C     C_R   0.956021 0.581269 0.501741 -0.057159
C19   C     C_R   0.043979 0.418731 0.498258 -0.057159
C20   C     C_R   0.043977 0.581270 0.501758 -0.057344
C21   C     C_R   0.956023 0.418730 0.498242 -0.057344
C22   C     C_2   0.343208 0.098644 0.490215 0.509351
C23   C     C_R   0.912845 0.500000 0.499981 0.034662
C24   C     C_2   0.656791 0.901357 0.509783 0.509337
C25   C     C_2   0.656993 0.098642 0.495682 0.509314
C26   C     C_2   0.343006 0.901358 0.504316 0.509298
C27   C     C_1   0.089964 0.664411 0.503550 0.207074
C28   C     C_1   0.910036 0.335589 0.496449 0.207075
C29   C     C_1   0.910032 0.664409 0.503528 0.207305
C30   C     C_1   0.089968 0.335591 0.496471 0.207305
C31   C     C_R   0.087155 0.500000 0.500018 0.034662
C32   C     C_1   0.823613 0.499999 0.499964 -0.024663
C33   C     C_1   0.176387 0.500000 0.500035 -0.024663
C34   C     C_R   0.500024 0.905092 0.498238 -0.138873
C35   C     C_R   0.499975 0.094908 0.501762 -0.138875
C36   C     C_R   0.339026 0.500000 0.500042 0.904279
H1    H     H_    0.336624 0.161959 0.525677 0.058920
H2    H     H_    0.663374 0.838039 0.474324 0.058925
H3    H     H_    0.662561 0.161972 0.531328 0.058553
H4    H     H_    0.337441 0.838023 0.468680 0.058559
N1    N     N_1   0.500000 0.270550 0.500000 -0.075419
N2    N     N_1   0.500000 0.729450 0.500000 -0.075419
N3    N     N_1   0.126662 0.730604 0.504976 -0.138026
N4    N     N_1   0.873338 0.269395 0.495023 -0.138026
N5    N     N_1   0.873332 0.730603 0.504952 -0.139353
N6    N     N_1   0.126668 0.269397 0.495047 -0.139353
O1    O     O_R   0.378020 0.573650 0.500030 -0.602466
O2    O     O_2   0.714267 0.927117 0.559895 -0.512593
O3    O     O_2   0.715869 0.072866 0.447624 -0.512211
O4    O     O_2   0.284126 0.927139 0.552365 -0.512213
O5    O     O_R   0.621980 0.426350 0.499970 -0.602465
O6    O     O_R   0.621980 0.573650 0.499970 -0.602557
O7    O     O_R   0.378020 0.426350 0.500030 -0.602556
O8    O     O_R   0.500000 0.573680 0.373720 -0.594390
O9    O     O_R   0.500000 0.426320 0.626280 -0.594390
O10   O     O_R   0.500000 0.573680 0.626280 -0.588083
O11   O     O_R   0.500000 0.426320 0.373720 -0.588082
O12   O     O_2   0.285737 0.072886 0.440095 -0.512588
Zn1   Zn    Zn3+2 0.500000 0.598370 0.500000 0.989927
Zn2   Zn    Zn3+2 0.500000 0.401630 0.500000 0.989929

loop_
_geom_bond_atom_site_label_1
_geom_bond_atom_site_label_2
_ccdc_geom_bond_type
N2    Zn1   S    
C14   C34   A    
C24   H2    S    
C5    N2    T    
C31   C33   S    
C5    C34   S    
C22   O12   D    
C36   O7    A    
O6    Zn1   S    
C11   C13   T    
C18   C20   A    
C17   C22   S    
O10   Zn1   S    
C4    C8    S    
C19   C31   A    
C23   C32   S    
C21   C23   A    
C2    C12   S    
C16   C24   S    
C18   C29   S    
O9    Zn2   S    
C14   C26   S    
C9    C11   S    
C14   C17   A    
C26   H4    S    
C2    O6    A    
C3    O11   A    
C15   C35   A    
C20   C27   S    
C21   C28   S    
C28   N4    T    
O7    Zn2   S    
C3    C7    S    
O8    Zn1   S    
C26   O4    D    
C4    O9    A    
C20   C31   A    
C3    O8    A    
C25   O3    D    
C15   C25   S    
C12   C32   T    
C2    O5    A    
C1    C33   T    
C15   C16   A    
C24   O2    D    
C27   N3    T    
C4    O10   A    
C22   H1    S    
C6    C35   S    
N1    Zn2   S    
C36   O1    A    
C8    C10   T    
C6    N1    T    
C7    C9    T    
O11   Zn2   S    
O5    Zn2   S    
C17   C35   A    
C16   C34   A    
C19   C30   S    
O1    Zn1   S    
C30   N6    T    
C25   H3    S    
C18   C23   A    
C1    C36   S    
C29   N5    T    
C19   C21   A    
C10   C13   S    
