data_mof_unit_pretest_1319.cif
_audit_creation_date              2012-12-10T16:46:44-0500
_audit_creation_method            fapswitch 2.2
_symmetry_space_group_name_H-M    P1
_symmetry_Int_Tables_number       1
_space_group_crystal_system       triclinic
_cell_length_a                    15.856014
_cell_length_b                    8.674911
_cell_length_c                    7.571652
_cell_angle_alpha                 103.473255
_cell_angle_beta                  93.74933
_cell_angle_gamma                 92.686337
_cell_volume                      1008.57474599

loop_
_atom_site_label
_atom_site_type_symbol
_atom_type_description
_atom_site_fract_x
_atom_site_fract_y
_atom_site_fract_z
_atom_type_partial_charge
C1    C     C_R   0.497414 0.200077 0.453125 0.872500
C2    C     C_3   0.951514 0.462233 0.681608 0.335702
C3    C     C_3   0.916306 0.493272 0.492667 0.100019
C4    C     C_3   0.957284 0.658830 0.479140 -0.033470
C5    C     C_3   0.055154 0.659395 0.511290 -0.417687
C6    C     C_1   0.823830 0.496718 0.486936 0.003525
C7    C     C_1   0.175949 0.492727 0.512078 0.037234
C8    C     C_1   0.251466 0.496215 0.509930 -0.101583
C9    C     C_2   0.496122 0.031406 0.427711 -0.351419
C10   C     C_2   0.503878 0.968593 0.572260 -0.352306
C11   C     C_R   0.340789 0.499133 0.502965 0.814328
C12   C     C_R   0.502569 0.799923 0.546869 0.865102
C13   C     C_R   0.659212 0.500436 0.496980 0.803732
C14   C     C_3   0.049905 0.439231 0.675725 -0.065134
C15   C     C_3   0.043290 0.372273 0.325420 0.489625
C16   C     C_3   0.944776 0.356739 0.335419 -0.078016
C17   C     C_1   0.748445 0.498897 0.489483 -0.142423
C18   C     C_3   0.083208 0.488195 0.505595 0.051243
Cu1   Cu    Cu3+1 0.509300 0.517380 0.684380 0.992165
Cu2   Cu    Cu3+1 0.490700 0.482620 0.315620 0.976805
H1    H     H_    0.084057 0.521550 0.796074 0.226761
H2    H     H_    0.488777 0.958681 0.289041 0.180980
H3    H     H_    0.511311 0.041293 0.710899 0.178791
H4    H     H_    0.566959 0.621133 0.049021 0.204115
H5    H     H_    0.930421 0.242922 0.371994 0.166476
H6    H     H_    0.075898 0.738611 0.646853 0.193340
H7    H     H_    0.087369 0.713383 0.412070 0.250469
H8    H     H_    0.935024 0.755978 0.585832 0.187959
N1    N     N_2   0.476670 0.456430 0.038530 -0.053450
N2    N     N_2   0.523330 0.543570 0.961470 -0.153732
O1    O     O_R   0.506050 0.286130 0.619770 -0.555439
O2    O     O_R   0.490330 0.256780 0.308370 -0.591859
O3    O     O_R   0.387300 0.514690 0.655770 -0.560111
O4    O     O_R   0.371580 0.485340 0.344370 -0.569024
O5    O     O_R   0.509670 0.743220 0.691630 -0.586182
O6    O     O_R   0.493950 0.713870 0.380230 -0.589147
O7    O     O_R   0.628420 0.514660 0.655630 -0.571277
O8    O     O_R   0.612700 0.485310 0.344230 -0.586420
N3    N     N_3   0.905942 0.327018 0.729383 -0.574664
H9    H     H_    0.842625 0.350140 0.747970 0.245262
H10   H     H_    0.907096 0.220653 0.631694 0.217148
Br1   Br    Br    0.934573 0.646875 0.880912 -0.559130
N4    N     N_3   0.933504 0.697984 0.305731 -0.494712
H11   H     H_    0.868067 0.708676 0.295193 0.235374
H12   H     H_    0.960741 0.810936 0.308897 0.275068
N5    N     N_3   0.416104 0.353004 0.924976 -0.386526
H13   H     H_    0.357260 0.383636 0.971970 0.234700
H14   H     H_    0.425739 0.239855 0.944932 0.211354
N6    N     N_3   0.071342 0.276412 0.678318 -0.539683
H15   H     H_    0.137180 0.274359 0.696967 0.256852
H16   H     H_    0.048280 0.243218 0.790794 0.299077
Br2   Br    Br    0.079699 0.452662 0.122385 -0.538608
Br3   Br    Br    0.087134 0.159761 0.278666 -0.507583
N7    N     N_3   0.895485 0.339869 0.160317 -0.555208
H17   H     H_    0.905478 0.438541 0.107410 0.334915
H18   H     H_    0.915212 0.241750 0.067097 0.274174

loop_
_geom_bond_atom_site_label_1
_geom_bond_atom_site_label_2
_ccdc_geom_bond_type
C15   C18   S    
N4    H11   S    
N1    N2    D    
C4    N4    S    
C10   H3    S    
C12   O6    A    
Cu2   O8    S    
C9    C10   D    
C14   C18   S    
C13   O7    A    
Cu1   Cu2   S    
C13   C17   S    
N1    N5    S    
C3    C6    S    
Cu2   O4    S    
C7    C18   S    
C16   N7    S    
C2    C3    S    
C3    C4    S    
Cu1   O1    S    
C7    C8    T    
N3    H10   S    
Cu1   O5    S    
C15   Br2   S    
C12   O5    A    
N4    H12   S    
C5    H7    S    
C13   O8    A    
C10   C12   S    
C2    Br1   S    
C8    C11   S    
C15   Br3   S    
C14   H1    S    
C4    H8    S    
H4    N2    S    
Cu2   N1    S    
C1    O2    A    
Cu1   O3    S    
C2    C14   S    
N7    H18   S    
C9    H2    S    
C14   N6    S    
N3    H9    S    
C15   C16   S    
Cu2   O6    S    
N5    H14   S    
C1    O1    A    
C1    C9    S    
N6    H15   S    
Cu2   O2    S    
C11   O3    A    
C16   H5    S    
C6    C17   T    
N5    H13   S    
C5    C18   S    
Cu1   O7    S    
N7    H17   S    
Cu1   N2    S    
C2    N3    S    
C11   O4    A    
C3    C16   S    
C5    H6    S    
C4    C5    S    
N6    H16   S    
