data_mof_unit_pretest_733.cif
_audit_creation_date              2012-12-11T15:41:16-0500
_audit_creation_method            fapswitch 2.2
_symmetry_space_group_name_H-M    P1
_symmetry_Int_Tables_number       1
_space_group_crystal_system       triclinic
_cell_length_a                    19.027126
_cell_length_b                    10.985414
_cell_length_c                    18.802315
_cell_angle_alpha                 89.693794
_cell_angle_beta                  90.342295
_cell_angle_gamma                 89.874862
_cell_volume                      3929.94007563

loop_
_atom_site_label
_atom_site_type_symbol
_atom_type_description
_atom_site_fract_x
_atom_site_fract_y
_atom_site_fract_z
_atom_type_partial_charge
C1    C     C_R   0.727659 0.953056 0.853107 0.526885
C2    C     C_R   0.322154 0.403797 0.026830 0.002344
C3    C     C_R   0.761437 0.862517 0.353867 0.529943
C4    C     C_2   0.498316 0.165820 0.921163 -0.134999
C5    C     C_2   0.500817 0.173438 0.078509 -0.138147
C6    C     C_2   0.998324 0.665816 0.921167 -0.134992
C7    C     C_2   0.000821 0.673446 0.078511 -0.138155
C8    C     C_2   0.502033 0.070771 0.040739 -0.138530
C9    C     C_2   0.515991 0.071403 0.963846 -0.132051
C10   C     C_2   0.002063 0.570776 0.040747 -0.138520
C11   C     C_2   0.016017 0.571411 0.963852 -0.132016
C12   C     C_R   0.763336 0.425184 0.070403 -0.031602
C13   C     C_R   0.193595 0.954260 0.964256 0.038597
C14   C     C_R   0.253563 0.389131 0.917563 -0.024805
C15   C     C_R   0.263329 0.925168 0.070408 -0.031596
C16   C     C_R   0.753564 0.889159 0.917568 -0.024786
C17   C     C_2   0.665983 0.593132 0.589932 0.217148
C18   C     C_2   0.377046 0.502612 0.437695 0.214577
C19   C     C_2   0.165988 0.093140 0.589936 0.217154
C20   C     C_2   0.877054 0.002595 0.437698 0.214585
C21   C     C_2   0.883171 0.317924 0.053704 0.213411
C22   C     C_2   0.158786 0.225457 0.911133 0.250882
C23   C     C_2   0.383147 0.817854 0.053718 0.213400
C24   C     C_R   0.822116 0.903904 0.026853 0.002414
C25   C     C_2   0.658819 0.725455 0.911129 0.250892
C26   C     C_R   0.815581 0.402116 0.953070 -0.130965
C27   C     C_R   0.223808 0.268130 0.022569 -0.119446
C28   C     C_R   0.315576 0.902082 0.953079 -0.130979
C29   C     C_R   0.723834 0.768117 0.022563 -0.119470
C30   C     C_R   0.821080 0.388147 0.026717 -0.011208
C31   C     C_R   0.213967 0.293743 0.949881 -0.012783
C32   C     C_R   0.321068 0.888105 0.026726 -0.011240
C33   C     C_R   0.274778 0.957824 0.144871 0.538175
C34   C     C_R   0.713992 0.793741 0.949878 -0.012782
C35   C     C_3   0.629750 0.413541 0.050144 -0.281716
C36   C     C_3   0.336120 0.561543 0.966842 -0.230756
C37   C     C_3   0.129742 0.913541 0.050143 -0.281702
C38   C     C_3   0.835958 0.061698 0.966892 -0.230865
C39   C     C_3   0.622037 0.399948 0.970467 -0.235119
C40   C     C_3   0.348316 0.527832 0.044397 -0.248431
C41   C     C_3   0.122034 0.899939 0.970467 -0.235084
C42   C     C_3   0.848151 0.027989 0.044444 -0.248598
C43   C     C_R   0.749907 0.420198 0.921228 -0.032874
C44   C     C_R   0.227660 0.453052 0.853106 0.526884
C45   C     C_R   0.274214 0.330394 0.063038 -0.014908
C46   C     C_R   0.249906 0.920187 0.921232 -0.032857
C47   C     C_R   0.774212 0.830416 0.063041 -0.014896
C48   C     C_R   0.463669 0.171012 0.435134 0.002524
C49   C     C_R   0.493203 0.174442 0.579160 0.002938
C50   C     C_R   0.963677 0.671011 0.435133 0.002526
C51   C     C_R   0.993210 0.674440 0.579158 0.002943
C52   C     C_R   0.485254 0.277406 0.467016 0.071064
C53   C     C_R   0.499095 0.279760 0.537744 0.048304
C54   C     C_R   0.985273 0.777399 0.467011 0.071087
C55   C     C_R   0.774780 0.457828 0.144869 0.538173
C56   C     C_R   0.999116 0.779751 0.537738 0.048333
C57   C     C_R   0.467984 0.066958 0.548759 -0.174599
C58   C     C_R   0.455384 0.064678 0.475638 -0.175866
C59   C     C_R   0.967978 0.566961 0.548761 -0.174604
C60   C     C_R   0.955379 0.564682 0.475640 -0.175876
C61   C     C_R   0.529897 0.177140 0.850721 0.540075
C62   C     C_R   0.469877 0.178324 0.149228 0.556934
C63   C     C_R   0.029898 0.677139 0.850722 0.540073
C64   C     C_R   0.969879 0.678325 0.149229 0.556935
C65   C     C_3   0.548818 0.350867 0.448503 -0.236296
C66   C     C_R   0.701384 0.463566 0.037353 0.001622
C67   C     C_3   0.563006 0.357268 0.527011 -0.227669
C68   C     C_3   0.048842 0.850839 0.448495 -0.236325
C69   C     C_3   0.063034 0.857228 0.527000 -0.227712
C70   C     C_R   0.777488 0.480989 0.435797 -0.019294
C71   C     C_R   0.242934 0.418436 0.575301 -0.027448
C72   C     C_R   0.277492 0.981000 0.435799 -0.019294
C73   C     C_R   0.742938 0.918432 0.575302 -0.027451
C74   C     C_R   0.821678 0.402567 0.472265 -0.012004
C75   C     C_R   0.187017 0.381354 0.532396 0.081601
C76   C     C_R   0.321682 0.902575 0.472267 -0.012006
C77   C     C_R   0.311306 0.434171 0.955849 -0.013524
C78   C     C_R   0.687020 0.881353 0.532397 0.081608
C79   C     C_R   0.813711 0.378650 0.542878 0.002017
C80   C     C_R   0.192983 0.373103 0.460089 0.020777
C81   C     C_R   0.313714 0.878655 0.542880 0.002017
C82   C     C_R   0.692986 0.873104 0.460090 0.020791
C83   C     C_R   0.718212 0.522991 0.548906 -0.024061
C84   C     C_R   0.312898 0.446660 0.468615 -0.019341
C85   C     C_R   0.218217 0.023001 0.548909 -0.024064
C86   C     C_R   0.812904 0.946652 0.468618 -0.019344
C87   C     C_R   0.728122 0.548245 0.475419 -0.126536
C88   C     C_R   0.201380 0.963566 0.037355 0.001653
C89   C     C_R   0.307116 0.445124 0.543396 -0.146940
C90   C     C_R   0.228128 0.048261 0.475422 -0.126537
C91   C     C_R   0.807121 0.945116 0.543398 -0.146940
C92   C     C_3   0.843799 0.276590 0.455026 -0.240278
C93   C     C_3   0.114703 0.433843 0.526684 -0.222875
C94   C     C_3   0.343807 0.776600 0.455027 -0.240263
C95   C     C_3   0.614708 0.933852 0.526685 -0.222876
C96   C     C_3   0.834895 0.248661 0.533195 -0.222625
C97   C     C_3   0.120913 0.422384 0.447083 -0.269609
C98   C     C_3   0.334900 0.748667 0.533195 -0.222613
C99   C     C_R   0.811270 0.934278 0.955870 -0.013460
C100  C     C_3   0.620919 0.922403 0.447084 -0.269603
C101  C     C_R   0.758335 0.428378 0.581313 -0.027670
C102  C     C_R   0.254273 0.407541 0.426231 -0.043954
C103  C     C_R   0.258338 0.928382 0.581314 -0.027668
C104  C     C_R   0.754278 0.907536 0.426233 -0.043957
C105  C     C_R   0.738220 0.364598 0.852334 0.531798
C106  C     C_R   0.276197 0.312104 0.140373 0.565665
C107  C     C_R   0.238220 0.864597 0.852335 0.531808
C108  C     C_R   0.776196 0.812107 0.140373 0.565653
C109  C     C_R   0.727147 0.956388 0.647131 0.531106
C110  C     C_R   0.693597 0.454262 0.964255 0.038541
C111  C     C_R   0.289710 0.000263 0.360074 0.546150
C112  C     C_R   0.227146 0.456389 0.647131 0.531110
C113  C     C_R   0.789708 0.500260 0.360074 0.546151
C114  C     C_R   0.528140 0.176973 0.646485 0.536933
C115  C     C_R   0.441398 0.179520 0.362861 0.546333
C116  C     C_R   0.028141 0.676973 0.646484 0.536936
C117  C     C_R   0.941400 0.679520 0.362862 0.546331
C118  C     C_R   0.740435 0.365806 0.647703 0.516498
C119  C     C_R   0.261436 0.362519 0.353866 0.529943
C120  C     C_R   0.240435 0.865807 0.647703 0.516499
Cr1   Cr    Cr6+3 0.769260 0.163750 0.750730 1.020480
Cr2   Cr    Cr6+3 0.385810 0.322400 0.252290 0.998763
Cr3   Cr    Cr6+3 0.114190 0.822400 0.747710 1.018603
Cr4   Cr    Cr6+3 0.885810 0.822400 0.252290 0.998767
Cr5   Cr    Cr6+3 0.230740 0.163750 0.249270 1.018455
Cr6   Cr    Cr6+3 0.269260 0.663750 0.750730 1.020474
Cr7   Cr    Cr6+3 0.730740 0.663750 0.249270 1.018465
Cr8   Cr    Cr6+3 0.612640 0.009910 0.748780 1.030110
Cr9   Cr    Cr6+3 0.387360 0.009910 0.251220 1.003968
Cr10  Cr    Cr6+3 0.112640 0.509910 0.748780 1.030091
Cr11  Cr    Cr6+3 0.887360 0.509910 0.251220 1.003955
Cr12  Cr    Cr6+3 0.614190 0.322400 0.747710 1.018581
H1    H     H_    0.493945 0.984190 0.067092 0.207594
H2    H     H_    0.554660 0.449171 0.549336 0.225534
H3    H     H_    0.089015 0.797121 0.419380 0.127314
H4    H     H_    0.054704 0.949129 0.549323 0.225532
H5    H     H_    0.696340 0.616834 0.448984 0.178636
H6    H     H_    0.350047 0.477279 0.576401 0.177734
H7    H     H_    0.196347 0.116854 0.448988 0.178629
H8    H     H_    0.850051 0.977272 0.576403 0.177740
H9    H     H_    0.899340 0.272015 0.437258 0.164824
H10   H     H_    0.113136 0.530118 0.544378 0.135637
H11   H     H_    0.399348 0.772032 0.437261 0.164826
H12   H     H_    0.543682 0.993032 0.942741 0.199928
H13   H     H_    0.613144 0.030126 0.544382 0.135637
H14   H     H_    0.805018 0.229046 0.420525 0.142151
H15   H     H_    0.074149 0.373260 0.549953 0.193372
H16   H     H_    0.305028 0.729054 0.420525 0.142153
H17   H     H_    0.574152 0.873269 0.549952 0.193364
H18   H     H_    0.790610 0.185644 0.543779 0.151011
H19   H     H_    0.085035 0.352870 0.424243 0.166112
H20   H     H_    0.290616 0.685648 0.543777 0.151011
H21   H     H_    0.585033 0.852900 0.424239 0.166105
H22   H     H_    0.885126 0.226605 0.560940 0.180781
H23   H     H_    0.994002 0.484190 0.067106 0.207576
H24   H     H_    0.120914 0.511614 0.418799 0.133098
H25   H     H_    0.385131 0.726613 0.560942 0.180781
H26   H     H_    0.620927 0.011640 0.418803 0.133092
H27   H     H_    0.513245 0.259658 0.053330 0.108646
H28   H     H_    0.469547 0.243406 0.941724 0.110197
H29   H     H_    0.013230 0.759674 0.053329 0.108670
H30   H     H_    0.969545 0.743392 0.941726 0.110196
H31   H     H_    0.859733 0.376298 0.920178 0.193043
H32   H     H_    0.189268 0.203990 0.048615 0.179602
H33   H     H_    0.359729 0.876249 0.920190 0.193044
H34   H     H_    0.043719 0.493052 0.942748 0.199904
H35   H     H_    0.689310 0.703948 0.048601 0.179566
H36   H     H_    0.093725 0.982883 0.072799 0.167363
H37   H     H_    0.793381 0.130120 0.959277 0.156057
H38   H     H_    0.593735 0.482878 0.072804 0.167343
H39   H     H_    0.293600 0.630091 0.959237 0.156137
H40   H     H_    0.631302 0.325293 0.079380 0.131461
H41   H     H_    0.385555 0.580804 0.937692 0.180259
H42   H     H_    0.131292 0.825295 0.079383 0.131459
H43   H     H_    0.885379 0.081116 0.937768 0.180377
H44   H     H_    0.620932 0.303210 0.953624 0.141935
H45   H     H_    0.036223 0.940414 0.423967 0.202320
H46   H     H_    0.404810 0.526986 0.059860 0.161035
H47   H     H_    0.120934 0.803196 0.953629 0.141921
H48   H     H_    0.904630 0.027295 0.059933 0.161060
H49   H     H_    0.580153 0.458521 0.947092 0.195517
H50   H     H_    0.312967 0.577014 0.081435 0.137315
H51   H     H_    0.080147 0.958502 0.947087 0.195566
H52   H     H_    0.812745 0.077054 0.081472 0.137354
H53   H     H_    0.464336 0.983755 0.579645 0.136403
H54   H     H_    0.443294 0.979869 0.449979 0.144370
H55   H     H_    0.964321 0.483762 0.579650 0.136406
H56   H     H_    0.112892 0.811262 0.542942 0.132378
H57   H     H_    0.943282 0.479875 0.449983 0.144378
H58   H     H_    0.669250 0.596605 0.647478 0.128401
H59   H     H_    0.379863 0.528034 0.382165 0.142034
H60   H     H_    0.169258 0.096616 0.647482 0.128395
H61   H     H_    0.879876 0.028011 0.382169 0.142046
H62   H     H_    0.882292 0.272046 0.104758 0.141622
H63   H     H_    0.165477 0.203680 0.855352 0.120528
H64   H     H_    0.382254 0.771972 0.104771 0.141597
H65   H     H_    0.665527 0.703624 0.855360 0.120487
H66   H     H_    0.536191 0.440434 0.423969 0.202336
H67   H     H_    0.612871 0.311317 0.542957 0.132401
H68   H     H_    0.589002 0.297157 0.419393 0.127306
O1    O     O_R   0.784290 0.290360 0.830540 -0.524004
O2    O     O_R   0.456020 0.282110 0.333230 -0.513804
O3    O     O_R   0.043980 0.782110 0.666770 -0.514215
O4    O     O_R   0.956020 0.782110 0.333230 -0.513804
O5    O     O_R   0.679070 0.374030 0.674430 -0.520210
O6    O     O_R   0.320930 0.374030 0.325570 -0.536077
O7    O     O_R   0.179070 0.874030 0.674430 -0.520202
O8    O     O_R   0.820930 0.874030 0.325570 -0.536081
O9    O     O_3   0.665360 0.165350 0.749070 -0.249045
O10   O     O_3   0.334640 0.165350 0.250930 -0.303263
O11   O     O_3   0.165360 0.665350 0.749070 -0.249043
O12   O     O_R   0.215710 0.290360 0.169460 -0.508449
O13   O     O_3   0.834640 0.665350 0.250930 -0.303259
O14   O     O_R   0.762610 0.041070 0.825230 -0.493824
O15   O     O_R   0.237390 0.041070 0.174770 -0.502076
O16   O     O_R   0.262610 0.541070 0.825230 -0.493818
O17   O     O_R   0.737390 0.541070 0.174770 -0.502071
O18   O     O_R   0.667390 0.924160 0.829970 -0.524212
O19   O     O_R   0.332610 0.924160 0.170030 -0.538379
O20   O     O_R   0.167390 0.424160 0.829970 -0.524268
O21   O     O_R   0.832610 0.424160 0.170030 -0.538394
O22   O     O_R   0.553980 0.081420 0.821780 -0.489172
O23   O     O_R   0.284290 0.790360 0.830540 -0.524010
O24   O     O_R   0.446020 0.081420 0.178220 -0.489546
O25   O     O_R   0.053980 0.581420 0.821780 -0.489176
O26   O     O_R   0.946020 0.581420 0.178220 -0.489553
O27   O     O_R   0.543210 0.283170 0.826740 -0.516854
O28   O     O_R   0.456790 0.283170 0.173260 -0.517891
O29   O     O_R   0.043210 0.783170 0.826740 -0.516842
O30   O     O_R   0.956790 0.783170 0.173260 -0.517877
O31   O     O_R   0.678350 0.375000 0.822720 -0.499354
O32   O     O_R   0.321650 0.375000 0.177280 -0.497013
O33   O     O_R   0.178350 0.875000 0.822720 -0.499351
O34   O     O_R   0.715710 0.790360 0.169460 -0.508429
O35   O     O_R   0.821650 0.875000 0.177280 -0.497013
O36   O     O_R   0.785060 0.289300 0.670580 -0.511780
O37   O     O_R   0.214940 0.289300 0.329420 -0.509192
O38   O     O_R   0.285060 0.789300 0.670580 -0.511783
O39   O     O_R   0.714940 0.789300 0.329420 -0.509187
O40   O     O_R   0.763330 0.040090 0.676940 -0.510352
O41   O     O_R   0.236670 0.040090 0.323060 -0.498442
O42   O     O_R   0.263330 0.540090 0.676940 -0.510353
O43   O     O_R   0.736670 0.540090 0.323060 -0.498444
O44   O     O_R   0.668160 0.923110 0.670000 -0.508557
O45   O     O_R   0.554690 0.080440 0.673480 -0.511836
O46   O     O_R   0.331840 0.923110 0.330000 -0.520576
O47   O     O_R   0.168160 0.423110 0.670000 -0.508557
O48   O     O_R   0.831840 0.423110 0.330000 -0.520572
O49   O     O_2   0.618331 0.647655 0.559887 -0.545486
O50   O     O_2   0.426700 0.530236 0.475662 -0.561324
O51   O     O_2   0.118331 0.147653 0.559893 -0.545475
O52   O     O_2   0.926708 0.030213 0.475664 -0.561296
O53   O     O_2   0.934934 0.302359 0.016669 -0.530196
O54   O     O_2   0.104950 0.194045 0.941038 -0.509072
O55   O     O_2   0.434915 0.802279 0.016691 -0.530165
O56   O     O_R   0.445310 0.080440 0.326520 -0.515844
O57   O     O_2   0.604962 0.694129 0.941017 -0.509030
O58   O     O_R   0.054690 0.580440 0.673480 -0.511837
O59   O     O_R   0.945310 0.580440 0.326520 -0.515845
O60   O     O_R   0.543980 0.282110 0.666770 -0.514229

loop_
_geom_bond_atom_site_label_1
_geom_bond_atom_site_label_2
_ccdc_geom_bond_type
C100  H21   S    
C3    C104  S    
C7    C10   D    
C83   C87   A    
Cr3   O3    S    
C49   C53   A    
Cr7   O39   S    
Cr8   O18   S    
C80   C97   S    
C58   H54   S    
C50   C117  S    
C84   C102  A    
Cr2   O6    S    
C37   C88   S    
C103  C120  S    
C44   O20   A    
C14   C31   A    
C72   C76   A    
C86   C104  A    
C120  O7    A    
C21   O53   D    
C64   O26   A    
C90   H7    S    
C57   C58   A    
C112  O47   A    
C49   C57   A    
C15   C32   A    
C63   O25   A    
C98   H20   S    
C45   C106  S    
C7    H29   S    
C16   C99   A    
C28   C46   A    
C86   C91   A    
C61   O27   A    
C41   H51   S    
Cr11  O48   S    
Cr4   O4    S    
C94   H11   S    
C105  O31   A    
C18   O50   D    
C38   C42   S    
C48   C52   A    
C67   H67   S    
Cr6   O11   S    
C13   C46   A    
C117  O59   A    
C38   C99   S    
C20   O52   D    
C114  O45   A    
Cr11  O13   S    
C81   C98   S    
C94   C98   S    
C24   C99   A    
C115  O2    A    
C68   H45   S    
C92   C96   S    
C24   C42   S    
C3    O39   A    
C51   C56   A    
C43   C105  S    
C97   H24   S    
C74   C92   S    
Cr9   O46   S    
C61   O22   A    
C16   C34   A    
C37   H42   S    
Cr3   O33   S    
Cr4   O35   S    
Cr5   O12   S    
C39   C110  S    
C96   H22   S    
C115  O56   A    
C6    H30   S    
Cr10  O25   S    
C42   H48   S    
C60   H57   S    
C113  O43   A    
C20   C86   S    
C23   H64   S    
C70   C74   A    
C11   H34   S    
C18   C84   S    
C73   C78   A    
C98   H25   S    
C2    C40   S    
Cr5   O41   S    
C1    O18   A    
C95   H17   S    
C43   C110  A    
C62   O24   A    
C21   H62   S    
C97   H19   S    
C117  O4    A    
C75   C80   A    
C57   H53   S    
C85   C103  A    
C25   C34   S    
C63   O29   A    
C25   O57   D    
C27   C45   A    
C112  O42   A    
C49   C114  S    
C107  O33   A    
C72   C111  S    
C1    C16   S    
C36   H41   S    
C111  O41   A    
Cr8   O45   S    
Cr5   O15   S    
Cr4   O8    S    
C35   H40   S    
Cr12  O60   S    
Cr10  O11   S    
C95   H13   S    
C87   H5    S    
Cr9   O24   S    
C70   C87   A    
C13   C41   S    
Cr10  O58   S    
C9    H12   S    
C26   C43   A    
C37   H36   S    
C107  O23   A    
Cr4   O13   S    
C33   O19   A    
C70   C113  S    
C94   H16   S    
C108  O34   A    
C18   H59   S    
C71   C75   A    
C22   O54   D    
C22   C31   S    
C92   H14   S    
C28   C32   A    
C67   H2    S    
Cr7   O43   S    
C73   C91   A    
C55   O17   A    
C10   C11   S    
Cr12  O27   S    
Cr8   O22   S    
C6    C11   D    
C14   C77   A    
C95   C100  S    
C68   C69   S    
C109  O44   A    
C65   C67   S    
C36   C77   S    
C27   C31   A    
C4    C61   S    
C65   H66   S    
Cr3   O11   S    
C17   C83   S    
C6    C63   S    
C10   H23   S    
C35   C39   S    
Cr6   O42   S    
C118  O36   A    
C27   H32   S    
C65   H68   S    
C72   C90   A    
C78   C82   A    
C105  O1    A    
Cr3   O29   S    
Cr9   O56   S    
C36   C40   S    
C78   C95   S    
Cr10  O47   S    
Cr1   O36   S    
Cr2   O28   S    
C71   C112  S    
C118  O5    A    
Cr2   O10   S    
C8    C9    S    
Cr3   O7    S    
C40   H50   S    
Cr11  O21   S    
C119  O6    A    
C50   C54   A    
C66   C110  A    
C59   H55   S    
C92   H9    S    
C69   H56   S    
Cr7   O17   S    
C39   H49   S    
Cr6   O16   S    
C28   H33   S    
C48   C115  S    
C40   H46   S    
Cr5   O10   S    
C23   O55   D    
Cr12  O5    S    
C29   C47   A    
C101  C118  S    
C89   H6    S    
C69   H4    S    
Cr1   O9    S    
C74   C79   A    
C46   C107  S    
C119  O37   A    
Cr8   O44   S    
Cr11  O59   S    
C22   H63   S    
C51   C59   A    
C84   C89   A    
C3    O8    A    
Cr6   O38   S    
Cr12  O31   S    
C93   C97   S    
C20   H61   S    
C116  O3    A    
C116  O58   A    
C52   C53   A    
C75   C93   S    
C38   H37   S    
C14   C44   S    
C81   C103  A    
C109  O40   A    
C47   C108  S    
Cr7   O34   S    
C83   C101  A    
C12   C30   A    
C8    H1    S    
Cr6   O23   S    
C24   C47   A    
C82   C100  S    
C71   C89   A    
C41   H47   S    
Cr8   O9    S    
Cr7   O13   S    
Cr12  O9    S    
C23   C32   S    
C15   C33   S    
C39   H44   S    
C19   C85   S    
C76   C81   A    
C5    C8    D    
C85   C90   A    
C54   C56   A    
C48   C58   A    
C76   C94   S    
C17   H58   S    
Cr1   O40   S    
Cr2   O32   S    
C21   C30   S    
C19   H60   S    
C51   C116  S    
C35   C66   S    
C55   O21   A    
Cr10  O20   S    
C42   H52   S    
Cr1   O14   S    
C29   H35   S    
C4    C9    D    
C50   C60   A    
C79   C96   S    
Cr9   O19   S    
C2    C77   A    
C26   H31   S    
C64   O30   A    
C36   H39   S    
Cr11  O26   S    
C19   O51   D    
C38   H43   S    
C4    H28   S    
C12   C66   A    
Cr5   O37   S    
C68   H3    S    
C111  O46   A    
C62   O28   A    
C96   H18   S    
C29   C34   A    
C13   C88   A    
C17   O49   D    
C106  O32   A    
C5    C62   S    
C93   H15   S    
C113  O48   A    
C73   C109  S    
C37   C41   S    
C53   C67   S    
C7    C64   S    
C108  O35   A    
C12   C55   S    
C25   H65   S    
C2    C45   A    
C102  C119  S    
Cr1   O1    S    
C91   H8    S    
C93   H10   S    
C100  H26   S    
Cr2   O2    S    
C59   C60   A    
C54   C68   S    
C5    H27   S    
C56   C69   S    
C80   C102  A    
C1    O14   A    
C35   H38   S    
C82   C104  A    
C79   C101  A    
Cr9   O10   S    
C106  O12   A    
C114  O60   A    
C44   O16   A    
C33   O15   A    
Cr4   O30   S    
C52   C65   S    
C120  O38   A    
C15   C88   A    
C26   C30   A    
