data_mof_unit_pretest_496.cif
_audit_creation_date              2012-12-11T17:04:59-0500
_audit_creation_method            fapswitch 2.2
_symmetry_space_group_name_H-M    P1
_symmetry_Int_Tables_number       1
_space_group_crystal_system       triclinic
_cell_length_a                    17.430825
_cell_length_b                    24.278738
_cell_length_c                    15.065709
_cell_angle_alpha                 90.321387
_cell_angle_beta                  125.474186
_cell_angle_gamma                 89.829573
_cell_volume                      5192.21063211

loop_
_atom_site_label
_atom_site_type_symbol
_atom_type_description
_atom_site_fract_x
_atom_site_fract_y
_atom_site_fract_z
_atom_type_partial_charge
C1    C     C_R   0.849347 0.651645 0.906132 -0.058976
C2    C     C_R   0.946271 0.499711 0.639610 -0.069713
C3    C     C_R   0.769422 0.047617 0.268450 -0.005468
C4    C     C_R   0.814278 0.372102 0.911503 -0.076316
C5    C     C_R   0.185908 0.372347 0.088401 -0.077886
C6    C     C_R   0.314278 0.872102 0.911503 -0.076316
C7    C     C_R   0.685907 0.872347 0.088401 -0.077886
C8    C     C_R   0.937481 0.652805 0.087422 -0.087807
C9    C     C_R   0.062249 0.652799 0.913291 -0.061868
C10   C     C_R   0.437481 0.152805 0.087422 -0.087808
C11   C     C_R   0.562249 0.152800 0.913291 -0.061864
C12   C     C_R   0.874747 0.683249 0.994806 0.068089
C13   C     C_R   0.562347 0.003181 0.364382 -0.061076
C14   C     C_R   0.125473 0.683197 0.006215 0.059799
C15   C     C_R   0.374746 0.183249 0.994806 0.068089
C16   C     C_R   0.625473 0.183197 0.006215 0.059798
C17   C     C_R   0.446272 0.999711 0.639611 -0.069719
C18   C     C_R   0.674617 0.501542 0.692124 0.093156
C19   C     C_R   0.325354 0.501574 0.308354 0.090209
C20   C     C_R   0.174617 0.001542 0.692123 0.093158
C21   C     C_R   0.825354 0.001574 0.308354 0.090209
C22   C     C_3   0.507827 0.456336 0.556044 -0.279797
C23   C     C_3   0.492118 0.456463 0.443245 -0.273518
C24   C     C_3   0.007827 0.956336 0.556044 -0.279796
C25   C     C_R   0.151047 0.651651 0.094550 -0.055724
C26   C     C_3   0.992118 0.956462 0.443244 -0.273518
C27   C     C_3   0.432911 0.501986 0.517182 0.556776
C28   C     C_3   0.567090 0.502135 0.483242 0.558455
C29   C     C_3   0.932911 0.001986 0.517182 0.556775
C30   C     C_3   0.067090 0.002135 0.483241 0.558455
C31   C     C_3   0.418191 0.502270 0.406092 -0.042517
C32   C     C_3   0.581801 0.502162 0.594338 -0.040087
C33   C     C_3   0.918191 0.002270 0.406091 -0.042517
C34   C     C_3   0.081801 0.002162 0.594337 -0.040087
C35   C     C_3   0.492574 0.546971 0.445727 -0.145779
C36   C     C_R   0.349347 0.151645 0.906132 -0.058977
C37   C     C_3   0.507462 0.546851 0.555786 -0.145309
C38   C     C_3   0.992575 0.046971 0.445725 -0.145778
C39   C     C_3   0.007463 0.046851 0.555785 -0.145310
C40   C     C_R   0.778842 0.306346 0.109808 -0.011047
C41   C     C_R   0.223085 0.307024 0.890486 -0.019355
C42   C     C_R   0.278842 0.806346 0.109808 -0.011047
C43   C     C_R   0.723085 0.807024 0.890486 -0.019356
C44   C     C_R   0.747707 0.332371 0.011451 0.097052
C45   C     C_R   0.253621 0.333347 0.988848 0.098628
C46   C     C_R   0.247707 0.832371 0.011451 0.097052
C47   C     C_R   0.651046 0.151651 0.094550 -0.055725
C48   C     C_R   0.753621 0.833347 0.988848 0.098628
C49   C     C_R   0.655245 0.321068 0.919609 0.023474
C50   C     C_R   0.345714 0.322035 0.081243 0.022802
C51   C     C_R   0.155245 0.821068 0.919609 0.023474
C52   C     C_R   0.845714 0.822035 0.081243 0.022802
C53   C     C_R   0.902535 0.379325 0.092792 -0.109714
C54   C     C_R   0.098113 0.379685 0.907413 -0.110491
C55   C     C_R   0.402535 0.879325 0.092792 -0.109713
C56   C     C_R   0.598113 0.879685 0.907413 -0.110492
C57   C     C_R   0.108276 0.774416 0.921018 -0.196780
C58   C     C_R   0.816231 0.362122 0.003658 0.035669
C59   C     C_R   0.892408 0.774915 0.080347 -0.201564
C60   C     C_R   0.608276 0.274417 0.921018 -0.196780
C61   C     C_R   0.392408 0.274915 0.080347 -0.201564
C62   C     C_R   0.153527 0.740200 0.013281 0.043047
C63   C     C_R   0.847290 0.740408 0.987935 0.042883
C64   C     C_R   0.653527 0.240200 0.013282 0.043047
C65   C     C_R   0.347291 0.240408 0.987935 0.042882
C66   C     C_R   0.233279 0.760528 0.110636 0.008164
C67   C     C_R   0.768410 0.760769 0.890116 0.006276
C68   C     C_R   0.733280 0.260528 0.110636 0.008165
C69   C     C_R   0.184491 0.362740 0.996452 0.037965
C70   C     C_R   0.268410 0.260769 0.890116 0.006275
C71   C     C_3   0.324283 0.734173 0.200451 0.749585
C72   C     C_3   0.677354 0.734524 0.799502 0.751927
C73   C     C_3   0.824284 0.234173 0.200450 0.749585
C74   C     C_3   0.177354 0.234524 0.799502 0.751927
C75   C     C_3   0.873921 0.284753 0.199502 -0.503640
C76   C     C_3   0.128035 0.285584 0.799861 -0.502847
C77   C     C_3   0.373920 0.784754 0.199503 -0.503641
C78   C     C_3   0.628035 0.785583 0.799861 -0.502846
C79   C     C_R   0.937782 0.537430 0.486512 0.224671
C80   C     C_R   0.316231 0.862122 0.003658 0.035669
C81   C     C_R   0.972464 0.541345 0.425652 0.174604
C82   C     C_R   0.437782 0.037430 0.486512 0.224673
C83   C     C_R   0.472464 0.041345 0.425652 0.174604
C84   C     C_R   0.974334 0.498432 0.567909 0.050604
C85   C     C_R   0.045599 0.507008 0.446123 0.053876
C86   C     C_R   0.474335 0.998432 0.567909 0.050607
C87   C     C_R   0.545599 0.007008 0.446123 0.053875
C88   C     C_R   0.055471 0.468356 0.598223 -0.197822
C89   C     C_R   0.091118 0.472540 0.536682 -0.035095
C90   C     C_R   0.555472 0.968356 0.598223 -0.197820
C91   C     C_R   0.684491 0.862740 0.996452 0.037965
C92   C     C_R   0.591119 0.972540 0.536682 -0.035095
C93   C     C_3   0.876525 0.549705 0.322329 -0.567957
C94   C     C_3   0.838274 0.544981 0.390171 -0.315545
C95   C     C_3   0.376525 0.049704 0.322329 -0.567953
C96   C     C_3   0.338274 0.044980 0.390171 -0.315547
C97   C     C_R   0.049030 0.547532 0.301904 0.402913
C98   C     C_R   0.957293 0.545853 0.699682 0.408750
C99   C     C_R   0.549030 0.047532 0.301904 0.402913
C100  C     C_R   0.457294 0.045853 0.699682 0.408752
C101  C     C_R   0.730265 0.455168 0.726228 -0.075206
C102  C     C_R   0.062346 0.503181 0.364382 -0.061077
C103  C     C_R   0.269663 0.455244 0.274154 -0.077337
C104  C     C_R   0.230265 0.955168 0.726228 -0.075206
C105  C     C_R   0.769663 0.955244 0.274154 -0.077337
C106  C     C_R   0.049755 0.456420 0.304897 0.352247
C107  C     C_R   0.953144 0.454724 0.697739 0.361853
C108  C     C_R   0.549756 0.956420 0.304897 0.352247
C109  C     C_R   0.453144 0.954724 0.697739 0.361854
C110  C     C_R   0.730604 0.547590 0.731885 -0.014101
C111  C     C_R   0.269422 0.547617 0.268450 -0.005468
C112  C     C_R   0.230604 0.047590 0.731885 -0.014105
Cl1   Cl    Cl    0.357639 0.673433 0.162524 -0.632989
Cl2   Cl    Cl    0.922031 0.612687 0.647462 -0.654858
Cl3   Cl    Cl    0.592059 0.113832 0.353846 -0.620317
Cl4   Cl    Cl    0.422036 0.112687 0.647463 -0.654859
Cl5   Cl    Cl    0.094571 0.390945 0.360921 -0.625311
Cl6   Cl    Cl    0.905774 0.389646 0.640186 -0.592433
Cl7   Cl    Cl    0.594572 0.890945 0.360921 -0.625311
Cl8   Cl    Cl    0.405774 0.889645 0.640187 -0.592434
Cl9   Cl    Cl    0.341937 0.502056 0.537836 -0.595085
Cl10  Cl    Cl    0.658067 0.502444 0.462592 -0.620120
Cl11  Cl    Cl    0.841937 0.002057 0.537835 -0.595085
Cl12  Cl    Cl    0.642636 0.674523 0.836715 -0.636073
Cl13  Cl    Cl    0.158067 0.002444 0.462591 -0.620122
Cl14  Cl    Cl    0.857638 0.173432 0.162523 -0.632989
Cl15  Cl    Cl    0.142636 0.174523 0.836714 -0.636071
Cl16  Cl    Cl    0.335073 0.727584 0.325419 -0.605015
Cl17  Cl    Cl    0.667406 0.726901 0.675048 -0.616513
Cl18  Cl    Cl    0.835075 0.227583 0.325419 -0.605016
Cl19  Cl    Cl    0.167406 0.226901 0.675048 -0.616513
Cl20  Cl    Cl    0.092059 0.613832 0.353846 -0.620318
H1    H     H_    0.816278 0.665546 0.823793 0.156542
H2    H     H_    0.958781 0.763087 0.154553 0.147397
H3    H     H_    0.541396 0.262681 0.847175 0.146050
H4    H     H_    0.458780 0.263087 0.154553 0.147397
H5    H     H_    0.920354 0.276362 0.172694 0.231085
H6    H     H_    0.080701 0.277776 0.825481 0.233242
H7    H     H_    0.420354 0.776363 0.172695 0.231086
H8    H     H_    0.580701 0.777776 0.825482 0.233242
H9    H     H_    0.907070 0.310320 0.274687 0.247230
H10   H     H_    0.095891 0.310878 0.724929 0.241896
H11   H     H_    0.407069 0.810321 0.274687 0.247230
H12   H     H_    0.184862 0.665613 0.177273 0.159227
H13   H     H_    0.595891 0.810877 0.724929 0.241896
H14   H     H_    0.090391 0.441384 0.668338 0.151128
H15   H     H_    0.150523 0.447430 0.556566 0.207268
H16   H     H_    0.590391 0.941383 0.668339 0.151128
H17   H     H_    0.650524 0.947430 0.556567 0.207267
H18   H     H_    0.854436 0.515244 0.263182 0.204244
H19   H     H_    0.807330 0.584033 0.394863 0.243884
H20   H     H_    0.354436 0.015243 0.263182 0.204243
H21   H     H_    0.307329 0.084033 0.394863 0.243884
H22   H     H_    0.925035 0.380135 0.175779 0.160551
H23   H     H_    0.316278 0.165546 0.823793 0.156541
H24   H     H_    0.076160 0.380499 0.824692 0.150182
H25   H     H_    0.425035 0.880135 0.175778 0.160551
H26   H     H_    0.576160 0.880499 0.824692 0.150182
H27   H     H_    0.868082 0.591552 0.288156 0.242980
H28   H     H_    0.794330 0.507634 0.371137 0.229656
H29   H     H_    0.368082 0.091552 0.288156 0.242980
H30   H     H_    0.294330 0.007634 0.371136 0.229656
H31   H     H_    0.708404 0.414071 0.693108 0.127778
H32   H     H_    0.291410 0.414296 0.307406 0.127571
H33   H     H_    0.208404 0.914071 0.693107 0.127778
H34   H     H_    0.684862 0.165613 0.177273 0.159227
H35   H     H_    0.791410 0.914296 0.307405 0.127571
H36   H     H_    0.710632 0.590098 0.709542 0.145380
H37   H     H_    0.289397 0.590188 0.290828 0.145518
H38   H     H_    0.210632 0.090098 0.709542 0.145380
H39   H     H_    0.789397 0.090188 0.290828 0.145519
H40   H     H_    0.760381 0.359674 0.829310 0.112713
H41   H     H_    0.239594 0.359869 0.170387 0.110981
H42   H     H_    0.260381 0.859674 0.829310 0.112713
H43   H     H_    0.739594 0.859869 0.170387 0.110981
H44   H     H_    0.980485 0.668669 0.169371 0.168353
H45   H     H_    0.515873 0.419575 0.604266 0.168397
H46   H     H_    0.018453 0.668813 0.831852 0.169833
H47   H     H_    0.480485 0.168669 0.169371 0.168353
H48   H     H_    0.518452 0.168813 0.831853 0.169833
H49   H     H_    0.551977 0.613251 0.426259 0.201901
H50   H     H_    0.443231 0.624148 0.391328 0.189903
H51   H     H_    0.448074 0.612930 0.576948 0.206937
H52   H     H_    0.556681 0.624025 0.611775 0.189881
H53   H     H_    0.051977 0.113251 0.426258 0.201900
H54   H     H_    0.943231 0.124148 0.391326 0.189904
H55   H     H_    0.948074 0.112931 0.576947 0.206938
H56   H     H_    0.484046 0.419804 0.394124 0.168117
H57   H     H_    0.056682 0.124025 0.611774 0.189881
H58   H     H_    0.595185 0.328081 0.758329 0.122872
H59   H     H_    0.548862 0.369431 0.806386 0.147763
H60   H     H_    0.404797 0.329853 0.242310 0.118989
H61   H     H_    0.452133 0.370458 0.195199 0.149795
H62   H     H_    0.095185 0.828081 0.758329 0.122872
H63   H     H_    0.048861 0.869431 0.806385 0.147763
H64   H     H_    0.904796 0.829854 0.242310 0.118989
H65   H     H_    0.952133 0.870458 0.195199 0.149795
H66   H     H_    0.015873 0.919575 0.604265 0.168396
H67   H     H_    0.984046 0.919804 0.394124 0.168117
H68   H     H_    0.041396 0.762681 0.847174 0.146050
N1    N     N_R   0.892620 0.603790 0.941770 -0.059232
N2    N     N_R   0.973690 0.529110 0.793240 -0.113092
N3    N     N_R   0.526310 0.029110 0.206760 -0.119500
N4    N     N_R   0.473690 0.029110 0.793240 -0.113092
N5    N     N_R   0.818570 0.472310 0.793020 -0.049367
N6    N     N_R   0.181430 0.472310 0.206980 -0.049164
N7    N     N_R   0.318570 0.972310 0.793020 -0.049367
N8    N     N_R   0.681430 0.972310 0.206980 -0.049164
N9    N     N_R   0.026930 0.472300 0.207330 -0.117175
N10   N     N_R   0.973070 0.472300 0.792670 -0.120945
N11   N     N_R   0.526930 0.972300 0.207330 -0.117175
N12   N     N_R   0.107380 0.603790 0.058230 -0.059090
N13   N     N_R   0.473070 0.972300 0.792670 -0.120945
N14   N     N_R   0.817960 0.529130 0.792460 -0.056667
N15   N     N_R   0.182040 0.529130 0.207540 -0.056029
N16   N     N_R   0.317960 0.029130 0.792460 -0.056667
N17   N     N_R   0.682040 0.029130 0.207540 -0.056029
N18   N     N_R   0.894850 0.397640 0.943830 -0.047530
N19   N     N_R   0.105150 0.397640 0.056170 -0.046778
N20   N     N_R   0.394850 0.897640 0.943830 -0.047530
N21   N     N_R   0.605150 0.897640 0.056170 -0.046778
N22   N     N_R   0.950040 0.603780 0.055950 -0.052821
N23   N     N_R   0.392620 0.103790 0.941770 -0.059232
N24   N     N_R   0.049960 0.603780 0.944050 -0.053427
N25   N     N_R   0.450040 0.103780 0.055950 -0.052821
N26   N     N_R   0.549960 0.103780 0.944050 -0.053427
N27   N     N_3   0.484903 0.595687 0.385144 -0.134175
N28   N     N_3   0.515172 0.595449 0.617521 -0.131911
N29   N     N_3   0.984903 0.095687 0.385143 -0.134175
N30   N     N_3   0.015173 0.095450 0.617520 -0.131911
N31   N     N_3   0.611965 0.353839 0.823174 -0.221850
N32   N     N_3   0.388676 0.355230 0.177726 -0.221365
N33   N     N_3   0.111965 0.853839 0.823174 -0.221850
N34   N     N_R   0.607380 0.103790 0.058230 -0.059090
N35   N     N_3   0.888676 0.855230 0.177726 -0.221365
N36   N     N_R   0.952270 0.397640 0.058010 -0.038521
N37   N     N_R   0.047730 0.397640 0.941990 -0.038554
N38   N     N_R   0.452270 0.897640 0.058010 -0.038521
N39   N     N_R   0.547730 0.897640 0.941990 -0.038554
N40   N     N_R   0.026310 0.529110 0.206760 -0.119500
Ni1   Ni    Ni4+2 0.934160 0.565860 0.869070 0.266214
Ni2   Ni    Ni4+2 0.065840 0.565860 0.130930 0.266209
Ni3   Ni    Ni4+2 0.434160 0.065860 0.869070 0.266213
Ni4   Ni    Ni4+2 0.565840 0.065860 0.130930 0.266209
Ni5   Ni    Ni4+2 0.067260 0.435560 0.132230 0.286849
Ni6   Ni    Ni4+2 0.932740 0.435560 0.867770 0.288257
Ni7   Ni    Ni4+2 0.567260 0.935560 0.132230 0.286849
Ni8   Ni    Ni4+2 0.432740 0.935560 0.867770 0.288257

loop_
_geom_bond_atom_site_label_1
_geom_bond_atom_site_label_2
_ccdc_geom_bond_type
N6    N15   A    
C44   C49   A    
C83   C87   A    
C13   C99   A    
C93   C94   S    
N9    Ni5   S    
N13   Ni8   S    
C57   H68   S    
C100  N4    A    
C56   N39   A    
C2    C84   S    
C95   C96   S    
C100  Cl4   S    
C103  N6    A    
C30   C34   S    
C19   C31   S    
N7    Ni8   S    
C108  N11   A    
H65   N35   S    
C55   H25   S    
C57   C62   A    
C107  N10   A    
C5    N19   A    
H49   N27   S    
C43   C78   S    
C30   C38   S    
C103  H32   S    
C49   C60   A    
C22   C32   S    
N21   N39   A    
N14   Ni1   S    
C35   N27   S    
C10   H47   S    
C64   C68   A    
C76   H6    S    
C110  N14   A    
C111  N15   A    
C67   C72   S    
C90   H16   S    
C10   C15   A    
C95   H29   S    
C54   H24   S    
C38   C39   S    
C7    N21   A    
C28   Cl10  S    
H50   N27   S    
C98   Cl2   S    
C21   C33   S    
C73   Cl14  S    
C15   C65   S    
C29   C33   S    
C2    C107  A    
N1    Ni1   S    
C71   Cl1   S    
H60   N32   S    
H58   N31   S    
C42   C46   A    
C104  N7    A    
N11   Ni7   S    
C93   H27   S    
C76   H10   S    
C24   C29   S    
C72   C78   S    
C75   H9    S    
C78   H13   S    
C104  H33   S    
C20   C112  A    
H55   N30   S    
C19   C103  A    
C37   N28   S    
C112  H38   S    
C74   Cl15  S    
C28   C35   S    
C44   C58   S    
C48   C91   S    
C7    H43   S    
N38   Ni7   S    
C70   C74   S    
C10   N25   A    
C56   H26   S    
C36   H23   S    
N19   Ni5   S    
C50   N32   S    
C51   C57   A    
C43   C48   A    
C107  Cl6   S    
C97   C102  A    
C3    N17   A    
C47   N34   A    
C20   C34   S    
C81   C85   A    
N16   Ni3   S    
N20   Ni8   S    
C30   Cl13  S    
C24   H66   S    
C53   H22   S    
C55   N38   A    
C74   Cl19  S    
C72   Cl12  S    
C73   C75   S    
C108  Cl7   S    
C29   C39   S    
C93   H18   S    
C1    C12   A    
C110  H36   S    
N1    N22   A    
N2    N10   A    
C13   C108  A    
C1    H1    S    
C101  N5    A    
C16   C47   A    
C36   N23   A    
C61   H4    S    
C60   C64   A    
C38   N29   S    
H53   N29   S    
C56   C91   A    
C27   Cl9   S    
N23   N25   A    
C63   C67   A    
C82   C96   S    
C62   C66   A    
C45   C69   S    
C34   C39   S    
C84   C88   A    
C28   C32   S    
N6    Ni5   S    
C54   N37   A    
C39   N30   S    
N5    Ni6   S    
C86   C90   A    
N23   Ni3   S    
H54   N29   S    
C12   C63   S    
C85   C89   A    
N3    Ni4   S    
N21   Ni7   S    
C68   C73   S    
C82   C86   A    
N2    Ni1   S    
C27   C31   S    
C46   C51   A    
C24   C34   S    
C105  H35   S    
C17   C109  A    
N39   Ni8   S    
N25   Ni4   S    
C18   C101  A    
C23   C31   S    
C49   N31   S    
C25   N12   A    
N12   Ni2   S    
C9    C14   A    
C77   H11   S    
C66   C71   S    
C52   C59   A    
C16   C64   S    
C81   C93   S    
C11   C16   A    
C26   C33   S    
C90   C92   A    
C96   H21   S    
C60   H3    S    
C40   C44   A    
C8    C12   A    
N9    N40   A    
C83   C95   S    
C29   Cl11  S    
C13   C87   S    
N40   Ni2   S    
C32   C37   S    
C26   H67   S    
C53   N36   A    
C74   C76   S    
C79   C94   S    
C6    N20   A    
C23   H56   S    
C43   C67   A    
C95   H20   S    
N5    N14   A    
C26   C30   S    
C4    N18   A    
C17   C86   S    
C88   H14   S    
C106  Cl5   S    
C75   H5    S    
C6    C80   A    
C31   C35   S    
C71   Cl16  S    
C3    C21   A    
C25   H12   S    
C23   C28   S    
N10   Ni6   S    
H62   N33   S    
C4    C58   A    
N18   Ni6   S    
C15   C36   A    
C71   C77   S    
N4    Ni3   S    
C8    N22   A    
C105  N8    A    
C79   C81   A    
N12   N24   A    
C72   Cl17  S    
N8    N17   A    
C89   H15   S    
C97   N40   A    
C73   Cl18  S    
N15   Ni2   S    
C94   H28   S    
C4    H40   S    
C35   C37   S    
C5    H41   S    
N36   Ni5   S    
C98   N2    A    
C18   C110  A    
C97   Cl20  S    
C24   C26   S    
C78   H8    S    
H51   N28   S    
C53   C58   A    
C8    H44   S    
C20   C104  A    
H64   N35   S    
C19   C111  A    
N20   N38   A    
C6    H42   S    
C1    N1    A    
C59   H2    S    
C59   C63   A    
C33   C38   S    
N26   N34   A    
C40   C75   S    
C51   N33   S    
C22   C27   S    
N19   N37   A    
C47   H34   S    
H57   N30   S    
C94   H19   S    
N8    Ni7   S    
N18   N36   A    
N22   Ni2   S    
C41   C45   A    
C7    C91   A    
C99   Cl3   S    
C55   C80   A    
C106  N9    A    
C9    N24   A    
C3    H39   S    
N26   Ni3   S    
C79   C84   A    
C54   C69   A    
C45   C50   A    
C27   C37   S    
C11   N26   A    
N4    N13   A    
C101  H31   S    
N7    N16   A    
N3    N11   A    
C96   H30   S    
N37   Ni6   S    
C102  C106  A    
C112  N16   A    
C14   C25   A    
N24   Ni1   S    
C17   C100  A    
C111  H37   S    
N17   Ni4   S    
C109  Cl8   S    
C85   C102  S    
C109  N13   A    
C61   C65   A    
C48   C52   A    
C18   C32   S    
C88   C89   A    
C2    C98   A    
C42   C77   S    
H59   N31   S    
C82   C83   A    
C40   C68   A    
C99   N3    A    
C92   H17   S    
C42   C66   A    
C50   C61   A    
H52   N28   S    
C22   C23   S    
H63   N33   S    
C11   H48   S    
C46   C80   S    
H61   N32   S    
C22   H45   S    
C87   C92   A    
C5    C69   A    
C77   H7    S    
C21   C105  A    
C9    H46   S    
C65   C70   A    
C52   N35   S    
N34   Ni4   S    
C41   C70   A    
C41   C76   S    
C14   C62   S    
