data_mof_unit_pretest_1042.cif
_audit_creation_date              2012-12-11T15:29:20-0500
_audit_creation_method            fapswitch 2.2
_symmetry_space_group_name_H-M    P1
_symmetry_Int_Tables_number       1
_space_group_crystal_system       triclinic
_cell_length_a                    13.493614
_cell_length_b                    13.495915
_cell_length_c                    27.57426
_cell_angle_alpha                 90.701221
_cell_angle_beta                  90.231415
_cell_angle_gamma                 60.056374
_cell_volume                      4350.8867155

loop_
_atom_site_label
_atom_site_type_symbol
_atom_type_description
_atom_site_fract_x
_atom_site_fract_y
_atom_site_fract_z
_atom_type_partial_charge
C1    C     C_R   0.620807 0.101500 0.569655 0.546027
C2    C     C_1   0.631035 0.732377 0.616012 -0.015487
C3    C     C_3   0.685992 0.566171 0.767259 -0.103824
C4    C     C_3   0.678670 0.655430 0.804507 0.053401
C5    C     C_3   0.580974 0.661808 0.740792 -0.099019
C6    C     C_3   0.662243 0.684409 0.710122 0.052689
C7    C     C_3   0.573829 0.750636 0.778769 -0.099899
C8    C     C_3   0.654897 0.773721 0.747334 -0.100397
C9    C     C_1   0.687724 0.634178 0.856679 -0.056882
C10   C     C_1   0.648871 0.705524 0.657963 -0.059235
C11   C     C_3   0.092853 0.129177 0.736628 -0.131365
C12   C     C_R   0.599761 0.779367 0.568470 0.545449
C13   C     C_3   0.184755 0.056799 0.775143 -0.124987
C14   C     C_1   0.096563 0.199486 0.900396 -0.003069
C15   C     C_1   0.230627 0.137643 0.617183 -0.012219
C16   C     C_3   0.053187 0.238532 0.768517 -0.110697
C17   C     C_3   0.145989 0.165838 0.806170 0.017961
C18   C     C_3   0.142004 0.259951 0.743139 0.168048
C19   C     C_3   0.180387 0.153151 0.711399 0.046165
C20   C     C_3   0.232969 0.189245 0.780749 0.043539
C21   C     C_3   0.272970 0.080428 0.749143 -0.130329
C22   C     C_1   0.123482 0.179416 0.858364 -0.048967
C23   C     C_R   0.278024 0.121632 0.569415 0.545655
C24   C     C_1   0.203137 0.146263 0.659202 -0.048696
C25   C     C_3   0.667873 0.264691 0.737028 -0.114438
C26   C     C_3   0.574334 0.278872 0.773477 -0.079832
C27   C     C_1   0.693015 0.207705 0.900736 -0.005515
C28   C     C_1   0.638141 0.134730 0.617026 -0.014125
C29   C     C_3   0.761117 0.173667 0.770187 -0.111721
C30   C     C_3   0.667341 0.187546 0.805801 0.058825
C31   C     C_3   0.750447 0.077901 0.743394 -0.108303
C32   C     C_3   0.657426 0.169096 0.711067 0.042801
C33   C     C_3   0.656967 0.092008 0.779721 -0.092389
C34   C     C_R   0.621741 0.100154 0.431506 0.544307
C35   C     C_3   0.563820 0.182985 0.746617 -0.078036
C36   C     C_1   0.677392 0.197548 0.858346 -0.038680
C37   C     C_1   0.648797 0.154125 0.658869 -0.057152
C38   C     C_R   0.640459 0.718691 0.383760 0.022991
C39   C     C_R   0.730951 0.721381 0.360057 -0.125710
C40   C     C_R   0.745684 0.701330 0.310571 -0.121773
C41   C     C_R   0.671904 0.675681 0.284502 0.037461
C42   C     C_R   0.589462 0.660815 0.308995 -0.122010
C43   C     C_R   0.573558 0.682498 0.358495 -0.129312
C44   C     C_R   0.579539 0.713768 0.203548 -0.125709
C45   C     C_R   0.601994 0.776253 0.430646 0.541213
C46   C     C_R   0.586514 0.693812 0.153639 -0.020968
C47   C     C_R   0.794278 0.590870 0.159884 -0.138423
C48   C     C_R   0.786522 0.609496 0.209384 -0.128335
C49   C     C_R   0.679342 0.666884 0.231708 0.019553
C50   C     C_R   0.694947 0.626623 0.131946 0.008507
C51   C     C_R   0.226879 0.136080 0.383123 0.023198
C52   C     C_R   0.253411 0.039270 0.354429 -0.119327
C53   C     C_R   0.230936 0.050339 0.305114 -0.108232
C54   C     C_R   0.178934 0.158645 0.283923 0.039064
C55   C     C_R   0.144225 0.256329 0.313326 -0.116778
C56   C     C_R   0.279142 0.119864 0.430933 0.540546
C57   C     C_R   0.169095 0.245020 0.362622 -0.128088
C58   C     C_R   0.175215 0.251999 0.205974 -0.122719
C59   C     C_R   0.146795 0.270632 0.157125 -0.129406
C60   C     C_R   0.102939 0.116811 0.157145 -0.111020
C61   C     C_R   0.129732 0.099371 0.205999 -0.111938
C62   C     C_R   0.162100 0.169498 0.231215 0.030897
C63   C     C_R   0.106052 0.206115 0.132935 0.023355
C64   C     C_R   0.640806 0.139488 0.385084 0.008240
C65   C     C_R   0.546529 0.223748 0.359692 -0.130581
C66   C     C_R   0.557338 0.243437 0.311332 -0.137713
C67   C     C_3   0.767069 0.589166 0.735791 -0.108008
C68   C     C_R   0.662799 0.180689 0.287658 0.017661
C69   C     C_R   0.760429 0.103347 0.314219 -0.001491
C70   C     C_R   0.748482 0.082477 0.362698 -0.131383
C71   C     C_R   0.715916 0.097928 0.204262 -0.098921
C72   C     C_R   0.726094 0.110687 0.154876 -0.120541
C73   C     C_R   0.626851 0.316884 0.166037 -0.124908
C74   C     C_R   0.618949 0.303920 0.215503 -0.123130
C75   C     C_R   0.666835 0.194250 0.235083 0.034197
C76   C     C_R   0.684420 0.220130 0.135751 0.023616
C77   C     C_R   0.049797 0.234683 0.948059 0.549385
C78   C     C_3   0.760042 0.678006 0.773883 -0.103567
C79   C     C_R   0.711916 0.561781 0.946410 0.547458
C80   C     C_R   0.722798 0.224243 0.948932 0.544743
C81   C     C_R   0.048313 0.243546 0.086215 0.544044
C82   C     C_R   0.709382 0.572398 0.084306 0.540997
C83   C     C_R   0.720116 0.233565 0.087570 0.540332
C84   C     C_1   0.696942 0.607631 0.898672 -0.012434
Cr1   Cr    Cr6+3 0.417550 0.169090 0.500530 1.024701
Cr2   Cr    Cr6+3 0.669180 0.913420 0.499920 1.022258
Cr3   Cr    Cr6+3 0.413260 0.917540 0.499520 1.023505
Cr4   Cr    Cr6+3 0.909770 0.175810 0.018240 1.034326
Cr5   Cr    Cr6+3 0.913300 0.427650 0.016090 1.027250
Cr6   Cr    Cr6+3 0.657770 0.431010 0.016900 1.046010
H1    H     H_    0.833220 0.685292 0.788140 0.100805
H2    H     H_    0.963162 0.303903 0.776794 0.099514
H3    H     H_    0.501610 0.361325 0.786456 0.126210
H4    H     H_    0.672692 0.335169 0.718904 0.103787
H5    H     H_    0.482883 0.186554 0.735630 0.129051
H6    H     H_    0.651961 0.021474 0.797703 0.111281
H7    H     H_    0.823146 0.995418 0.730417 0.107558
H8    H     H_    0.842612 0.169786 0.780508 0.106337
H9    H     H_    0.784391 0.748369 0.378770 0.133494
H10   H     H_    0.845601 0.522697 0.717319 0.104860
H11   H     H_    0.496362 0.763154 0.220667 0.108691
H12   H     H_    0.810305 0.712589 0.292368 0.106963
H13   H     H_    0.864563 0.573059 0.230458 0.108674
H14   H     H_    0.878901 0.539377 0.144376 0.143484
H15   H     H_    0.534530 0.636842 0.289549 0.103907
H16   H     H_    0.504224 0.678370 0.376206 0.127908
H17   H     H_    0.299396 0.953940 0.369233 0.135962
H18   H     H_    0.204072 0.304426 0.224314 0.104859
H19   H     H_    0.151046 0.339243 0.139070 0.129955
H20   H     H_    0.642036 0.859390 0.738438 0.102330
H21   H     H_    0.259398 0.973528 0.283320 0.108043
H22   H     H_    0.119237 0.034912 0.224448 0.142963
H23   H     H_    0.072125 0.065374 0.139363 0.145990
H24   H     H_    0.100516 0.341174 0.298024 0.103461
H25   H     H_    0.147632 0.320708 0.384230 0.123936
H26   H     H_    0.462330 0.269235 0.376098 0.138564
H27   H     H_    0.749189 0.012802 0.218635 0.120902
H28   H     H_    0.770512 0.035162 0.131998 0.127813
H29   H     H_    0.481698 0.303756 0.291703 0.111002
H30   H     H_    0.579492 0.379244 0.238742 0.109252
H31   H     H_    0.494658 0.817110 0.796906 0.107049
H32   H     H_    0.595283 0.402244 0.152178 0.139790
H33   H     H_    0.822216 0.018877 0.382395 0.130561
H34   H     H_    0.507626 0.654731 0.726588 0.107877
H35   H     H_    0.698938 0.480495 0.776189 0.100874
H36   H     H_    0.202342 0.972748 0.789082 0.116061
H37   H     H_    0.035365 0.104234 0.717989 0.110715
H38   H     H_    0.363166 0.015758 0.740734 0.103248
O1    O     O_R   0.301780 0.195490 0.553940 -0.504410
O2    O     O_R   0.658840 0.818280 0.449970 -0.504826
O3    O     O_R   0.503160 0.801780 0.445740 -0.523054
O4    O     O_R   0.319320 0.022190 0.450230 -0.504213
O5    O     O_3   0.499990 0.000010 0.499990 -0.245859
O6    O     O_R   0.819250 0.149410 0.965240 -0.507320
O7    O     O_R   0.006940 0.180310 0.968270 -0.494332
O8    O     O_R   0.028420 0.332670 0.963010 -0.502832
O9    O     O_R   0.810130 0.520390 0.966030 -0.495662
O10   O     O_R   0.636050 0.541380 0.962520 -0.500459
O11   O     O_R   0.666480 0.323610 0.968170 -0.491948
O12   O     O_R   0.522450 0.158840 0.550250 -0.492891
O13   O     O_R   0.817280 0.156800 0.072180 -0.515186
O14   O     O_R   0.005110 0.187160 0.067410 -0.500671
O15   O     O_R   0.026450 0.340060 0.069950 -0.522585
O16   O     O_R   0.808300 0.527240 0.065170 -0.508979
O17   O     O_R   0.634070 0.548770 0.069460 -0.500044
O18   O     O_R   0.664650 0.330470 0.067300 -0.502779
O19   O     O_3   0.826940 0.344820 0.017080 -0.253354
O20   O     O_R   0.694460 0.003360 0.553820 -0.507350
O21   O     O_R   0.657750 0.819520 0.549120 -0.494731
O22   O     O_R   0.501990 0.803120 0.552700 -0.506368
O23   O     O_R   0.318230 0.023430 0.549370 -0.494410
O24   O     O_R   0.302950 0.194150 0.446980 -0.520286
O25   O     O_R   0.523540 0.157600 0.451100 -0.504393
O26   O     O_R   0.695630 0.002030 0.446860 -0.519288
C85   C     C_1   0.309032 0.220118 0.806712 0.176630
N1    N     N_1   0.368351 0.244610 0.827630 -0.325927
N2    N     N_2   0.118213 0.369314 0.724255 -0.515040
H39   H     H_    0.065683 0.392957 0.694293 0.248194
C86   C     C_3   0.081915 0.460354 0.759938 -0.308700
H40   H     H_    0.060796 0.541347 0.741601 0.138407
H41   H     H_    0.151459 0.440831 0.786250 0.177680
H42   H     H_    0.004907 0.472592 0.779644 0.135388
C87   C     C_1   0.481858 0.740505 0.126018 0.208434
N3    N     N_1   0.397905 0.778063 0.103944 -0.294230
C88   C     C_1   0.873115 0.044130 0.292689 0.183844
N4    N     N_1   0.963467 0.996540 0.275510 -0.332865

loop_
_geom_bond_atom_site_label_1
_geom_bond_atom_site_label_2
_ccdc_geom_bond_type
C44   C49   A    
C58   C62   A    
C66   C68   A    
C88   N4    T    
C20   C85   S    
C41   C42   A    
Cr3   O5    S    
C87   N3    T    
C72   C76   A    
C2    C12   S    
Cr6   O11   S    
C7    C8    S    
C57   H25   S    
C53   C54   A    
C68   C75   S    
C65   H26   S    
C6    C67   S    
C5    H34   S    
C11   C19   S    
N2    H39   S    
C29   H8    S    
C63   C81   S    
C60   C63   A    
C19   C21   S    
C18   C19   S    
Cr6   O17   S    
C86   H40   S    
C79   C84   S    
C17   C20   S    
C80   O6    A    
C23   O1    A    
C51   C56   S    
C73   C74   A    
C14   C77   S    
Cr3   O3    S    
C38   C45   S    
Cr1   O1    S    
C68   C69   A    
C25   H4    S    
C70   H33   S    
C41   C49   S    
C47   C48   A    
C52   H17   S    
C16   C17   S    
Cr3   O22   S    
C1    C28   S    
C31   C33   S    
C51   C57   A    
C77   O8    A    
C64   C70   A    
C56   O24   A    
C18   C20   S    
C53   H21   S    
C26   H3    S    
C15   C23   S    
C45   O2    A    
N2    C86   S    
Cr5   O8    S    
Cr3   O23   S    
C8    C78   S    
C60   H23   S    
C69   C70   A    
C67   C78   S    
C7    H31   S    
C4    C7    S    
C76   C83   S    
Cr4   O14   S    
Cr6   O10   S    
C44   C46   A    
C47   C50   A    
C34   O26   A    
C25   C29   S    
C38   C39   A    
Cr6   O19   S    
C74   C75   A    
C71   H27   S    
C51   C52   A    
C32   C35   S    
C12   O22   A    
C82   O16   A    
C27   C80   S    
Cr2   O21   S    
C39   C40   A    
C5    C7    S    
Cr2   O2    S    
C6    C8    S    
C54   C62   S    
C58   C59   A    
Cr5   O15   S    
C48   H13   S    
C59   H19   S    
C60   C61   A    
C43   H16   S    
Cr3   O4    S    
C11   H37   S    
C4    C78   S    
C29   C30   S    
C8    H20   S    
C83   O18   A    
C11   C16   S    
Cr2   O5    S    
C39   H9    S    
C31   C32   S    
C34   C64   S    
C86   H42   S    
C13   C21   S    
Cr1   O25   S    
C32   C37   S    
C21   H38   S    
Cr1   O12   S    
C56   O4    A    
C1    O12   A    
C67   H10   S    
C13   H36   S    
C16   C18   S    
C40   C41   A    
C79   O9    A    
C45   O3    A    
Cr5   O9    S    
C46   C87   S    
C55   C57   A    
C27   C36   T    
C73   C76   A    
C42   C43   A    
C3    C4    S    
Cr5   O16   S    
C33   H6    S    
Cr4   O13   S    
C82   O17   A    
C52   C53   A    
C50   C82   S    
C83   O13   A    
C34   O25   A    
Cr5   O19   S    
C23   O23   A    
C54   C55   A    
C15   C24   T    
C47   H14   S    
C30   C33   S    
C12   O21   A    
C73   H32   S    
C3    C67   S    
Cr4   O7    S    
C3    C5    S    
Cr2   O20   S    
C6    C10   S    
C44   H11   S    
C3    H35   S    
C16   H2    S    
C55   H24   S    
C13   C17   S    
C78   H1    S    
C80   O11   A    
C74   H30   S    
C46   C50   A    
C59   C63   A    
C17   C22   S    
C30   C36   S    
C66   H29   S    
C64   C65   A    
C14   C22   T    
C86   H41   S    
C25   C26   S    
Cr1   O24   S    
Cr4   O6    S    
C38   C43   A    
Cr6   O18   S    
C18   N2    S    
C81   O14   A    
C71   C75   A    
C11   C13   S    
C5    C6    S    
C28   C37   T    
C25   C32   S    
C48   C49   A    
C33   C35   S    
Cr4   O19   S    
C19   C24   S    
C58   H18   S    
C31   H7    S    
Cr2   O26   S    
C61   C62   A    
C42   H15   S    
C69   C88   S    
C9    C84   T    
C40   H12   S    
C26   C35   S    
C81   O15   A    
C79   O10   A    
C71   C72   A    
C20   C21   S    
C29   C31   S    
C65   C66   A    
C72   H28   S    
C85   N1    T    
C1    O20   A    
C77   O7    A    
C4    C9    S    
C61   H22   S    
Cr1   O5    S    
C35   H5    S    
C26   C30   S    
C2    C10   T    
