data_mof_unit_pretest_1630.cif
_audit_creation_date              2012-12-10T20:43:47-0500
_audit_creation_method            fapswitch 2.2
_symmetry_space_group_name_H-M    P1
_symmetry_Int_Tables_number       1
_space_group_crystal_system       triclinic
_cell_length_a                    10.830308
_cell_length_b                    19.213869
_cell_length_c                    19.215389
_cell_angle_alpha                 94.668069
_cell_angle_beta                  92.109778
_cell_angle_gamma                 96.611578
_cell_volume                      3954.49345282

loop_
_atom_site_label
_atom_site_type_symbol
_atom_type_description
_atom_site_fract_x
_atom_site_fract_y
_atom_site_fract_z
_atom_type_partial_charge
C1    C     C_R   0.513413 0.690126 0.508133 0.502422
C2    C     C_R   0.520341 0.767027 0.510571 0.032155
C3    C     C_R   0.629564 0.806361 0.491791 -0.141661
C4    C     C_R   0.486521 0.309707 0.492081 0.520053
C5    C     C_R   0.636188 0.879146 0.491861 -0.105880
C6    C     C_R   0.480704 0.507340 0.765412 0.039692
C7    C     C_R   0.504075 0.448482 0.801244 0.210901
C8    C     C_R   0.504524 0.452809 0.873972 -0.051591
C9    C     C_R   0.481349 0.515297 0.912421 0.176206
C10   C     C_R   0.454632 0.572606 0.876563 -0.122085
C11   C     C_R   0.454192 0.568800 0.803742 -0.185063
C12   C     C_R   0.566550 0.201852 0.529595 -0.131828
C13   C     C_R   0.397486 0.482145 0.121007 0.029059
C14   C     C_R   0.398173 0.492648 0.194858 -0.054055
C15   C     C_R   0.511613 0.478153 0.088092 0.188675
C16   C     C_R   0.511887 0.493306 0.311104 0.549849
C17   C     C_R   0.511286 0.492044 0.234606 0.049386
C18   C     C_R   0.622751 0.485651 0.200538 0.195192
C19   C     C_R   0.621939 0.479097 0.127978 -0.075304
C20   C     C_R   0.486037 0.506036 0.688925 0.538605
C21   C     C_R   0.835245 0.515243 0.515256 0.499693
C22   C     C_R   0.163914 0.485084 0.485006 0.509695
C23   C     C_R   0.557107 0.129182 0.531165 -0.082192
C24   C     C_2   0.029037 0.479360 0.479021 -0.103143
C25   C     C_2   0.968552 0.520973 0.521067 -0.096355
C26   C     C_R   0.477646 0.232725 0.491388 0.032266
C27   C     C_3   0.278499 0.505193 0.230043 -0.362001
C28   C     C_3   0.275328 0.473236 0.078314 -0.349575
C29   C     C_R   0.457862 0.085818 0.494505 0.224846
C30   C     C_R   0.368261 0.116729 0.457252 -0.104790
C31   C     C_R   0.378525 0.189629 0.455007 -0.140360
C32   C     C_R   0.423894 0.874475 0.528698 -0.088490
C33   C     C_R   0.418041 0.801628 0.529974 -0.149871
C34   C     C_R   0.533179 0.913600 0.508757 0.226055
Cl1   Cl    Cl    0.765331 0.482665 0.246966 -0.591928
Cl2   Cl    Cl    0.527325 0.366828 0.757863 -0.562346
H1    H     H_    0.978647 0.441074 0.440217 0.128468
H2    H     H_    0.290909 0.084117 0.429368 0.127682
H3    H     H_    0.308041 0.212279 0.425750 0.143649
H4    H     H_    0.710154 0.780858 0.477320 0.141057
H5    H     H_    0.626652 0.107077 0.561649 0.145898
H6    H     H_    0.721229 0.908801 0.477446 0.126835
H7    H     H_    0.294105 0.527548 0.285077 0.141364
H8    H     H_    0.230829 0.544192 0.202956 0.140611
H9    H     H_    0.215845 0.455078 0.228524 0.161349
H10   H     H_    0.284204 0.451697 0.023687 0.173820
H11   H     H_    0.206686 0.435181 0.101204 0.133134
H12   H     H_    0.643511 0.233880 0.558457 0.155822
H13   H     H_    0.238124 0.524643 0.077536 0.141046
H14   H     H_    0.435086 0.620670 0.905292 0.139541
H15   H     H_    0.435397 0.614473 0.777403 0.143179
H16   H     H_    0.521962 0.406810 0.900099 0.176617
H17   H     H_    0.708172 0.474404 0.102081 0.164350
H18   H     H_    0.016631 0.559542 0.560307 0.123631
H19   H     H_    0.333016 0.772280 0.544814 0.135721
H20   H     H_    0.343771 0.900142 0.543622 0.140256
N1    N     N_2   0.444442 0.011492 0.495095 -0.242242
N2    N     N_2   0.544678 0.987614 0.507105 -0.246132
N3    N     N_2   0.480588 0.521851 0.986630 -0.231647
N4    N     N_2   0.517904 0.471289 0.014630 -0.253470
O1    O     O_3   0.500000 0.500000 0.500000 -0.455978
O2    O     O_R   0.783160 0.551820 0.473170 -0.516027
O3    O     O_R   0.222430 0.530340 0.530340 -0.540510
O4    O     O_R   0.771990 0.472690 0.551320 -0.531151
O5    O     O_R   0.222420 0.445150 0.445160 -0.536582
O6    O     O_R   0.435070 0.449940 0.339290 -0.547132
O7    O     O_R   0.419380 0.543640 0.654290 -0.553577
O8    O     O_R   0.586230 0.658380 0.469080 -0.546615
O9    O     O_R   0.559310 0.348040 0.537340 -0.520449
O10   O     O_R   0.435110 0.654980 0.544320 -0.547592
O11   O     O_R   0.419350 0.338590 0.449260 -0.542310
O12   O     O_R   0.586210 0.538520 0.349230 -0.490448
O13   O     O_R   0.559330 0.467910 0.657200 -0.479058
Zn1   Zn    Zn3+2 0.396020 0.434560 0.434560 0.955473
Zn2   Zn    Zn3+2 0.611960 0.561120 0.448760 0.977995
Zn3   Zn    Zn3+2 0.595990 0.448060 0.560420 1.000051
Zn4   Zn    Zn3+2 0.396040 0.556260 0.556260 0.937137

loop_
_geom_bond_atom_site_label_1
_geom_bond_atom_site_label_2
_ccdc_geom_bond_type
C33   H19   S    
C5    H6    S    
C28   H11   S    
C7    Cl2   S    
C20   O7    A    
C16   O12   A    
C12   H12   S    
C7    C8    A    
O1    Zn2   S    
O8    Zn2   S    
C15   C19   A    
C12   C23   A    
C28   H10   S    
C23   C29   A    
C18   C19   A    
O3    Zn4   S    
C30   C31   A    
O6    Zn1   S    
C1    O8    A    
C30   H2    S    
O9    Zn3   S    
C1    C2    S    
C15   N4    S    
C21   O4    A    
C22   O3    A    
C27   H8    S    
O1    Zn4   S    
C8    C9    A    
O7    Zn4   S    
C13   C28   S    
C14   C27   S    
C18   Cl1   S    
C8    H16   S    
C27   H9    S    
N3    N4    D    
C13   C14   A    
O10   Zn4   S    
C14   C17   A    
O12   Zn2   S    
C4    O9    A    
C24   H1    S    
O1    Zn3   S    
C24   C25   D    
C6    C11   A    
C16   C17   S    
O5    Zn1   S    
C12   C26   A    
C9    N3    S    
C32   C34   A    
C22   O5    A    
C29   C30   A    
C28   H13   S    
C5    C34   A    
C17   C18   A    
O4    Zn3   S    
C25   H18   S    
C21   O2    A    
C2    C33   A    
C29   N1    S    
C3    H4    S    
C13   C15   A    
O13   Zn3   S    
C22   C24   S    
O2    Zn2   S    
C16   O6    A    
C10   H14   S    
C9    C10   A    
C21   C25   S    
C3    C5    A    
O11   Zn1   S    
C4    C26   S    
C6    C7    A    
O1    Zn1   S    
C6    C20   S    
C1    O10   A    
C23   H5    S    
C32   C33   A    
C2    C3    A    
C19   H17   S    
N1    N2    D    
C31   H3    S    
C20   O13   A    
C11   H15   S    
C10   C11   A    
C27   H7    S    
C26   C31   A    
C34   N2    S    
C32   H20   S    
C4    O11   A    
