data_mof_unit_pretest_1025.cif
_audit_creation_date              2012-12-10T19:07:03-0500
_audit_creation_method            fapswitch 2.2
_symmetry_space_group_name_H-M    P1
_symmetry_Int_Tables_number       1
_space_group_crystal_system       triclinic
_cell_length_a                    27.802579
_cell_length_b                    10.841426
_cell_length_c                    9.534168
_cell_angle_alpha                 90.056956
_cell_angle_beta                  89.937596
_cell_angle_gamma                 90.240722
_cell_volume                      2873.75665702

loop_
_atom_site_label
_atom_site_type_symbol
_atom_type_description
_atom_site_fract_x
_atom_site_fract_y
_atom_site_fract_z
_atom_type_partial_charge
C1    C     C_R   0.500030 0.262733 0.499789 0.805647
C2    C     C_R   0.278669 0.506264 0.373995 -0.102976
C3    C     C_R   0.253513 0.501520 0.501189 0.356629
C4    C     C_R   0.101803 0.503644 0.506842 -0.096017
C5    C     C_R   0.127339 0.395391 0.539829 0.002544
C6    C     C_R   0.102213 0.287726 0.574772 -0.155192
C7    C     C_R   0.127328 0.611884 0.468946 -0.062368
C8    C     C_R   0.354448 0.500205 0.500336 -0.039292
C9    C     C_R   0.645414 0.497269 0.502278 -0.063983
C10   C     C_R   0.974615 0.389404 0.529133 0.058654
C11   C     C_R   0.974488 0.616373 0.507897 0.016233
C12   C     C_R   0.407435 0.499961 0.500057 0.800161
C13   C     C_R   0.949263 0.502437 0.517818 0.022257
C14   C     C_R   0.948064 0.277846 0.529199 -0.210056
C15   C     C_R   0.898136 0.277734 0.523424 -0.149109
C16   C     C_R   0.872796 0.388678 0.518608 -0.014010
C17   C     C_R   0.898243 0.501326 0.516850 -0.052601
C18   C     C_R   0.872554 0.612705 0.513932 -0.058907
C19   C     C_R   0.822062 0.609607 0.511815 0.531440
C20   C     C_R   0.822329 0.389670 0.514823 0.575185
C21   C     C_R   0.719988 0.457735 0.628327 0.310593
C22   C     C_R   0.669669 0.456157 0.622499 -0.294427
C23   C     C_R   0.500232 0.737321 0.499901 0.814691
C24   C     C_R   0.672055 0.538035 0.386225 -0.224158
C25   C     C_R   0.722142 0.538179 0.390316 -0.159366
C26   C     C_R   0.746395 0.498459 0.510741 0.331642
C27   C     C_R   0.025542 0.391432 0.538575 0.059192
C28   C     C_R   0.050711 0.503017 0.511317 0.057729
C29   C     C_R   0.025168 0.613500 0.486707 0.003621
C30   C     C_R   0.052298 0.285360 0.573531 -0.214334
C31   C     C_R   0.101117 0.718232 0.430777 0.248003
C32   C     C_R   0.947796 0.728154 0.521472 0.238003
C33   C     C_R   0.897521 0.724659 0.518939 -0.214263
C34   C     C_R   0.592518 0.499211 0.500213 0.812941
C35   C     C_R   0.050921 0.716095 0.435506 -0.235754
C36   C     C_R   0.501761 0.062463 0.621089 0.100537
C37   C     C_R   0.500306 0.130221 0.498009 -0.121506
C38   C     C_R   0.499396 0.064521 0.370166 -0.200272
C39   C     C_R   0.499559 0.935279 0.370316 -0.206077
C40   C     C_R   0.500602 0.869946 0.498321 -0.091023
C41   C     C_R   0.501884 0.938130 0.621409 0.061343
C42   C     C_3   0.503151 0.928354 0.777554 -0.457807
C43   C     C_3   0.502861 0.070775 0.777768 0.072699
C44   C     C_R   0.524523 0.588992 0.073672 0.262323
C45   C     C_R   0.177702 0.397027 0.537456 0.528406
C46   C     C_R   0.472227 0.419467 0.074459 -0.079919
C47   C     C_R   0.472188 0.419554 0.925488 -0.102549
C48   C     C_R   0.524485 0.589093 0.926116 0.260737
C49   C     C_3   0.577239 0.613515 0.919929 -0.497565
C50   C     C_3   0.577324 0.612623 0.078772 -0.517148
C51   C     C_R   0.178184 0.608096 0.466743 0.548734
C52   C     C_R   0.278798 0.495943 0.627907 -0.106959
C53   C     C_R   0.328943 0.495400 0.627661 -0.217812
C54   C     C_R   0.328831 0.505484 0.373405 -0.216869
Cu1   Cu    Cu3+1 0.500000 0.499980 0.640670 0.937207
Cu2   Cu    Cu3+1 0.500000 0.500020 0.359330 0.943153
H1    H     H_    0.347484 0.509228 0.273714 0.158055
H2    H     H_    0.259514 0.492422 0.726574 0.137998
H3    H     H_    0.654300 0.571791 0.293285 0.154626
H4    H     H_    0.877957 0.810692 0.526182 0.188495
H5    H     H_    0.742269 0.569646 0.299756 0.153254
H6    H     H_    0.032605 0.795801 0.394501 0.182767
H7    H     H_    0.469562 0.886981 0.820288 0.172403
H8    H     H_    0.259284 0.510264 0.275668 0.139082
H9    H     H_    0.536819 0.885851 0.816577 0.200029
H10   H     H_    0.469400 0.110407 0.823008 0.105970
H11   H     H_    0.450520 0.352641 0.130398 0.139268
H12   H     H_    0.450453 0.352807 0.869518 0.136179
H13   H     H_    0.597810 0.535540 0.874477 0.216542
H14   H     H_    0.585792 0.705358 0.874574 0.192084
H15   H     H_    0.597491 0.533116 0.121967 0.216261
H16   H     H_    0.121077 0.204025 0.602627 0.176827
H17   H     H_    0.649595 0.423145 0.712442 0.146148
H18   H     H_    0.964989 0.188545 0.529129 0.135293
H19   H     H_    0.347671 0.491160 0.727069 0.157397
N1    N     N_R   0.201921 0.502260 0.501836 -0.474243
N2    N     N_R   0.798057 0.499165 0.512435 -0.456745
N3    N     N_R   0.500300 0.500930 0.147930 -0.184199
N4    N     N_R   0.500310 0.500890 0.852020 -0.185958
O1    O     O_R   0.500000 0.319640 0.618810 -0.587397
O2    O     O_2   0.797682 0.282162 0.512837 -0.533569
O3    O     O_2   0.203976 0.708835 0.430686 -0.501854
O4    O     O_2   0.797084 0.716098 0.510752 -0.541293
O5    O     O_R   0.500010 0.319680 0.381230 -0.585976
O6    O     O_R   0.430260 0.500000 0.618780 -0.584396
O7    O     O_R   0.430270 0.500040 0.381190 -0.584323
O8    O     O_R   0.499990 0.680320 0.618770 -0.576791
O9    O     O_R   0.500000 0.680360 0.381190 -0.587128
O10   O     O_R   0.569730 0.499960 0.618810 -0.585733
O11   O     O_R   0.569740 0.500000 0.381220 -0.581966
O12   O     O_2   0.202402 0.293857 0.569336 -0.545512
N5    N     N_2   0.124513 0.828342 0.385904 -0.373054
H20   H     H_    0.109287 0.866271 0.297312 0.241308
C55   C     C_3   0.130616 0.919008 0.496025 -0.583186
H21   H     H_    0.151732 0.998457 0.455336 0.238509
H22   H     H_    0.150402 0.878585 0.586046 0.246715
H23   H     H_    0.095029 0.952898 0.532460 0.192083
N6    N     N_2   0.970429 0.843553 0.550909 -0.453186
H24   H     H_    0.951172 0.919734 0.519118 0.244891
C56   C     C_3   0.988274 0.856112 0.692716 -0.681897
H25   H     H_    0.007446 0.945676 0.703636 0.216293
H26   H     H_    0.013967 0.781136 0.717736 0.245341
H27   H     H_    0.957881 0.853584 0.768493 0.232124
H28   H     H_    0.498424 0.112176 0.270412 0.167947
H29   H     H_    0.498699 0.887314 0.270624 0.165641
N7    N     N_2   0.546476 0.126414 0.835700 -0.406203
H30   H     H_    0.541263 0.215085 0.871641 0.262244
C57   C     C_3   0.591870 0.112185 0.762222 -0.615011
H31   H     H_    0.621627 0.144889 0.830522 0.214078
H32   H     H_    0.592030 0.168465 0.664918 0.217077
H33   H     H_    0.598584 0.014096 0.735728 0.229787
H34   H     H_    0.586105 0.703815 0.125823 0.197896
N8    N     N_2   0.743888 0.417255 0.751774 -0.410905
H35   H     H_    0.725447 0.349364 0.805575 0.254439
C58   C     C_3   0.759375 0.515964 0.843563 -0.671287
H36   H     H_    0.779206 0.476705 0.934039 0.229545
H37   H     H_    0.727720 0.567508 0.883694 0.220964
H38   H     H_    0.783843 0.580353 0.787539 0.250606
H39   H     H_    0.879453 0.189825 0.523081 0.183364
H40   H     H_    0.035583 0.199619 0.604302 0.134302

loop_
_geom_bond_atom_site_label_1
_geom_bond_atom_site_label_2
_ccdc_geom_bond_type
C10   C27   A    
Cu1   Cu2   S    
C41   C42   S    
C47   N4    A    
C21   C26   A    
C1    O5    A    
C6    H16   S    
C28   C29   A    
N7    C57   S    
C12   O6    A    
C45   N1    A    
C14   H18   S    
C48   N4    A    
C36   C37   A    
C24   H3    S    
C5    C6    A    
C9    C22   A    
Cu2   O9    S    
N7    H30   S    
C16   C20   A    
C15   C16   A    
Cu2   N3    S    
C57   H31   S    
C18   C19   A    
C19   N2    A    
C56   H25   S    
C38   H28   S    
C57   H32   S    
C16   C17   A    
C58   H37   S    
C23   C40   S    
C42   H9    S    
C1    C37   S    
Cu2   O11   S    
C49   H13   S    
C21   C22   A    
C27   C30   A    
C36   C41   A    
C53   H19   S    
C4    C7    A    
C19   O4    S    
C56   H26   S    
C4    C28   A    
C2    H8    S    
Cu2   O5    S    
C26   N2    S    
C7    C31   A    
C24   C25   A    
C21   N8    S    
C2    C54   A    
C8    C54   A    
C39   C40   A    
C46   N3    A    
C55   H23   S    
C25   C26   A    
C5    C45   A    
C56   H27   S    
C43   N7    S    
Cu1   O6    S    
C50   H15   S    
C34   O11   A    
C37   C38   A    
Cu1   N4    S    
Cu2   O7    S    
C8    C12   S    
C58   H38   S    
N5    C55   S    
C17   C18   A    
C25   H5    S    
C51   N1    A    
C55   H22   S    
C3    N1    S    
C51   O3    S    
C52   H2    S    
C20   N2    A    
C48   C49   S    
C6    C30   A    
C11   C32   A    
N6    H24   S    
C33   H4    S    
N6    C56   S    
C23   O9    A    
C10   C14   A    
C9    C34   S    
C49   C50   S    
C31   C35   A    
C42   C43   S    
C47   H12   S    
C52   C53   A    
N8    H35   S    
C44   C50   S    
C39   H29   S    
C46   C47   A    
C40   C41   A    
C4    C5    A    
C10   C13   A    
C8    C53   A    
C3    C52   A    
C9    C24   A    
C13   C17   A    
C29   C35   A    
C57   H33   S    
C12   O7    A    
C49   H14   S    
C32   C33   A    
C44   N3    A    
C2    C3    A    
C34   O10   A    
C7    C51   A    
C46   H11   S    
Cu1   O10   S    
Cu1   O1    S    
C11   C13   A    
C38   C39   A    
C30   H40   S    
C32   N6    S    
C43   H10   S    
N5    H20   S    
C15   H39   S    
C35   H6    S    
Cu1   O8    S    
C55   H21   S    
C45   O12   S    
C18   C33   A    
C44   C48   A    
C11   C29   A    
C31   N5    S    
C27   C28   A    
C1    O1    A    
C14   C15   A    
C36   C43   S    
C23   O8    A    
C22   H17   S    
C20   O2    S    
C50   H34   S    
C42   H7    S    
C58   H36   S    
N8    C58   S    
C54   H1    S    
