data_mof_unit_pretest_1995.cif
_audit_creation_date              2012-12-10T19:05:02-0500
_audit_creation_method            fapswitch 2.2
_symmetry_space_group_name_H-M    P1
_symmetry_Int_Tables_number       1
_space_group_crystal_system       triclinic
_cell_length_a                    13.069048
_cell_length_b                    13.638767
_cell_length_c                    15.766211
_cell_angle_alpha                 90.015454
_cell_angle_beta                  92.609961
_cell_angle_gamma                 85.734407
_cell_volume                      2799.55404691

loop_
_atom_site_label
_atom_site_type_symbol
_atom_type_description
_atom_site_fract_x
_atom_site_fract_y
_atom_site_fract_z
_atom_type_partial_charge
C1    C     C_R   0.481226 0.685075 0.499105 0.896693
C2    C     C_3   0.399205 0.553371 0.046878 -0.437473
C3    C     C_3   0.498686 0.495782 0.082620 0.125017
C4    C     C_3   0.503869 0.387870 0.049107 -0.267012
C5    C     C_3   0.504262 0.388610 0.950399 0.472474
C6    C     C_1   0.501290 0.497594 0.174185 -0.034813
C7    C     C_1   0.496860 0.497872 0.825724 0.038584
C8    C     C_1   0.497799 0.498967 0.750590 -0.116474
C9    C     C_1   0.533682 0.211886 0.501615 -0.144938
C10   C     C_2   0.544445 0.020878 0.502135 0.479251
C11   C     C_2   0.455541 0.979121 0.497836 0.481770
C12   C     C_R   0.499261 0.499964 0.661923 0.895568
C13   C     C_1   0.457495 0.875439 0.497941 0.031744
C14   C     C_1   0.542493 0.124560 0.502040 0.036581
C15   C     C_1   0.466312 0.788113 0.498376 -0.151066
C16   C     C_2   0.032854 0.475977 0.477226 -0.280814
C17   C     C_2   0.966175 0.528056 0.526882 -0.067606
C18   C     C_1   0.854503 0.519946 0.518350 0.135264
C19   C     C_1   0.145304 0.481450 0.483099 0.189070
C20   C     C_R   0.518773 0.314925 0.500896 0.904346
C21   C     C_R   0.500708 0.500009 0.338071 0.896642
C22   C     C_3   0.397104 0.554182 0.948510 -0.276112
C23   C     C_3   0.590495 0.548221 0.953743 0.382541
C24   C     C_3   0.592496 0.546524 0.051709 -0.464714
C25   C     C_1   0.501972 0.498948 0.249383 -0.161642
C26   C     C_3   0.496134 0.496531 0.917227 0.036154
H1    H     H_    0.396452 0.630522 0.070324 0.185605
H2    H     H_    0.330578 0.520680 0.071237 0.198692
H3    H     H_    0.577053 0.348991 0.073959 0.117874
H4    H     H_    0.002524 0.426855 0.429712 0.172880
H5    H     H_    0.396212 0.631919 0.926732 0.133880
H6    H     H_    0.585712 0.625988 0.931501 0.117769
H7    H     H_    0.591549 0.623245 0.076025 0.168778
H8    H     H_    0.664981 0.506879 0.077146 0.228533
H9    H     H_    0.577946 0.350918 0.930875 0.141878
N1    N     N_1   0.234540 0.484780 0.486630 -0.083044
N2    N     N_1   0.765460 0.515220 0.513370 -0.080268
O1    O     O_R   0.402510 0.634760 0.495110 -0.609470
O2    O     O_R   0.572960 0.644530 0.503690 -0.589833
O3    O     O_R   0.414740 0.495110 0.618560 -0.604448
O4    O     O_R   0.585180 0.504880 0.627150 -0.595615
O5    O     O_R   0.427040 0.355470 0.496310 -0.587311
O6    O     O_R   0.597490 0.365240 0.504890 -0.607708
O7    O     O_R   0.414820 0.495120 0.372850 -0.608205
O8    O     O_R   0.585260 0.504890 0.381440 -0.609962
Zn1   Zn    Zn3+2 0.386190 0.493480 0.494270 1.017321
Zn2   Zn    Zn3+2 0.613810 0.506520 0.505730 1.018909
C27   C     C_1   0.301513 0.515745 0.912834 0.348114
N3    N     N_1   0.226653 0.485729 0.884871 -0.136073
F1    F     F_    0.363690 0.033396 0.493385 -0.649995
F2    F     F_    0.636296 0.966603 0.506587 -0.652178
C28   C     C_1   0.003284 0.594115 0.590937 0.247380
N4    N     N_1   0.033036 0.647021 0.642261 -0.161213
F3    F     F_    0.681160 0.502503 0.925668 -0.646905
F4    F     F_    0.426396 0.336520 0.913533 -0.644414
C29   C     C_1   0.419962 0.332260 0.080180 0.331079
N5    N     N_1   0.354349 0.288836 0.104545 -0.161088

loop_
_geom_bond_atom_site_label_1
_geom_bond_atom_site_label_2
_ccdc_geom_bond_type
C2    C22   S    
C22   C27   S    
C9    C14   T    
C12   O3    A    
C12   O4    A    
C1    C15   S    
N2    Zn2   S    
C21   O7    A    
C9    C20   S    
C20   O5    A    
C24   H7    S    
C8    C12   S    
C23   C24   S    
C3    C6    S    
C10   C11   D    
C23   H6    S    
O8    Zn2   S    
C17   C18   S    
O4    Zn2   S    
C7    C8    T    
C11   F1    S    
C4    C29   S    
O3    Zn1   S    
N1    Zn1   S    
C11   C13   S    
C3    C24   S    
C2    H1    S    
C7    C26   S    
C1    O1    A    
C16   C19   S    
C10   F2    S    
C5    H9    S    
C17   C28   S    
C27   N3    T    
C18   N2    T    
O7    Zn1   S    
C2    C3    S    
C21   O8    A    
C19   N1    T    
C13   C15   T    
O5    Zn1   S    
O1    Zn1   S    
C6    C25   T    
C22   H5    S    
C1    O2    A    
C16   H4    S    
C5    C26   S    
C20   O6    A    
C28   N4    T    
C23   F3    S    
O2    Zn2   S    
C22   C26   S    
C23   C26   S    
C29   N5    T    
C21   C25   S    
C16   C17   D    
C2    H2    S    
O6    Zn2   S    
C5    F4    S    
C24   H8    S    
C3    C4    S    
C4    H3    S    
C10   C14   S    
C4    C5    S    
