data_mof_unit_pretest_607.cif
_audit_creation_date              2012-12-11T14:21:12-0500
_audit_creation_method            fapswitch 2.2
_symmetry_space_group_name_H-M    P1
_symmetry_Int_Tables_number       1
_space_group_crystal_system       triclinic
_cell_length_a                    11.60472
_cell_length_b                    11.579626
_cell_length_c                    19.492893
_cell_angle_alpha                 90.792935
_cell_angle_beta                  90.233447
_cell_angle_gamma                 60.217033
_cell_volume                      2273.20142098

loop_
_atom_site_label
_atom_site_type_symbol
_atom_type_description
_atom_site_fract_x
_atom_site_fract_y
_atom_site_fract_z
_atom_type_partial_charge
C1    C     C_R   0.640459 0.117396 0.599024 0.542309
C2    C     C_1   0.641255 0.703925 0.667812 0.002518
C3    C     C_1   0.126611 0.198429 0.859386 0.002134
C4    C     C_1   0.171201 0.170534 0.727569 -0.031332
C5    C     C_1   0.149994 0.182087 0.798911 -0.031679
C6    C     C_1   0.195032 0.161360 0.667159 0.003378
C7    C     C_1   0.678865 0.190603 0.860943 0.005281
C8    C     C_1   0.658694 0.167361 0.728958 -0.031734
C9    C     C_1   0.665860 0.180489 0.800377 -0.031233
C10   C     C_1   0.653088 0.150007 0.668428 0.003670
C11   C     C_R   0.634962 0.697954 0.186704 -0.001303
C12   C     C_R   0.612271 0.746247 0.598470 0.544304
C13   C     C_R   0.535842 0.691397 0.226102 0.015466
C14   C     C_R   0.562416 0.659726 0.295202 0.040618
C15   C     C_R   0.704606 0.758290 0.289755 -0.150358
C16   C     C_R   0.713840 0.740823 0.218824 -0.168622
C17   C     C_R   0.416540 0.707645 0.198213 -0.097821
C18   C     C_R   0.336517 0.674917 0.236357 -0.173179
C19   C     C_R   0.373249 0.625729 0.302185 -0.094937
C20   C     C_R   0.493277 0.605078 0.329676 0.199337
C21   C     C_R   0.640669 0.704610 0.328909 0.011135
C22   C     C_R   0.072301 0.237379 0.206557 -0.002527
C23   C     C_R   0.241040 0.145371 0.598004 0.540158
C24   C     C_R   0.044631 0.339529 0.256100 0.009601
C25   C     C_R   0.068006 0.305970 0.326305 0.017027
C26   C     C_R   0.176487 0.072136 0.295801 -0.159688
C27   C     C_R   0.132428 0.104470 0.228683 -0.137775
C28   C     C_R   0.003279 0.472329 0.239086 -0.116519
C29   C     C_R   0.984892 0.564888 0.290333 -0.155547
C30   C     C_R   0.982265 0.536484 0.358957 -0.132835
C31   C     C_R   0.021181 0.407213 0.377123 -0.109098
C32   C     C_R   0.151006 0.172833 0.343853 -0.015761
C33   C     C_R   0.673602 0.175636 0.191828 -0.039641
C34   C     C_R   0.645424 0.114295 0.402830 0.527459
C35   C     C_R   0.769789 0.060907 0.226335 0.030679
C36   C     C_R   0.781386 0.067804 0.297592 -0.003268
C37   C     C_R   0.559312 0.261824 0.298996 0.132855
C38   C     C_R   0.570504 0.275782 0.229048 -0.117498
C39   C     C_R   0.860690 0.943071 0.191625 -0.079327
C40   C     C_R   0.976790 0.851438 0.223281 -0.146668
C41   C     C_R   0.001938 0.872904 0.290890 -0.135111
C42   C     C_R   0.904155 0.979741 0.328402 -0.085772
C43   C     C_R   0.666949 0.156806 0.335133 -0.014767
C44   C     C_R   0.081622 0.231102 0.928719 0.555817
C45   C     C_R   0.614302 0.743925 0.400676 0.561815
C46   C     C_R   0.684028 0.604005 0.929594 0.543593
C47   C     C_R   0.708588 0.206462 0.930312 0.543679
C48   C     C_R   0.030555 0.266181 0.133859 0.553285
C49   C     C_R   0.677032 0.620294 0.122591 0.536269
C50   C     C_R   0.706581 0.207877 0.125091 0.532708
C51   C     C_R   0.237796 0.141907 0.403824 0.530370
C52   C     C_1   0.670375 0.646189 0.860231 0.005058
C53   C     C_1   0.654835 0.683566 0.728334 -0.032027
C54   C     C_1   0.663452 0.666477 0.799711 -0.031352
Cr1   Cr    Cr6+3 0.404720 0.198220 0.499960 1.006462
Cr2   Cr    Cr6+3 0.698290 0.897110 0.500380 1.008218
Cr3   Cr    Cr6+3 0.396970 0.904720 0.499610 1.024186
Cr4   Cr    Cr6+3 0.926180 0.151990 0.028120 1.022464
Cr5   Cr    Cr6+3 0.921330 0.451820 0.027470 1.012241
Cr6   Cr    Cr6+3 0.626260 0.446870 0.028710 1.021092
H1    H     H_    0.753199 0.807197 0.314138 0.157502
H2    H     H_    0.965040 0.661837 0.276648 0.123823
H3    H     H_    0.957555 0.612611 0.398022 0.129993
H4    H     H_    0.025435 0.384563 0.431121 0.123387
H5    H     H_    0.843427 0.922410 0.139392 0.128914
H6    H     H_    0.497006 0.364862 0.203602 0.152167
H7    H     H_    0.044121 0.762652 0.195058 0.090822
H8    H     H_    0.093211 0.803008 0.315643 0.106225
H9    H     H_    0.924645 0.992396 0.381336 0.132698
H10   H     H_    0.384885 0.745737 0.147029 0.139133
H11   H     H_    0.783410 0.756884 0.189653 0.116051
H12   H     H_    0.249435 0.681815 0.213497 0.107678
H13   H     H_    0.308528 0.602833 0.331434 0.114108
H14   H     H_    0.237514 0.968230 0.308862 0.145561
H15   H     H_    0.991105 0.506784 0.187308 0.161557
H16   H     H_    0.154218 0.023519 0.193055 0.148173
O1    O     O_R   0.267740 0.231960 0.575440 -0.510621
O2    O     O_R   0.685970 0.784660 0.430010 -0.520614
O3    O     O_R   0.502530 0.767000 0.423990 -0.491053
O4    O     O_R   0.288330 0.026350 0.429250 -0.505564
O5    O     O_3   0.499990 0.000020 0.499980 -0.249812
O6    O     O_R   0.821500 0.119340 0.952830 -0.509084
O7    O     O_R   0.037130 0.162530 0.957360 -0.490080
O8    O     O_R   0.056440 0.344740 0.951340 -0.500131
O9    O     O_R   0.797900 0.560360 0.957470 -0.496164
O10   O     O_R   0.596130 0.579390 0.952730 -0.506788
O11   O     O_R   0.639060 0.321160 0.958670 -0.492798
O12   O     O_R   0.527280 0.186640 0.570530 -0.496887
O13   O     O_R   0.821240 0.124200 0.104370 -0.525387
O14   O     O_R   0.036890 0.167040 0.097840 -0.499615
O15   O     O_R   0.056180 0.349610 0.102880 -0.528871
O16   O     O_R   0.797660 0.564870 0.097950 -0.523964
O17   O     O_R   0.595880 0.584250 0.104270 -0.520936
O18   O     O_R   0.638830 0.325670 0.099150 -0.499571
O19   O     O_3   0.824590 0.350230 0.028100 -0.266160
O20   O     O_R   0.728090 0.003450 0.576380 -0.506687
O21   O     O_R   0.682970 0.789190 0.570490 -0.495252
O22   O     O_R   0.499290 0.771880 0.575530 -0.505142
O23   O     O_R   0.285330 0.030870 0.569730 -0.496223
O24   O     O_R   0.270980 0.227080 0.423890 -0.523593
O25   O     O_R   0.530280 0.182120 0.430050 -0.497503
O26   O     O_R   0.731330 0.998570 0.424830 -0.531453
N1    N     N_2   0.438207 0.354642 0.330834 -0.516648
H17   H     H_    0.435318 0.380850 0.381513 0.271522
C55   C     C_3   0.319559 0.362196 0.303022 -0.270434
H18   H     H_    0.295956 0.410784 0.252254 0.134782
H19   H     H_    0.236886 0.423735 0.338180 0.167149
H20   H     H_    0.331666 0.261181 0.297816 0.181024
N2    N     N_2   0.539118 0.537664 0.393329 -0.497602
H21   H     H_    0.471603 0.535504 0.426704 0.239079
C56   C     C_3   0.676917 0.434463 0.399084 -0.284765
H22   H     H_    0.728670 0.467738 0.435455 0.147310
H23   H     H_    0.728901 0.409882 0.348676 0.153860
H24   H     H_    0.682617 0.343078 0.419683 0.129079

loop_
_geom_bond_atom_site_label_1
_geom_bond_atom_site_label_2
_ccdc_geom_bond_type
C25   C31   A    
C22   C48   S    
C26   C32   A    
C41   C42   A    
Cr3   O3    S    
C23   O23   A    
C35   C36   A    
C44   O7    A    
C2    C12   S    
Cr2   O5    S    
C53   C54   S    
C55   H19   S    
C26   C27   A    
C29   C30   A    
C14   C21   A    
C28   C29   A    
Cr4   O6    S    
C30   C31   A    
Cr1   O1    S    
Cr3   O22   S    
C15   C16   A    
Cr3   O23   S    
C46   C52   S    
Cr2   O2    S    
C7    C9    T    
C18   C19   A    
C47   O6    A    
Cr1   O12   S    
C51   O4    A    
C33   C35   A    
C36   C42   A    
N1    C55   S    
C38   H6    S    
C8    C9    S    
C48   O15   A    
Cr1   O24   S    
C45   O2    A    
Cr1   O5    S    
C12   O22   A    
C46   O9    A    
Cr6   O17   S    
C25   C32   A    
C17   H10   S    
C48   O14   A    
C30   H3    S    
C39   H5    S    
Cr3   O4    S    
C16   H11   S    
Cr5   O19   S    
Cr2   O21   S    
Cr6   O11   S    
C52   C54   T    
C41   H8    S    
C21   C45   S    
C18   H12   S    
C55   H20   S    
C3    C44   S    
C34   O25   A    
C34   C43   S    
C14   C20   A    
C19   H13   S    
Cr5   O8    S    
C4    C6    T    
C39   C40   A    
C37   N1    S    
Cr6   O10   S    
C50   O18   A    
Cr5   O15   S    
C44   O8    A    
C33   C50   S    
C40   H7    S    
C42   H9    S    
C23   O1    A    
C47   O11   A    
C37   C43   A    
C35   C39   A    
Cr4   O19   S    
Cr5   O9    S    
C32   C51   S    
C37   C38   A    
C11   C49   S    
C11   C16   A    
C50   O13   A    
C17   C18   A    
C15   H1    S    
C56   H23   S    
C34   O26   A    
C24   C25   A    
Cr4   O14   S    
C45   O3    A    
C12   O21   A    
C40   C41   A    
C22   C27   A    
C22   C24   A    
C49   O16   A    
C27   H16   S    
C51   O24   A    
Cr2   O20   S    
C29   H2    S    
C56   H22   S    
C31   H4    S    
C1    C10   S    
C24   C28   A    
C4    C5    S    
C3    C5    T    
C2    C53   T    
C55   H18   S    
Cr1   O25   S    
C33   C38   A    
C13   C17   A    
C19   C20   A    
N2    C56   S    
Cr2   O26   S    
Cr4   O7    S    
C11   C13   A    
C1    O12   A    
C1    O20   A    
C6    C23   S    
C26   H14   S    
C56   H24   S    
Cr3   O5    S    
Cr5   O16   S    
Cr4   O13   S    
C20   N2    S    
Cr6   O19   S    
C15   C21   A    
C8    C10   T    
N2    H21   S    
N1    H17   S    
C36   C43   A    
C49   O17   A    
C13   C14   A    
C28   H15   S    
C7    C47   S    
C46   O10   A    
Cr6   O18   S    
