data_mof_unit_pretest_1819.cif
_audit_creation_date              2012-12-10T21:37:17-0500
_audit_creation_method            fapswitch 2.2
_symmetry_space_group_name_H-M    P1
_symmetry_Int_Tables_number       1
_space_group_crystal_system       triclinic
_cell_length_a                    16.113004
_cell_length_b                    15.724248
_cell_length_c                    16.797353
_cell_angle_alpha                 90.170326
_cell_angle_beta                  87.199478
_cell_angle_gamma                 92.226139
_cell_volume                      4247.56584246

loop_
_atom_site_label
_atom_site_type_symbol
_atom_type_description
_atom_site_fract_x
_atom_site_fract_y
_atom_site_fract_z
_atom_type_partial_charge
C1    C     C_R   0.511570 0.498485 0.347283 0.899299
C2    C     C_R   0.488588 0.496470 0.652789 0.891129
C3    C     C_R   0.476525 0.428650 0.220703 0.117420
C4    C     C_R   0.535112 0.437138 0.779006 0.125822
C5    C     C_R   0.482542 0.427791 0.138243 -0.170359
C6    C     C_R   0.528188 0.433801 0.861390 -0.183453
C7    C     C_R   0.532467 0.489640 0.096657 0.282449
C8    C     C_R   0.467051 0.479378 0.903454 0.284277
C9    C     C_R   0.580895 0.548831 0.137662 -0.167303
C10   C     C_R   0.408934 0.523618 0.862937 -0.167857
C11   C     C_R   0.574615 0.550700 0.220338 -0.248435
C12   C     C_R   0.415732 0.528086 0.780374 -0.249243
C13   C     C_R   0.237257 0.547941 0.531397 0.002050
C14   C     C_R   0.763308 0.456725 0.463546 0.016863
C15   C     C_R   0.150032 0.545192 0.529806 -0.253657
C16   C     C_R   0.850463 0.459380 0.465630 -0.251164
C17   C     C_R   0.108964 0.481435 0.485239 0.323353
C18   C     C_R   0.890865 0.518185 0.515978 0.326510
C19   C     C_R   0.158001 0.422567 0.443660 -0.277793
C20   C     C_R   0.841192 0.572301 0.562752 -0.280509
C21   C     C_R   0.244916 0.427518 0.447090 0.030295
C22   C     C_R   0.754285 0.567384 0.558927 0.031271
C23   C     C_R   0.500239 0.337785 0.499996 0.930379
C24   C     C_R   0.499755 0.662235 0.500052 0.900498
C25   C     C_3   0.551805 0.973446 0.440559 -0.220676
C26   C     C_3   0.448091 0.026706 0.559448 -0.213222
C27   C     C_3   0.474611 0.027235 0.429536 -0.206707
C28   C     C_3   0.525277 0.972918 0.570473 -0.215798
C29   C     C_1   0.500684 0.248925 0.499985 -0.124822
C30   C     C_1   0.499290 0.751145 0.500050 -0.161678
C31   C     C_3   0.577053 0.030616 0.510951 0.224965
C32   C     C_3   0.422833 0.969538 0.489062 0.221717
C33   C     C_3   0.500363 0.082812 0.499995 0.100249
C34   C     C_3   0.499522 0.917318 0.500014 0.103095
C35   C     C_1   0.500625 0.173651 0.499971 0.012442
C36   C     C_1   0.499299 0.826444 0.500046 -0.005554
C37   C     C_R   0.520573 0.492489 0.261720 -0.071886
C38   C     C_R   0.480187 0.487214 0.738398 -0.084794
H1    H     H_    0.281862 0.381252 0.415498 0.169267
H2    H     H_    0.716600 0.609408 0.595252 0.139902
H3    H     H_    0.570724 0.396074 0.893051 0.173674
H4    H     H_    0.448293 0.379078 0.106265 0.174832
H5    H     H_    0.610092 0.598793 0.251960 0.165206
H6    H     H_    0.372184 0.565278 0.749402 0.166344
H7    H     H_    0.732591 0.411792 0.424754 0.144209
H8    H     H_    0.268438 0.596656 0.565863 0.140771
H9    H     H_    0.885400 0.416079 0.428054 0.164905
H10   H     H_    0.115584 0.592447 0.563056 0.164265
N1    N     N_2   0.534570 0.492758 0.013232 -0.185676
N2    N     N_2   0.464027 0.481681 0.986919 -0.184253
N3    N     N_R   0.283080 0.489710 0.490280 -0.095936
N4    N     N_R   0.716920 0.510290 0.509720 -0.092369
N5    N     N_2   0.020200 0.473876 0.480068 -0.173840
N6    N     N_2   0.979618 0.525770 0.521368 -0.175082
O1    O     O_R   0.577460 0.503680 0.387340 -0.626803
O2    O     O_R   0.422540 0.496320 0.612660 -0.624697
O3    O     O_R   0.438150 0.497080 0.381100 -0.591866
O4    O     O_R   0.561850 0.502920 0.618900 -0.595605
O5    O     O_R   0.569640 0.380080 0.503110 -0.599370
O6    O     O_R   0.430360 0.619920 0.496890 -0.611770
O7    O     O_R   0.430330 0.373470 0.496870 -0.614076
O8    O     O_R   0.569670 0.626530 0.503130 -0.623436
Zn1   Zn    Zn3+2 0.593020 0.504410 0.504170 0.979430
Zn2   Zn    Zn3+2 0.406980 0.495590 0.495830 0.977917
H11   H     H_    0.453625 0.051366 0.372116 0.180822
H12   H     H_    0.546266 0.948844 0.627910 0.170019
H13   H     H_    0.128906 0.372642 0.408887 0.164240
H14   H     H_    0.869765 0.618277 0.602102 0.156694
H15   H     H_    0.594397 0.949799 0.392204 0.170663
H16   H     H_    0.405510 0.050378 0.607801 0.172899
I1    I     I_    0.300021 0.919252 0.471713 -0.343181
I2    I     I_    0.699712 0.081261 0.528475 -0.321939
I3    I     I_    0.626502 0.360399 0.721908 -0.307851
I4    I     I_    0.405101 0.328108 0.278094 -0.390478
H17   H     H_    0.620900 0.595291 0.105490 0.156332
H18   H     H_    0.360658 0.557290 0.895483 0.156663

loop_
_geom_bond_atom_site_label_1
_geom_bond_atom_site_label_2
_ccdc_geom_bond_type
C25   C31   S    
C5    H4    S    
C26   C32   S    
C8    N2    S    
N5    N6    D    
C27   C33   S    
C23   O5    A    
C23   C29   S    
C19   C21   A    
C13   H8    S    
C7    C9    A    
C11   C37   A    
C3    I4    S    
C17   C19   A    
C13   N3    A    
C10   H18   S    
C14   N4    A    
C6    H3    S    
O1    Zn1   S    
O2    Zn2   S    
C11   H5    S    
C32   I1    S    
C18   C20   A    
C1    C37   S    
C25   C34   S    
C28   C34   S    
C15   H10   S    
C16   H9    S    
C14   H7    S    
C7    N1    S    
C4    C6    A    
C5    C7    A    
C6    C8    A    
C32   C34   S    
O7    Zn2   S    
C28   H12   S    
O8    Zn1   S    
C27   H11   S    
C1    O3    A    
C2    C38   S    
C26   C33   S    
C21   H1    S    
C24   O6    A    
C22   H2    S    
C31   C33   S    
C19   H13   S    
C9    C11   A    
C4    I3    S    
C10   C12   A    
C8    C10   A    
C31   I2    S    
C4    C38   A    
C13   C15   A    
C26   H16   S    
C14   C16   A    
C25   H15   S    
C17   N5    S    
C21   N3    A    
O3    Zn2   S    
C22   N4    A    
O4    Zn1   S    
C15   C17   A    
C24   O8    A    
C27   C32   S    
O5    Zn1   S    
C20   H14   S    
C28   C31   S    
N3    Zn2   S    
C20   C22   A    
C3    C5    A    
N4    Zn1   S    
C2    O4    A    
C25   C27   S    
C29   C35   T    
C26   C28   S    
C30   C36   T    
O6    Zn2   S    
C1    O1    A    
C12   H6    S    
C2    O2    A    
C33   C35   S    
C34   C36   S    
C12   C38   A    
C24   C30   S    
C18   N6    S    
C23   O7    A    
C3    C37   A    
C16   C18   A    
N1    N2    D    
C9    H17   S    
