data_mof_unit_pretest_729.cif
_audit_creation_date              2012-12-10T18:54:27-0500
_audit_creation_method            fapswitch 2.2
_symmetry_space_group_name_H-M    P1
_symmetry_Int_Tables_number       1
_space_group_crystal_system       triclinic
_cell_length_a                    19.391622
_cell_length_b                    18.14611
_cell_length_c                    9.087384
_cell_angle_alpha                 89.772645
_cell_angle_beta                  90.186949
_cell_angle_gamma                 89.930098
_cell_volume                      3197.64682655

loop_
_atom_site_label
_atom_site_type_symbol
_atom_type_description
_atom_site_fract_x
_atom_site_fract_y
_atom_site_fract_z
_atom_type_partial_charge
C1    C     C_R   0.367514 0.500038 0.499548 0.855544
C2    C     C_R   0.632291 0.499950 0.500258 0.854553
C3    C     C_R   0.455196 0.721001 0.411330 -0.000989
C4    C     C_R   0.539123 0.279011 0.600131 0.055780
C5    C     C_R   0.544711 0.720824 0.588410 0.004083
C6    C     C_R   0.460297 0.279209 0.401462 0.001179
C7    C     C_R   0.454302 0.798706 0.407568 0.120029
C8    C     C_R   0.539977 0.201242 0.604506 0.128275
C9    C     C_R   0.545293 0.798537 0.591802 0.119897
C10   C     C_R   0.457914 0.201539 0.401752 0.139527
C11   C     C_R   0.499695 0.838738 0.499621 0.027338
C12   C     C_R   0.498419 0.161282 0.503762 -0.022695
C13   C     C_R   0.559352 0.961698 0.466569 -0.154169
C14   C     C_R   0.438620 0.038354 0.535194 -0.141594
C15   C     C_R   0.438884 0.960903 0.533653 -0.160239
C16   C     C_R   0.558881 0.039176 0.466672 -0.192281
C17   C     C_R   0.498560 0.078493 0.501455 0.138607
C18   C     C_R   0.499309 0.921559 0.499802 0.161367
C19   C     C_R   0.499971 0.500088 0.220385 0.849546
C20   C     C_R   0.500045 0.499911 0.779615 0.849945
C21   C     C_1   0.499999 0.500121 0.065464 -0.184048
C22   C     C_1   0.500027 0.499877 0.934535 -0.183288
C23   C     C_R   0.743446 0.450976 0.409683 -0.276989
C24   C     C_R   0.255720 0.438865 0.444639 -0.277440
C25   C     C_R   0.255494 0.561572 0.549957 -0.267745
C26   C     C_R   0.743684 0.548168 0.592438 -0.267368
C27   C     C_R   0.815278 0.451524 0.408193 0.574920
C28   C     C_R   0.183882 0.439335 0.441408 0.588112
C29   C     C_R   0.183663 0.561582 0.549495 0.522979
C30   C     C_R   0.815534 0.546916 0.595137 0.545611
C31   C     C_R   0.851497 0.498904 0.502208 -0.080635
C32   C     C_R   0.147583 0.500851 0.493328 -0.081171
C33   C     C_R   0.707480 0.499758 0.500717 -0.196375
C34   C     C_R   0.291948 0.500149 0.498045 -0.205224
C35   C     C_R   0.961637 0.544702 0.398984 0.226581
C36   C     C_R   0.037146 0.454099 0.594519 0.241545
C37   C     C_R   0.034085 0.544655 0.394065 0.186319
C38   C     C_R   0.964639 0.452914 0.597188 0.171214
C39   C     C_R   0.071713 0.500374 0.494217 0.028918
C40   C     C_R   0.927189 0.499298 0.500812 0.036950
Cu1   Cu    Cu3+1 0.500000 0.573360 0.500000 0.943533
Cu2   Cu    Cu3+1 0.500000 0.426640 0.500000 0.942635
H1    H     H_    0.715856 0.413696 0.337707 0.184055
H2    H     H_    0.282994 0.391037 0.403669 0.181600
H3    H     H_    0.282580 0.609017 0.593173 0.191179
H4    H     H_    0.716261 0.585719 0.663919 0.175238
H5    H     H_    0.420506 0.690286 0.341136 0.137808
H6    H     H_    0.569256 0.309949 0.678838 0.146771
H7    H     H_    0.579532 0.689970 0.658725 0.135115
H8    H     H_    0.429969 0.310024 0.322236 0.140962
H9    H     H_    0.606520 0.932960 0.439053 0.148401
H10   H     H_    0.391740 0.066947 0.564811 0.139943
H11   H     H_    0.392042 0.931534 0.561032 0.148671
H12   H     H_    0.605653 0.068548 0.439083 0.144470
N1    N     N_R   0.500000 0.683620 0.500000 -0.195500
N2    N     N_R   0.500000 0.316380 0.500000 -0.210780
O1    O     O_R   0.400190 0.561980 0.499980 -0.588768
O2    O     O_R   0.599810 0.438020 0.500020 -0.584706
O3    O     O_R   0.599810 0.561980 0.500020 -0.581858
O4    O     O_R   0.400190 0.438020 0.499980 -0.581749
O5    O     O_R   0.500000 0.561940 0.288400 -0.578457
O6    O     O_R   0.500000 0.438060 0.711600 -0.582758
O7    O     O_R   0.500000 0.561940 0.711600 -0.581842
O8    O     O_R   0.500000 0.438060 0.288400 -0.584813
F1    F     F_    0.849573 0.405749 0.315920 -0.658417
F2    F     F_    0.149655 0.379999 0.387415 -0.659372
F3    F     F_    0.149233 0.620419 0.604950 -0.668412
F4    F     F_    0.850040 0.592303 0.688079 -0.668570
N3    N     N_2   0.922711 0.589987 0.300670 -0.411500
H13   H     H_    0.938197 0.586659 0.192564 0.287411
C41   C     C_3   0.914593 0.665416 0.348365 -0.592734
H14   H     H_    0.879899 0.695100 0.270815 0.221536
H15   H     H_    0.965303 0.693844 0.350452 0.241399
H16   H     H_    0.891274 0.667411 0.459560 0.268419
N4    N     N_2   0.076107 0.409642 0.694281 -0.394867
H17   H     H_    0.058143 0.356570 0.706168 0.286818
C42   C     C_3   0.089780 0.444166 0.834263 -0.638176
H18   H     H_    0.124745 0.408583 0.900547 0.234884
H19   H     H_    0.040799 0.451615 0.895318 0.241704
H20   H     H_    0.115122 0.498453 0.818190 0.249108
N5    N     N_2   0.068218 0.589699 0.288195 -0.423204
H21   H     H_    0.108872 0.619961 0.328779 0.289913
C43   C     C_3   0.084910 0.552477 0.152630 -0.674489
H22   H     H_    0.124594 0.509366 0.172437 0.238531
H23   H     H_    0.105373 0.592949 0.071995 0.245065
H24   H     H_    0.038097 0.526731 0.105006 0.239957
N6    N     N_2   0.930253 0.407705 0.702491 -0.428374
H25   H     H_    0.889428 0.432898 0.754557 0.276623
C44   C     C_3   0.913638 0.334209 0.652480 -0.628401
H26   H     H_    0.869602 0.335899 0.574368 0.248425
H27   H     H_    0.898860 0.299683 0.748376 0.229707
H28   H     H_    0.958563 0.308098 0.597810 0.241848
N7    N     N_2   0.408219 0.835891 0.310205 -0.428096
H29   H     H_    0.362845 0.807723 0.291714 0.252865
C45   C     C_3   0.439558 0.860445 0.174352 -0.665257
H30   H     H_    0.401192 0.891966 0.108459 0.231470
H31   H     H_    0.457048 0.812270 0.109150 0.213679
H32   H     H_    0.484161 0.897070 0.196785 0.240671
N8    N     N_2   0.579412 0.164764 0.715865 -0.435646
H33   H     H_    0.565139 0.111362 0.739707 0.266683
C46   C     C_3   0.653321 0.174489 0.706239 -0.675123
H34   H     H_    0.678800 0.145125 0.799063 0.232863
H35   H     H_    0.667232 0.233684 0.713502 0.229785
H36   H     H_    0.672864 0.151551 0.601200 0.223199
N9    N     N_2   0.591232 0.835537 0.688988 -0.430684
H37   H     H_    0.636727 0.807407 0.707541 0.254042
C47   C     C_3   0.559824 0.859615 0.824787 -0.677188
H38   H     H_    0.598113 0.890929 0.890612 0.230091
H39   H     H_    0.542454 0.811201 0.890099 0.217333
H40   H     H_    0.515123 0.896314 0.802280 0.238081
N10   N     N_2   0.417643 0.164098 0.294660 -0.425884
H41   H     H_    0.432775 0.176182 0.188598 0.254901
C48   C     C_3   0.343909 0.171823 0.313013 -0.656728
H42   H     H_    0.316935 0.134687 0.235005 0.237093
H43   H     H_    0.327552 0.229465 0.289967 0.218351
H44   H     H_    0.328494 0.156499 0.426652 0.232948

loop_
_geom_bond_atom_site_label_1
_geom_bond_atom_site_label_2
_ccdc_geom_bond_type
C15   C18   A    
N6    H25   S    
C11   C18   S    
C46   H34   S    
Cu2   O8    S    
Cu1   Cu2   S    
C45   H30   S    
Cu1   O5    S    
C4    C8    A    
C37   N5    S    
Cu2   O2    S    
N5    H21   S    
C45   H32   S    
C42   H18   S    
C7    C11   A    
N9    C47   S    
N7    H29   S    
C13   C18   A    
C15   H11   S    
C35   C37   A    
C8    N8    S    
C29   C32   A    
C3    C7    A    
C30   C31   A    
C9    N9    S    
C23   H1    S    
C31   C40   S    
C32   C39   S    
N3    C41   S    
Cu1   N1    S    
Cu2   N2    S    
C29   F3    S    
C3    N1    A    
C14   H10   S    
N8    H33   S    
C16   C17   A    
C23   C33   A    
C12   C17   S    
C47   H38   S    
C23   C27   A    
C44   H27   S    
Cu2   O6    S    
C25   C34   A    
C48   H44   S    
C46   H35   S    
C13   H9    S    
C21   C22   T    
C4    N2    A    
C47   H39   S    
C14   C17   A    
C5    H7    S    
N5    C43   S    
C1    C34   S    
C42   H19   S    
C25   C29   A    
C7    N7    S    
C27   C31   A    
C28   C32   A    
Cu1   O3    S    
C1    O4    A    
Cu2   O4    S    
C41   H15   S    
C2    O3    A    
C24   C34   A    
C28   F2    S    
N4    H17   S    
C5    C9    A    
C27   F1    S    
C36   N4    S    
C1    O1    A    
C9    C11   A    
C26   C33   A    
C43   H22   S    
C19   O8    A    
C8    C12   A    
C45   H31   S    
C10   N10   S    
N10   C48   S    
C6    H8    S    
C44   H28   S    
N4    C42   S    
C10   C12   A    
C2    C33   S    
C43   H23   S    
C20   C22   S    
C26   C30   A    
C46   H36   S    
N6    C44   S    
C24   H2    S    
C47   H40   S    
Cu1   O7    S    
C25   H3    S    
C48   H42   S    
C4    H6    S    
C42   H20   S    
N10   H41   S    
C19   C21   S    
C5    N1    A    
C36   C39   A    
C24   C28   A    
C6    N2    A    
C6    C10   A    
C41   H16   S    
C2    O2    A    
N9    H37   S    
C38   N6    S    
C20   O7    A    
C36   C38   A    
C35   C40   A    
Cu1   O1    S    
C41   H14   S    
C37   C39   A    
C38   C40   A    
C19   O5    A    
C3    H5    S    
C20   O6    A    
N3    H13   S    
C16   H12   S    
C26   H4    S    
C43   H24   S    
C35   N3    S    
N7    C45   S    
C13   C16   A    
C14   C15   A    
C44   H26   S    
N8    C46   S    
C30   F4    S    
C48   H43   S    
