data_mof_unit_pretest_309.cif
_audit_creation_date              2012-12-11T16:26:31-0500
_audit_creation_method            fapswitch 2.2
_symmetry_space_group_name_H-M    P1
_symmetry_Int_Tables_number       1
_space_group_crystal_system       triclinic
_cell_length_a                    7.006995
_cell_length_b                    17.243862
_cell_length_c                    19.759127
_cell_angle_alpha                 108.397207
_cell_angle_beta                  89.547685
_cell_angle_gamma                 90.023933
_cell_volume                      2265.35379363

loop_
_atom_site_label
_atom_site_type_symbol
_atom_type_description
_atom_site_fract_x
_atom_site_fract_y
_atom_site_fract_z
_atom_type_partial_charge
O1    O     O_R   0.494330 0.415720 0.413720 -0.528837
O2    O     O_R   0.819330 0.430070 0.560210 -0.538350
O3    O     O_R   0.994320 0.584280 0.586280 -0.542036
C1    C     C_R   0.650114 0.413954 0.580869 0.688457
O4    O     O_R   0.823730 0.406300 0.412670 -0.537006
O5    O     O_R   0.998760 0.560340 0.437690 -0.540133
C2    C     C_R   0.656118 0.382640 0.385585 0.692725
O6    O     O_R   0.489890 0.439660 0.562310 -0.549541
O7    O     O_3   0.662340 0.550560 0.508380 -0.368726
V1    V     V_3+5 0.935370 0.490620 0.498450 1.428425
O8    O     O_R   0.328750 0.569930 0.439790 -0.531883
C3    C     C_R   0.159697 0.585845 0.419357 0.758801
O9    O     O_R   0.324340 0.593700 0.587330 -0.542927
C4    C     C_R   0.154876 0.616065 0.614810 0.678332
V2    V     V_3+5 0.435940 0.509380 0.501550 1.427276
O10   O     O_3   0.159100 0.449440 0.491620 -0.370930
C5    C     C_R   0.200188 0.589704 0.756550 0.111279
C6    C     C_R   0.268256 0.580043 0.819932 0.494378
C7    C     C_R   0.325326 0.649984 0.874889 -0.283423
C8    C     C_R   0.283692 0.727374 0.871336 -0.235426
C9    C     C_R   0.193073 0.738495 0.811963 0.017860
C10   C     C_R   0.177120 0.669720 0.749513 -0.038092
C11   C     C_R   0.125027 0.817077 0.813737 -0.131402
C12   C     C_R   0.089262 0.831710 0.747316 0.015222
C13   C     C_R   0.110538 0.765007 0.682672 -0.043057
C14   C     C_R   0.142669 0.683912 0.683613 -0.087284
C15   C     C_R   0.044114 0.911144 0.742285 0.050229
C16   C     C_R   0.032981 0.923160 0.674093 0.300075
C17   C     C_R   0.075507 0.858123 0.612916 0.428725
C18   C     C_R   0.104014 0.780360 0.616972 -0.307465
H1    H     H_    0.393514 0.646413 0.922550 0.157807
H2    H     H_    0.326385 0.778947 0.915431 0.145556
H3    H     H_    0.126383 0.732222 0.566961 0.136923
C19   C     C_R   0.189924 0.593916 0.295449 0.182869
C20   C     C_R   0.147786 0.632427 0.368041 -0.097803
C21   C     C_R   0.077502 0.712469 0.390723 -0.271757
C22   C     C_R   0.067553 0.758439 0.343614 0.087322
C23   C     C_R   0.115689 0.721871 0.270964 -0.032623
C24   C     C_R   0.168496 0.637684 0.245110 0.017920
C25   C     C_R   0.010159 0.840722 0.368298 -0.253869
C26   C     C_R   0.015178 0.889460 0.323456 0.383491
C27   C     C_R   0.060565 0.853939 0.250566 0.047257
C28   C     C_R   0.107730 0.769680 0.224163 -0.105159
C29   C     C_R   0.142885 0.733036 0.150762 -0.013537
C30   C     C_R   0.162537 0.647162 0.123826 0.381783
C31   C     C_R   0.189180 0.600606 0.170106 0.098631
C32   C     C_R   0.057158 0.900929 0.203586 -0.237538
C33   C     C_R   0.107924 0.866362 0.131696 -0.135358
C34   C     C_R   0.151341 0.782371 0.105461 0.174650
H4    H     H_    0.034558 0.739324 0.445829 0.173181
H5    H     H_    0.964244 0.868166 0.423009 0.184712
H6    H     H_    0.017555 0.964971 0.222779 0.158375
C35   C     C_R   0.726337 0.204594 0.883834 -0.311274
C36   C     C_R   0.627954 0.130018 0.866322 -0.144521
C37   C     C_R   0.554156 0.095016 0.797155 0.336598
C38   C     C_R   0.570081 0.138753 0.746950 0.014435
C39   C     C_R   0.654618 0.217141 0.767377 0.007328
C40   C     C_R   0.737785 0.248880 0.835284 0.106943
C41   C     C_R   0.505360 0.106578 0.676715 -0.176748
C42   C     C_R   0.497967 0.153891 0.631149 -0.185926
C43   C     C_R   0.565025 0.234552 0.653000 0.089625
C44   C     C_R   0.654601 0.264351 0.719966 0.004022
C45   C     C_R   0.740290 0.341954 0.740371 0.101083
C46   C     C_R   0.830655 0.371014 0.806661 -0.162121
C47   C     C_R   0.828475 0.325169 0.853883 -0.193911
C48   C     C_R   0.547755 0.284808 0.608661 0.180573
C49   C     C_R   0.640850 0.362022 0.628424 -0.111506
C50   C     C_R   0.733535 0.389580 0.694548 -0.215969
H7    H     H_    0.788769 0.229298 0.936312 0.132320
H8    H     H_    0.459434 0.044559 0.656232 0.124708
H9    H     H_    0.440792 0.126315 0.578339 0.160603
H10   H     H_    0.794539 0.449923 0.711801 0.133753
H11   H     H_    0.899613 0.430067 0.822330 0.172126
H12   H     H_    0.893590 0.350129 0.905735 0.116532
C51   C     C_R   0.703238 0.411571 0.249741 -0.181646
C52   C     C_R   0.722042 0.428990 0.185344 0.242242
C53   C     C_R   0.701398 0.366226 0.120930 -0.112157
C54   C     C_R   0.664694 0.286489 0.120250 -0.189977
C55   C     C_R   0.648875 0.267166 0.184467 0.066849
C56   C     C_R   0.666027 0.331312 0.250665 0.049180
C57   C     C_R   0.619615 0.185332 0.183467 -0.150569
C58   C     C_R   0.616166 0.167619 0.248853 0.065526
C59   C     C_R   0.633797 0.231755 0.315027 0.001335
C60   C     C_R   0.650526 0.314294 0.316261 -0.147325
C61   C     C_R   0.599633 0.086132 0.249546 -0.198979
C62   C     C_R   0.602685 0.067969 0.313313 -0.154236
C63   C     C_R   0.621473 0.130288 0.378116 0.262244
C64   C     C_R   0.638999 0.211308 0.378829 -0.141308
H13   H     H_    0.719774 0.461368 0.298963 0.112773
H14   H     H_    0.715130 0.379166 0.070903 0.112688
H15   H     H_    0.651033 0.240023 0.068816 0.095963
H16   H     H_    0.585626 0.035420 0.200823 0.121906
H17   H     H_    0.591430 0.004984 0.312300 0.140753
H18   H     H_    0.660768 0.257834 0.429543 0.119856
O11   O     O_R   0.775200 0.060470 0.937800 -0.538831
O12   O     O_R   0.441110 0.093720 0.087350 -0.539709
O13   O     O_R   0.266330 0.939630 0.062280 -0.543521
C65   C     C_R   0.609385 0.117314 0.114353 0.686488
O14   O     O_R   0.445750 0.069950 0.939820 -0.521953
O15   O     O_R   0.271000 0.915700 0.913700 -0.540948
C66   C     C_R   0.615111 0.085155 0.918764 0.761748
O16   O     O_R   0.770530 0.084400 0.086380 -0.537151
O17   O     O_3   0.602830 0.949510 0.991680 -0.380160
V3    V     V_3+5 0.329710 0.009370 0.001550 1.439566
O18   O     O_R   0.940990 0.906170 0.912570 -0.533263
C67   C     C_R   0.110908 0.883892 0.884421 0.781835
O19   O     O_R   0.936350 0.929940 0.060100 -0.540529
C68   C     C_R   0.103648 0.916967 0.083114 0.691994
V4    V     V_3+5 0.829160 0.990450 0.998310 1.418595
O20   O     O_3   0.105910 0.050480 0.008320 -0.364044
O21   O     O_3   0.076227 0.868585 0.546420 -0.558393
C69   C     C_3   0.250532 0.904887 0.535825 0.091646
H19   H     H_    0.284255 0.959214 0.581329 0.112894
H20   H     H_    0.234300 0.927263 0.489558 0.135417
C70   C     C_3   0.417859 0.844580 0.519740 -0.782371
H21   H     H_    0.383446 0.789457 0.474463 0.234138
H22   H     H_    0.546010 0.874133 0.505372 0.212386
H23   H     H_    0.452599 0.826093 0.567166 0.211465
O22   O     O_3   0.967847 0.971426 0.350893 -0.565678
C71   C     C_3   0.137703 0.017270 0.369670 0.062728
H24   H     H_    0.250386 0.996542 0.327767 0.118456
H25   H     H_    0.192754 0.012173 0.420597 0.111089
C72   C     C_3   0.097688 0.106963 0.379388 -0.688880
H26   H     H_    0.008295 0.134168 0.427557 0.226300
H27   H     H_    0.232821 0.141805 0.386697 0.194218
H28   H     H_    0.025215 0.113172 0.331587 0.230605
N1    N     N_3   0.211120 0.747333 0.033125 -0.632036
H29   H     H_    0.104321 0.758123 0.000532 0.216823
H30   H     H_    0.337131 0.776689 0.026648 0.216827
O23   O     O_3   0.142098 0.606452 0.051816 -0.544334
C73   C     C_3   0.944242 0.598520 0.037359 0.109166
H31   H     H_    0.871863 0.659159 0.051660 0.126807
H32   H     H_    0.874099 0.560985 0.067038 0.126410
C74   C     C_3   0.914925 0.556320 0.958557 -0.717523
H33   H     H_    0.987712 0.496230 0.942518 0.225747
H34   H     H_    0.760346 0.546964 0.948098 0.155757
H35   H     H_    0.972710 0.594397 0.927241 0.241710
N2    N     N_3   0.227477 0.514854 0.139224 -0.673249
H36   H     H_    0.111281 0.486974 0.108210 0.267912
H37   H     H_    0.346510 0.507421 0.105538 0.235994
O24   O     O_3   0.442998 0.025014 0.784320 -0.578917
C75   C     C_3   0.530961 0.955224 0.736268 0.004431
H38   H     H_    0.657733 0.969014 0.709311 0.179368
H39   H     H_    0.428742 0.925903 0.693380 0.128723
C76   C     C_3   0.581882 0.893039 0.773497 -0.655040
H40   H     H_    0.452220 0.865870 0.787515 0.220788
H41   H     H_    0.668778 0.843009 0.737253 0.180425
H42   H     H_    0.660294 0.921667 0.823474 0.237419
N3    N     N_3   0.143163 0.516253 0.702795 -0.635322
H43   H     H_    0.245356 0.499870 0.662172 0.247693
H44   H     H_    0.009666 0.525075 0.683649 0.222235
N4    N     N_3   0.433035 0.256325 0.545404 -0.662410
H45   H     H_    0.431561 0.296717 0.515951 0.231192
H46   H     H_    0.291900 0.252932 0.561832 0.227724
N5    N     N_3   0.620944 0.111927 0.443869 -0.652185
H47   H     H_    0.490092 0.085021 0.448487 0.212950
H48   H     H_    0.726168 0.068235 0.441320 0.265524
N6    N     N_3   0.764343 0.510181 0.184618 -0.700055
H49   H     H_    0.647473 0.531111 0.162835 0.218975
H50   H     H_    0.779012 0.549934 0.236620 0.232892
O25   O     O_3   0.260674 0.501257 0.825548 -0.543293
C77   C     C_3   0.384614 0.488234 0.876740 0.052977
H51   H     H_    0.345402 0.526934 0.931517 0.172434
H52   H     H_    0.534392 0.499135 0.863384 0.122822
C78   C     C_3   0.365470 0.400145 0.875956 -0.664827
H53   H     H_    0.389690 0.357797 0.821306 0.240020
H54   H     H_    0.470177 0.387465 0.912993 0.180320
H55   H     H_    0.220375 0.389340 0.893670 0.204349
N7    N     N_3   0.005761 0.978006 0.805624 -0.645037
H56   H     H_    0.878901 0.006160 0.799964 0.227419
H57   H     H_    0.114316 0.021057 0.814332 0.265788
O26   O     O_3   0.947136 0.990704 0.662588 -0.558069
C79   C     C_3   0.037591 0.065345 0.697573 0.064087
H58   H     H_    0.184404 0.057588 0.713444 0.152987
H59   H     H_    0.956086 0.098772 0.746178 0.138854
C80   C     C_3   0.038480 0.117831 0.648461 -0.676131
H60   H     H_    0.891201 0.126518 0.632428 0.242953
H61   H     H_    0.101063 0.178628 0.676281 0.192451
H62   H     H_    0.121723 0.087472 0.599312 0.201468
N8    N     N_3   0.249609 0.510101 0.275153 -0.669711
H63   H     H_    0.380507 0.504025 0.248547 0.261611
H64   H     H_    0.145642 0.473025 0.243141 0.276082

loop_
_geom_bond_atom_site_label_1
_geom_bond_atom_site_label_2
_ccdc_geom_bond_type
C29   C34   A    
C41   C42   A    
C63   C64   A    
C78   H53   S    
C37   O24   S    
N5    H48   S    
O19   V4    S    
C26   C27   A    
C36   C66   S    
C19   N8    S    
O21   C69   S    
C12   C15   A    
C1    O6    A    
C73   C74   S    
C7    H1    S    
C16   C17   A    
C74   H35   S    
C69   H20   S    
C76   H40   S    
C72   H26   S    
C53   C54   A    
C71   H24   S    
C52   N6    S    
C22   C23   A    
C59   C60   A    
C21   C22   A    
C19   C20   A    
C22   C25   A    
N3    H44   S    
O5    C3    A    
C23   C24   A    
C6    O25   S    
C72   H27   S    
C57   C65   S    
V2    O10   S    
O15   V3    S    
C38   C39   A    
C6    C7    A    
N7    H56   S    
C36   C37   A    
O13   C68   A    
O8    V2    S    
C43   C48   A    
C16   O26   S    
C80   H62   S    
C7    C8    A    
C71   H25   S    
C70   H22   S    
O12   C65   A    
O11   C66   A    
C46   H11   S    
O1    V2    S    
O9    C4    A    
C17   C18   A    
C51   C56   A    
C15   N7    S    
C71   C72   S    
C56   C60   A    
C31   N2    S    
C80   H61   S    
C59   C64   A    
C35   H7    S    
C30   O23   S    
C78   H54   S    
C9    C10   A    
N6    H50   S    
N7    H57   S    
C75   C76   S    
C43   C44   A    
C8    H2    S    
C69   H19   S    
C76   H41   S    
C61   H16   S    
N8    H64   S    
C57   C58   A    
C77   H52   S    
C79   H59   S    
C25   H5    S    
C34   N1    S    
C64   H18   S    
C53   H14   S    
C49   C50   A    
C39   C44   A    
C48   C49   A    
C52   C53   A    
O11   V4    S    
O4    C2    A    
C62   C63   A    
C72   H28   S    
C74   H34   S    
C41   H8    S    
C42   H9    S    
C13   C14   A    
C79   H58   S    
C11   C67   S    
C26   O22   S    
C47   H12   S    
C19   C24   A    
C42   C43   A    
C20   C21   A    
O2    C1    A    
C51   C52   A    
N1    H30   S    
C48   N4    S    
C44   C45   A    
C62   H17   S    
C77   C78   S    
C40   C47   A    
C32   C33   A    
C50   H10   S    
C70   H23   S    
C4    C14   S    
C37   C38   A    
C5    C6    A    
C12   C13   A    
C3    C20   S    
C61   C62   A    
C32   H6    S    
O3    C4    A    
N2    H37   S    
C24   C31   A    
C25   C26   A    
O14   C66   A    
N4    H46   S    
C58   C59   A    
O6    V2    S    
O9    V2    S    
C28   C29   A    
N6    H49   S    
C63   N5    S    
C55   C56   A    
C27   C28   A    
O19   C68   A    
N1    H29   S    
O2    V1    S    
N5    H47   S    
C76   H42   S    
C21   H4    S    
O26   C79   S    
C55   C57   A    
C77   H51   S    
O7    V1    S    
C79   C80   S    
C13   C18   A    
O12   V3    S    
O18   V4    S    
C45   C50   A    
C80   H60   S    
O14   V3    S    
C18   H3    S    
O1    C2    A    
C17   O21   S    
C5    N3    S    
C29   C30   A    
C73   H32   S    
O5    V1    S    
C1    C49   S    
C35   C40   A    
C35   C36   A    
C74   H33   S    
C54   H15   S    
C78   H55   S    
C58   C61   A    
O18   C67   A    
O15   C67   A    
C5    C10   A    
C38   C41   A    
O17   V4    S    
C46   C47   A    
C9    C11   A    
O23   C73   S    
O7    V2    S    
C23   C28   A    
O3    V1    S    
C65   O16   A    
N3    H43   S    
V3    O20   S    
C54   C55   A    
C39   C40   A    
C33   C68   S    
O25   C77   S    
C33   C34   A    
C2    C60   S    
C75   H39   S    
C27   C32   A    
C73   H31   S    
O13   V3    S    
N2    H36   S    
C51   H13   S    
C11   C12   A    
C45   C46   A    
C30   C31   A    
O4    V1    S    
C8    C9    A    
O22   C71   S    
C10   C14   A    
V4    O20   S    
O17   V3    S    
C75   H38   S    
O16   V4    S    
V1    O10   S    
N4    H45   S    
O24   C75   S    
C69   C70   S    
N8    H63   S    
C70   H21   S    
O8    C3    A    
C15   C16   A    
