data_mof_unit_pretest_1838.cif
_audit_creation_date              2013-03-05T16:14:35-0500
_audit_creation_method            fapswitch 2.2
_symmetry_space_group_name_H-M    P1
_symmetry_Int_Tables_number       1
_space_group_crystal_system       triclinic
_cell_length_a                    44.448766
_cell_length_b                    38.987805
_cell_length_c                    21.734444
_cell_angle_alpha                 90.444795
_cell_angle_beta                  61.486968
_cell_angle_gamma                 90.246425
_cell_volume                      33095.4811205

loop_
_atom_site_label
_atom_site_type_symbol
_atom_site_description
_atom_site_fract_x
_atom_site_fract_y
_atom_site_fract_z
_atom_type_partial_charge
O1    O     O_R   0.049910 0.528880 0.450120 -0.552940
O2    O     O_R   0.950090 0.528880 0.549880 -0.599483
O3    O     O_R   0.549910 0.028880 0.450120 -0.553761
O4    O     O_R   0.450090 0.028880 0.549880 -0.598760
O5    O     O_R   0.049890 0.471110 0.450120 -0.595013
O6    O     O_R   0.950110 0.471110 0.549880 -0.549919
O7    O     O_R   0.549890 0.971110 0.450120 -0.593990
O8    O     O_R   0.450110 0.971110 0.549880 -0.550831
C1    C     C_R   0.066205 0.499973 0.432300 0.854520
C2    C     C_R   0.933784 0.499995 0.567729 0.852347
C3    C     C_R   0.566202 0.999971 0.432224 0.854952
C4    C     C_R   0.433791 1.000000 0.567994 0.854906
O9    O     O_R   0.000000 0.528880 0.590170 -0.579903
O10   O     O_R   0.000000 0.528880 0.409830 -0.594480
O11   O     O_R   0.500000 0.028880 0.590170 -0.581343
O12   O     O_R   0.500000 0.028880 0.409830 -0.592822
O13   O     O_R   0.999990 0.471110 0.590170 -0.586323
O14   O     O_R   0.000010 0.471110 0.409830 -0.571534
O15   O     O_R   0.499990 0.971110 0.590170 -0.584658
O16   O     O_R   0.500010 0.971110 0.409830 -0.572339
C5    C     C_R   0.002161 0.500163 0.616922 0.843968
C6    C     C_R   0.997830 0.499816 0.383082 0.844896
C7    C     C_R   0.502174 0.000169 0.616895 0.843471
C8    C     C_R   0.497877 0.999821 0.383057 0.846121
Cu1   Cu    Cu3+1 0.000000 0.534200 0.500000 1.015597
Cu2   Cu    Cu3+1 0.500000 0.034200 0.500000 1.015787
Cu3   Cu    Cu3+1 0.000000 0.465790 0.500000 1.039307
Cu4   Cu    Cu3+1 0.500000 0.965790 0.500000 1.041219
H1    H     H_    0.972298 0.455616 0.720185 0.169918
H2    H     H_    0.027221 0.544656 0.280227 0.157819
H3    H     H_    0.471343 0.956346 0.721031 0.170457
H4    H     H_    0.529561 0.042979 0.278057 0.155942
C9    C     C_R   0.046645 0.549665 0.647364 0.356537
C10   C     C_R   0.953893 0.449784 0.352116 0.353289
C11   C     C_R   0.547309 0.049092 0.646639 0.356617
C12   C     C_R   0.451795 0.951763 0.354514 0.351972
C13   C     C_R   0.057644 0.578651 0.669882 -0.179881
C14   C     C_R   0.943225 0.420674 0.329286 -0.178419
C15   C     C_R   0.558759 0.077902 0.668719 -0.179276
C16   C     C_R   0.439580 0.923280 0.333183 -0.175339
H5    H     H_    0.075226 0.596784 0.632307 0.179282
H6    H     H_    0.925889 0.402318 0.366656 0.183486
H7    H     H_    0.576592 0.095780 0.630875 0.179429
H8    H     H_    0.421481 0.905728 0.371440 0.184177
C17   C     C_R   0.048213 0.583309 0.740160 -0.208122
C18   C     C_R   0.952621 0.416172 0.258998 -0.178529
C19   C     C_R   0.549435 0.082687 0.738911 -0.208065
C20   C     C_R   0.448363 0.918537 0.263293 -0.174256
H9    H     H_    0.057210 0.605538 0.756810 0.158449
H10   H     H_    0.943847 0.393859 0.242121 0.171501
H11   H     H_    0.558768 0.104779 0.755224 0.158338
H12   H     H_    0.438333 0.896783 0.247588 0.173093
C21   C     C_R   0.029152 0.558288 0.788360 -0.159193
C22   C     C_R   0.971316 0.441449 0.211123 -0.111658
C23   C     C_R   0.530014 0.057953 0.787478 -0.159393
C24   C     C_R   0.468100 0.942957 0.214304 -0.103840
H13   H     H_    0.023515 0.562152 0.842163 0.136846
H14   H     H_    0.976839 0.437729 0.157366 0.155862
H15   H     H_    0.524426 0.061916 0.841227 0.136970
H16   H     H_    0.473035 0.939116 0.160971 0.162429
C25   C     C_R   0.017112 0.529207 0.767573 0.056716
C26   C     C_R   0.983132 0.470608 0.232164 0.056874
C27   C     C_R   0.517528 0.029059 0.767134 0.055691
C28   C     C_R   0.481648 0.971345 0.233692 0.059631
C29   C     C_R   0.022790 0.526537 0.697750 -0.008923
C30   C     C_R   0.977464 0.473201 0.301994 -0.013329
C31   C     C_R   0.523141 0.026307 0.697361 -0.008194
C32   C     C_R   0.476327 0.974097 0.303262 -0.014066
C33   C     C_R   0.004816 0.500514 0.681702 -0.083288
C34   C     C_R   0.995166 0.499424 0.318301 -0.072657
C35   C     C_R   0.504773 0.000553 0.681710 -0.083342
C36   C     C_R   0.495282 0.999445 0.318256 -0.070472
C37   C     C_R   0.985926 0.475623 0.731649 -0.192026
C38   C     C_R   0.013796 0.524503 0.268587 -0.195065
C39   C     C_R   0.485361 0.976075 0.732135 -0.191058
C40   C     C_R   0.515151 0.023536 0.267339 -0.196081
H17   H     H_    0.970088 0.456124 0.834055 0.198787
H18   H     H_    0.029433 0.544151 0.166350 0.146129
H19   H     H_    0.468956 0.957024 0.834980 0.206821
H20   H     H_    0.531802 0.042344 0.164135 0.147467
C41   C     C_R   0.983864 0.476325 0.797193 -0.163294
C42   C     C_R   0.015867 0.523809 0.203035 -0.189993
C43   C     C_R   0.483249 0.976862 0.797704 -0.154774
C44   C     C_R   0.517198 0.022726 0.201814 -0.188694
C45   C     C_R   0.999464 0.502713 0.815191 -0.076702
C46   C     C_R   0.000532 0.497263 0.184794 -0.042968
C47   C     C_R   0.499440 0.002865 0.815184 -0.080840
C48   C     C_R   0.500432 0.997066 0.184938 -0.042081
C49   C     C_R   0.377741 0.500074 0.065003 -0.171758
C50   C     C_R   0.622268 0.502625 0.934838 -0.174318
C51   C     C_R   0.877748 0.999895 0.064975 -0.168995
C52   C     C_R   0.122236 0.003456 0.934792 -0.172584
H21   H     H_    0.390987 0.500328 0.008310 0.157841
H22   H     H_    0.609010 0.504986 0.991369 0.157270
H23   H     H_    0.890999 0.000005 0.008278 0.158370
H24   H     H_    0.108952 0.006495 0.991191 0.157847
C53   C     C_R   0.342016 0.499983 0.100066 -0.156572
C54   C     C_R   0.657998 0.502587 0.899796 -0.156794
C55   C     C_R   0.842024 0.999804 0.100021 -0.156315
C56   C     C_R   0.157965 0.003436 0.899817 -0.156809
H25   H     H_    0.328545 0.499826 0.069667 0.134924
H26   H     H_    0.671490 0.504573 0.930045 0.135173
H27   H     H_    0.828561 0.999504 0.069606 0.134886
H28   H     H_    0.171434 0.006105 0.929998 0.135196
C57   C     C_R   0.323905 0.499538 0.173551 0.100188
C58   C     C_R   0.676108 0.499475 0.826546 0.099165
C59   C     C_R   0.823904 0.999540 0.173511 0.100369
C60   C     C_R   0.176106 0.999476 0.826743 0.098956
C61   C     C_R   0.342194 0.499184 0.211311 -0.158185
C62   C     C_R   0.657843 0.496444 0.788955 -0.158530
C63   C     C_R   0.842186 0.999363 0.211293 -0.158076
C64   C     C_R   0.157873 0.995583 0.789250 -0.158690
H29   H     H_    0.328871 0.499277 0.268014 0.135178
H30   H     H_    0.671209 0.494386 0.732372 0.135971
H31   H     H_    0.828856 0.999598 0.267996 0.134778
H32   H     H_    0.171270 0.992840 0.732785 0.135808
C65   C     C_R   0.377904 0.499295 0.176290 -0.135964
C66   C     C_R   0.622123 0.496631 0.823931 -0.132176
C67   C     C_R   0.877896 0.999469 0.176287 -0.138222
C68   C     C_R   0.122148 0.995785 0.824150 -0.133327
H33   H     H_    0.391267 0.499101 0.206894 0.164569
H34   H     H_    0.608758 0.494336 0.793482 0.166803
H35   H     H_    0.891254 0.999418 0.206905 0.163567
H36   H     H_    0.108798 0.992808 0.793800 0.166935
C69   C     C_R   0.396042 0.499761 0.102778 -0.024623
C70   C     C_R   0.603971 0.499720 0.897234 -0.025795
C71   C     C_R   0.896042 0.999758 0.102770 -0.024464
C72   C     C_R   0.103969 0.999716 0.897282 -0.026493
C73   C     C_R   0.267981 0.478432 0.269349 -0.161023
C74   C     C_R   0.732030 0.475987 0.734681 -0.161953
C75   C     C_R   0.767969 0.978584 0.269524 -0.161332
C76   C     C_R   0.232070 0.975375 0.736348 -0.162624
H37   H     H_    0.281478 0.461704 0.287450 0.141738
H38   H     H_    0.718519 0.457413 0.719600 0.142562
H39   H     H_    0.781457 0.961971 0.287841 0.141689
H40   H     H_    0.218588 0.956319 0.722251 0.142481
C77   C     C_R   0.232274 0.478473 0.304716 -0.159012
C78   C     C_R   0.767749 0.476010 0.699448 -0.159200
C79   C     C_R   0.732262 0.978622 0.304853 -0.158876
C80   C     C_R   0.267792 0.975393 0.701256 -0.159193
H41   H     H_    0.219004 0.462287 0.350183 0.140708
H42   H     H_    0.781077 0.457853 0.657066 0.143342
H43   H     H_    0.718985 0.962553 0.350505 0.140963
H44   H     H_    0.281156 0.956734 0.659935 0.143216
C81   C     C_R   0.213926 0.499564 0.282229 0.097475
C82   C     C_R   0.786054 0.499596 0.718036 0.095664
C83   C     C_R   0.713923 0.999559 0.282086 0.097437
C84   C     C_R   0.286055 0.999607 0.718598 0.095849
C85   C     C_R   0.231979 0.520575 0.223611 -0.165574
C86   C     C_R   0.767993 0.523070 0.772693 -0.167299
C87   C     C_R   0.731985 0.020423 0.223232 -0.165711
C88   C     C_R   0.267946 0.023715 0.771877 -0.167850
H45   H     H_    0.218463 0.536830 0.204762 0.132823
H46   H     H_    0.781523 0.541317 0.788408 0.133676
H47   H     H_    0.718479 0.036558 0.204167 0.132953
H48   H     H_    0.281438 0.042466 0.786622 0.133679
C89   C     C_R   0.267700 0.520505 0.188183 -0.166502
C90   C     C_R   0.732265 0.522929 0.808184 -0.167109
C91   C     C_R   0.767707 0.020359 0.187846 -0.166181
C92   C     C_R   0.232216 0.023576 0.807242 -0.167022
H49   H     H_    0.280989 0.537217 0.143593 0.133067
H50   H     H_    0.718929 0.541472 0.849771 0.133542
H51   H     H_    0.781002 0.036959 0.143068 0.133774
H52   H     H_    0.218842 0.042601 0.847756 0.134258
C93   C     C_R   0.286041 0.499464 0.210777 0.093741
C94   C     C_R   0.713959 0.499438 0.789385 0.093522
C95   C     C_R   0.786039 0.999468 0.210713 0.093490
C96   C     C_R   0.213956 0.999455 0.789680 0.093266
C97   C     C_R   0.157820 0.468800 0.343200 -0.155137
C98   C     C_R   0.842178 0.468785 0.664230 -0.162891
C99   C     C_R   0.657820 0.968812 0.343405 -0.155307
C100  C     C_R   0.342209 0.968880 0.666610 -0.162455
H53   H     H_    0.171166 0.444516 0.332754 0.137390
H54   H     H_    0.828836 0.444494 0.680288 0.138876
H55   H     H_    0.671168 0.944542 0.333268 0.137646
H56   H     H_    0.328886 0.944652 0.684022 0.138511
C101  C     C_R   0.122121 0.468897 0.379416 -0.152460
C102  C     C_R   0.877886 0.468884 0.628133 -0.103470
C103  C     C_R   0.622121 0.968910 0.379633 -0.150154
C104  C     C_R   0.377918 0.968982 0.630462 -0.104647
H57   H     H_    0.108780 0.444678 0.396762 0.161300
H58   H     H_    0.891261 0.444597 0.616869 0.179432
H59   H     H_    0.608784 0.944710 0.397306 0.162099
H60   H     H_    0.391320 0.944759 0.620533 0.176869
C105  C     C_R   0.103958 0.499885 0.393208 -0.004164
C106  C     C_R   0.896010 0.499951 0.606958 -0.006567
C107  C     C_R   0.603954 0.999879 0.393055 -0.003483
C108  C     C_R   0.396018 0.999972 0.607488 -0.003463
C109  C     C_R   0.122201 0.530751 0.369588 -0.112875
C110  C     C_R   0.877701 0.530942 0.623366 -0.165904
C111  C     C_R   0.622191 0.030719 0.369011 -0.113259
C112  C     C_R   0.377686 0.030903 0.622280 -0.161320
H61   H     H_    0.108912 0.555030 0.379238 0.172871
H62   H     H_    0.890937 0.555297 0.607724 0.156815
H63   H     H_    0.608896 0.054979 0.378346 0.172249
H64   H     H_    0.390905 0.055198 0.605230 0.157039
C113  C     C_R   0.157915 0.530645 0.333353 -0.163283
C114  C     C_R   0.841979 0.530838 0.659804 -0.157964
C115  C     C_R   0.657906 0.030613 0.332768 -0.162919
C116  C     C_R   0.341965 0.030802 0.658758 -0.158683
H65   H     H_    0.171355 0.554853 0.316689 0.135699
H66   H     H_    0.828461 0.555048 0.670974 0.134993
H67   H     H_    0.671341 0.054807 0.315795 0.135842
H68   H     H_    0.328431 0.054948 0.668582 0.135209
C117  C     C_R   0.176066 0.499675 0.319972 0.097160
C118  C     C_R   0.823897 0.499751 0.680305 0.096493
C119  C     C_R   0.676061 0.999666 0.319791 0.096800
C120  C     C_R   0.323903 0.999776 0.680958 0.096012
O17   O     O_R   0.971110 0.450080 0.028870 -0.554876
O18   O     O_R   0.028890 0.450080 0.971130 -0.537698
O19   O     O_R   0.471110 0.950080 0.028870 -0.563682
O20   O     O_R   0.528890 0.950080 0.971130 -0.541188
C121  C     C_R   0.999987 0.433808 0.000207 0.926778
C122  C     C_R   0.500005 0.933848 0.000261 0.939723
O21   O     O_R   0.971100 0.499980 0.938700 -0.567924
O22   O     O_R   0.028900 0.499980 0.061300 -0.560120
O23   O     O_R   0.471100 0.999980 0.938700 -0.570397
O24   O     O_R   0.528900 0.999980 0.061300 -0.560369
O25   O     O_R   0.028870 0.499990 0.880960 -0.580358
O26   O     O_R   0.971130 0.499990 0.119040 -0.592042
O27   O     O_R   0.528870 0.999990 0.880960 -0.579152
O28   O     O_R   0.471130 0.999990 0.119040 -0.595769
C123  C     C_R   0.999742 0.500510 0.881503 0.795545
C124  C     C_R   0.000257 0.499453 0.118490 0.781481
C125  C     C_R   0.499738 0.000590 0.881497 0.804394
C126  C     C_R   0.500241 0.999317 0.118517 0.786447
Cu5   Cu    Cu3+1 0.965790 0.499980 0.034190 1.013220
Cu6   Cu    Cu3+1 0.034210 0.499980 0.965810 1.025442
Cu7   Cu    Cu3+1 0.465790 0.999980 0.034190 1.004122
Cu8   Cu    Cu3+1 0.534210 0.999980 0.965810 1.022155
O29   O     O_R   0.971110 0.549890 0.028880 -0.587942
O30   O     O_R   0.028890 0.549890 0.971120 -0.596518
O31   O     O_R   0.471110 0.049890 0.028880 -0.587977
O32   O     O_R   0.528890 0.049890 0.971120 -0.597114
C127  C     C_R   0.000008 0.566191 0.999748 0.754134
C128  C     C_R   0.500008 0.066191 0.999745 0.755343
O33   O     O_R   0.499990 0.450010 0.052090 -0.551382
O34   O     O_R   0.500010 0.450010 0.947910 -0.552317
O35   O     O_R   0.999990 0.950010 0.052090 -0.551365
O36   O     O_R   0.000010 0.950010 0.947910 -0.552497
C129  C     C_R   0.500014 0.433898 0.999770 0.926264
C130  C     C_R   0.000015 0.933897 0.999769 0.926402
O37   O     O_R   0.450090 0.499920 0.102070 -0.572992
O38   O     O_R   0.549910 0.499920 0.897930 -0.573462
O39   O     O_R   0.950090 0.999920 0.102070 -0.575159
O40   O     O_R   0.049910 0.999920 0.897930 -0.575821
O41   O     O_R   0.450080 0.499990 0.997700 -0.595929
O42   O     O_R   0.549920 0.499990 0.002300 -0.595298
O43   O     O_R   0.950080 0.999990 0.997700 -0.593600
O44   O     O_R   0.049920 0.999990 0.002300 -0.592742
C131  C     C_R   0.433816 0.499900 0.065799 0.808415
C132  C     C_R   0.566188 0.499891 0.934198 0.808630
C133  C     C_R   0.933816 0.999898 0.065798 0.809561
C134  C     C_R   0.066187 0.999888 0.934203 0.809769
Cu9   Cu    Cu3+1 0.500000 0.499920 0.061800 1.003000
Cu10  Cu    Cu3+1 0.500000 0.499920 0.938200 1.002690
Cu11  Cu    Cu3+1 1.000000 0.999920 0.061800 1.001633
Cu12  Cu    Cu3+1 0.000000 0.999920 0.938200 1.001127
O45   O     O_R   0.500010 0.549830 0.052290 -0.590052
O46   O     O_R   0.499990 0.549830 0.947710 -0.588870
O47   O     O_R   0.000010 0.049830 0.052290 -0.592390
O48   O     O_R   0.999990 0.049830 0.947710 -0.591046
C135  C     C_R   0.500004 0.566061 0.000219 0.767743
C136  C     C_R   0.999998 0.066099 0.000223 0.770638
C137  C     C_R   0.514641 0.621972 0.035992 -0.179301
C138  C     C_R   0.485276 0.622017 0.966367 -0.179348
C139  C     C_R   0.008355 0.122192 0.939231 -0.177153
C140  C     C_R   0.991682 0.122129 0.062911 -0.177458
H69   H     H_    0.526273 0.608468 0.062646 0.151543
H70   H     H_    0.473687 0.608547 0.939197 0.151995
H71   H     H_    0.014954 0.108833 0.890562 0.156431
H72   H     H_    0.985058 0.108720 0.111178 0.155989
C141  C     C_R   0.514945 0.657789 0.035960 -0.152757
C142  C     C_R   0.484836 0.657833 0.967839 -0.151490
C143  C     C_R   0.008611 0.157992 0.939695 -0.153544
C144  C     C_R   0.991500 0.157928 0.063542 -0.154533
H73   H     H_    0.526572 0.671412 0.062894 0.148545
H74   H     H_    0.473171 0.671494 0.941421 0.149340
H75   H     H_    0.015055 0.171546 0.891655 0.142559
H76   H     H_    0.985074 0.171430 0.111996 0.141762
C145  C     C_R   0.499849 0.675895 0.002277 0.099369
C146  C     C_R   0.000080 0.176133 0.001894 0.107620
C147  C     C_R   0.499989 0.603813 0.000823 -0.025243
C148  C     C_R   0.000005 0.103925 0.000790 -0.031047
C149  C     C_R   0.468796 0.731671 0.031446 -0.169346
C150  C     C_R   0.530823 0.731749 0.974804 -0.170634
C151  C     C_R   0.972297 0.232160 0.054679 -0.168185
C152  C     C_R   0.027896 0.232171 0.950655 -0.169616
H77   H     H_    0.444648 0.718004 0.053707 0.143873
H78   H     H_    0.554985 0.718143 0.952271 0.144544
H79   H     H_    0.950496 0.218638 0.094780 0.138947
H80   H     H_    0.049713 0.218659 0.910263 0.139533
C153  C     C_R   0.972157 0.267956 0.054694 -0.064468
C154  C     C_R   0.027925 0.267963 0.951222 -0.061191
C155  C     C_R   0.468764 0.767479 0.032406 -0.067466
C156  C     C_R   0.530827 0.767552 0.974203 -0.061691
H81   H     H_    0.950440 0.281661 0.094935 0.143929
H82   H     H_    0.049559 0.281672 0.911079 0.147407
H83   H     H_    0.444559 0.781014 0.055637 0.154133
H84   H     H_    0.555025 0.781135 0.950898 0.156964
C157  C     C_R   0.999996 0.285967 0.003048 0.228474
C158  C     C_R   0.499790 0.785706 0.003278 0.214914
C159  C     C_R   0.499819 0.713630 0.002932 0.076291
C160  C     C_R   0.000104 0.213989 0.002459 0.084143
C161  C     C_R   0.021603 0.342217 0.021703 0.268236
C162  C     C_R   0.977987 0.341350 0.983438 0.266600
C163  C     C_R   0.516787 0.842410 0.033131 0.269956
C164  C     C_R   0.482983 0.841482 0.971277 0.268139
C165  C     C_R   0.021357 0.378285 0.021487 0.247490
C166  C     C_R   0.978330 0.377401 0.981971 0.265511
C167  C     C_R   0.517280 0.878480 0.031209 0.241614
C168  C     C_R   0.482797 0.877554 0.971339 0.266508
C169  C     C_R   0.999927 0.395983 0.001138 -0.314337
C170  C     C_R   0.500021 0.896084 0.000973 -0.306167
C171  C     C_R   0.999814 0.323774 0.002868 -0.289670
C172  C     C_R   0.499795 0.823757 0.002698 -0.277925
C173  C     C_R   0.527387 0.378217 0.945444 0.326715
C174  C     C_R   0.472684 0.378176 0.052510 0.326404
C175  C     C_R   0.027381 0.878218 0.945419 0.326724
C176  C     C_R   0.972694 0.878174 0.052523 0.326253
C177  C     C_R   0.527376 0.342405 0.945486 -0.186486
C178  C     C_R   0.472764 0.342370 0.051591 -0.186719
C179  C     C_R   0.027370 0.842405 0.945457 -0.186696
C180  C     C_R   0.972774 0.842369 0.051600 -0.186894
H85   H     H_    0.549036 0.328892 0.904696 0.174379
H86   H     H_    0.451129 0.328827 0.092070 0.174617
H87   H     H_    0.049024 0.828892 0.904649 0.174284
H88   H     H_    0.951146 0.828824 0.092093 0.174600
C181  C     C_R   0.500100 0.324135 0.998353 -0.033165
C182  C     C_R   0.000103 0.824134 0.998341 -0.033162
C183  C     C_R   0.500028 0.396333 0.999228 -0.193547
C184  C     C_R   0.000030 0.896332 0.999225 -0.193435
C185  C     C_R   0.487883 0.267973 0.061190 -0.158847
C186  C     C_R   0.512540 0.267683 0.934805 -0.158524
C187  C     C_R   0.987904 0.767971 0.061170 -0.159011
C188  C     C_R   0.012524 0.767683 0.934793 -0.158725
H89   H     H_    0.478804 0.281405 0.110664 0.140407
H90   H     H_    0.521631 0.280895 0.885455 0.139999
H91   H     H_    0.978839 0.781403 0.110640 0.140293
H92   H     H_    0.021600 0.780896 0.885447 0.139854
C189  C     C_R   0.987738 0.732201 0.061022 -0.173162
C190  C     C_R   0.012684 0.731896 0.934634 -0.173571
C191  C     C_R   0.487719 0.232203 0.061043 -0.173013
C192  C     C_R   0.512702 0.231896 0.934649 -0.173468
H93   H     H_    0.978383 0.718801 0.110265 0.137495
H94   H     H_    0.022041 0.718249 0.885296 0.135872
H95   H     H_    0.478350 0.218802 0.110290 0.137615
H96   H     H_    0.522074 0.218248 0.885307 0.135999
C193  C     C_R   0.000178 0.713892 0.997766 0.091608
C194  C     C_R   0.500179 0.213893 0.997785 0.091500
C195  C     C_R   0.500182 0.286123 0.998091 0.140041
C196  C     C_R   0.000184 0.786122 0.998076 0.140100
C197  C     C_R   0.029315 0.657737 0.950896 -0.162516
C198  C     C_R   0.970754 0.658063 0.044918 -0.163168
C199  C     C_R   0.529326 0.157739 0.950947 -0.162187
C200  C     C_R   0.470748 0.158063 0.044901 -0.163159
H97   H     H_    0.052276 0.671132 0.914347 0.134230
H98   H     H_    0.947817 0.671706 0.081083 0.135944
H99   H     H_    0.552292 0.171135 0.914427 0.134220
H100  H     H_    0.447805 0.171705 0.081041 0.135896
C201  C     C_R   0.029365 0.621955 0.951755 -0.190145
C202  C     C_R   0.970644 0.622290 0.045186 -0.172349
C203  C     C_R   0.529375 0.121957 0.951798 -0.190142
C204  C     C_R   0.470638 0.122290 0.045162 -0.172337
H101  H     H_    0.052273 0.608400 0.915196 0.152041
H102  H     H_    0.947687 0.609013 0.082082 0.156128
H103  H     H_    0.552289 0.108403 0.915264 0.151690
H104  H     H_    0.447674 0.109012 0.082029 0.155992
C205  C     C_R   0.000018 0.603937 0.998916 -0.027563
C206  C     C_R   0.500019 0.103938 0.998920 -0.027386
C207  C     C_R   0.000074 0.676059 0.997755 0.104339
C208  C     C_R   0.500076 0.176060 0.997773 0.104357
N1    N     N_R   0.064512 0.541145 0.574329 0.112044
O49   O     O_R   0.076929 0.510378 0.555575 -0.394396
O50   O     O_R   0.075851 0.565466 0.527983 -0.382386
N2    N     N_R   0.935960 0.458060 0.425257 0.111834
O51   O     O_R   0.925038 0.433585 0.471275 -0.378390
O52   O     O_R   0.923134 0.488652 0.444472 -0.399842
N3    N     N_R   0.564996 0.040338 0.573720 0.111236
O53   O     O_R   0.577018 0.009415 0.555358 -0.393478
O54   O     O_R   0.576696 0.064521 0.527091 -0.382675
N4    N     N_R   0.434475 0.960783 0.427280 0.109186
O55   O     O_R   0.422380 0.936754 0.474200 -0.378459
O56   O     O_R   0.422904 0.991878 0.445231 -0.400581
N5    N     N_R   0.043485 0.324333 0.042479 0.165725
O57   O     O_R   0.030949 0.301134 0.091085 -0.341473
O58   O     O_R   0.076173 0.330740 0.011907 -0.280022
N6    N     N_R   0.956012 0.322583 0.963606 0.165827
O59   O     O_R   0.968500 0.298818 0.915560 -0.336944
O60   O     O_R   0.923307 0.328853 0.994333 -0.286046
N7    N     N_R   0.532519 0.824794 0.068235 0.158736
O61   O     O_R   0.514956 0.802998 0.117655 -0.341245
O62   O     O_R   0.564626 0.829957 0.049977 -0.285249
N8    N     N_R   0.467197 0.822897 0.936874 0.159910
O63   O     O_R   0.484680 0.800422 0.888343 -0.333724
O64   O     O_R   0.435167 0.828029 0.954618 -0.292489
Cl1   Cl    Cl    0.045875 0.401066 0.052899 -0.522766
Cl2   Cl    Cl    0.953753 0.398962 0.949818 -0.535767
Cl3   Cl    Cl    0.537611 0.901601 0.071506 -0.536249
Cl4   Cl    Cl    0.463345 0.899478 0.928561 -0.550015
Cl5   Cl    Cl    0.562808 0.399608 0.878654 -0.615278
Cl6   Cl    Cl    0.437218 0.399502 0.119818 -0.612313
Cl7   Cl    Cl    0.062793 0.899609 0.878606 -0.616828
Cl8   Cl    Cl    0.937237 0.899498 0.119857 -0.612661

loop_
_geom_bond_atom_site_label_1
_geom_bond_atom_site_label_2
_geom_bond_distance
_ccdc_geom_bond_type
C55   H27   1.082926 S    
O43   C133  1.300692 A    
C23   H15   1.082014 S    
C114  C118  1.404129 A    
C200  C208  1.403330 A    
C62   C66   1.395164 A    
C49   C69   1.404927 A    
C139  C143  1.395758 A    
C162  C166  1.406037 A    
C51   C71   1.404930 A    
C98   C102  1.394920 A    
Cu11  O47   1.958395 S    
C58   C94   1.478382 S    
C154  H82   1.083223 S    
O45   C135  1.301033 A    
C97   C117  1.404157 A    
C186  C192  1.395275 A    
O27   C125  1.289636 A    
C56   H28   1.083015 S    
C177  C181  1.404561 A    
C143  C146  1.403425 A    
C85   H45   1.082899 S    
C77   H41   1.082913 S    
C82   C86   1.404393 A    
C192  H96   1.083165 S    
O28   Cu7   1.968549 S    
O17   C121  1.294414 A    
C34   C38   1.401583 A    
C164  N8    1.436861 S    
C152  C154  1.395438 A    
C188  C196  1.406143 A    
C86   C90   1.395510 A    
C145  C159  1.471179 S    
C146  C160  1.475878 S    
C53   C57   1.404302 A    
C116  C120  1.404087 A    
C74   H38   1.083090 S    
O32   C128  1.295154 A    
C37   C41   1.383217 A    
C27   C31   1.417758 A    
C59   C95   1.478926 S    
C150  C159  1.402104 A    
C64   C68   1.395361 A    
C165  C169  1.411286 A    
C127  C205  1.471869 S    
C155  H83   1.083053 S    
O16   Cu4   1.972132 S    
C54   H26   1.083102 S    
C178  C181  1.404671 A    
C161  N5    1.437414 S    
O13   C5    1.293389 A    
O7    Cu4   1.959635 S    
O26   Cu5   1.968549 S    
C106  C110  1.405023 A    
O15   C7    1.293473 A    
O22   C124  1.286740 A    
C9    N1    1.432254 S    
Cu7   Cu8   2.672537 S    
H18   C42   1.083962 S    
Cu5   Cu6   2.672537 S    
C185  H89   1.082657 S    
C186  C195  1.406145 A    
C32   C36   1.429227 A    
C149  C155  1.396054 A    
C176  C184  1.407457 A    
O9    C5    1.290421 A    
C102  H58   1.082705 S    
C25   C45   1.409968 A    
C155  C158  1.404525 A    
C73   H37   1.082917 S    
O42   C132  1.300716 A    
O8    Cu4   1.959872 S    
C13   C17   1.388098 A    
C74   C78   1.395086 A    
C176  C180  1.395977 A    
C137  C147  1.404456 A    
C15   C19   1.388014 A    
C98   H54   1.083078 S    
C201  C205  1.404443 A    
C16   C20   1.387127 A    
O18   Cu6   1.956443 S    
O35   Cu11  1.955688 S    
O3    Cu2   1.960640 S    
C44   C48   1.392685 A    
C15   H7    1.082749 S    
C12   C32   1.426650 A    
C67   H35   1.082864 S    
C54   C58   1.404146 A    
C30   C34   1.429587 A    
C144  C146  1.403232 A    
C139  C148  1.404827 A    
C91   C95   1.404615 A    
Cu8   O32   1.957066 S    
C165  Cl1   1.770651 S    
C129  C183  1.464533 S    
O3    C3    1.295122 A    
N8    O63   1.301238 A    
C102  C106  1.405045 A    
C25   C29   1.417641 A    
C20   H12   1.082656 S    
C73   C77   1.394661 A    
O38   Cu10  1.957997 S    
C49   C53   1.395330 A    
C22   C26   1.411884 A    
C150  H78   1.083236 S    
C179  H87   1.082916 S    
O24   C126  1.287500 A    
C197  H97   1.083128 S    
C104  H60   1.082717 S    
N5    O58   1.301024 A    
C199  H99   1.083127 S    
C191  H95   1.083179 S    
O43   Cu12  1.963747 S    
C10   C30   1.426717 A    
C81   C117  1.478863 S    
O37   Cu9   1.958005 S    
C173  C183  1.407670 A    
C156  C158  1.404490 A    
C26   C46   1.409824 A    
O22   Cu6   1.973682 S    
C28   C32   1.417757 A    
C122  C170  1.472563 S    
H2    C38   1.083724 S    
C175  C184  1.407682 A    
C191  C194  1.402788 A    
C149  H77   1.083230 S    
C52   H24   1.082866 S    
C63   C67   1.394774 A    
Cu11  Cu12  2.686377 S    
C66   H34   1.082974 S    
C154  C157  1.401010 A    
C173  Cl5   1.762707 S    
O5    Cu3   1.959635 S    
C21   C25   1.411981 A    
C48   C126  1.451035 S    
C140  H72   1.082955 S    
C168  C170  1.407681 A    
N6    O59   1.301186 A    
C23   C27   1.411977 A    
O27   Cu8   1.968555 S    
C114  H66   1.083060 S    
C72   C134  1.475691 S    
C24   C28   1.412234 A    
O25   Cu6   1.968555 S    
C197  C207  1.403488 A    
C62   H30   1.083107 S    
C163  C167  1.406997 A    
O8    C4    1.295102 A    
C197  C201  1.395349 A    
O41   Cu10  1.963747 S    
C112  C116  1.395625 A    
C60   C96   1.478353 S    
C75   C95   1.404391 A    
C99   C103  1.394646 A    
Cu12  O48   1.955207 S    
Cu7   O31   1.956825 S    
C97   C101  1.394660 A    
N2    O52   1.301088 A    
C56   C60   1.403952 A    
O37   C131  1.299642 A    
C26   C30   1.417728 A    
O13   Cu3   1.968925 S    
C144  H76   1.083164 S    
C69   C131  1.475386 S    
C89   C93   1.404599 A    
C199  C208  1.403482 A    
C198  H98   1.083166 S    
C185  C195  1.405843 A    
C151  C153  1.395641 A    
C5    C33   1.467897 S    
C87   C91   1.395249 A    
C83   C87   1.404492 A    
O5    C1    1.293749 A    
C11   C31   1.426485 A    
C76   H40   1.082996 S    
C140  C144  1.395721 A    
O15   Cu4   1.968925 S    
C137  C141  1.396440 A    
C87   H47   1.082893 S    
C151  C160  1.404822 A    
C130  C184  1.464545 S    
C174  C183  1.407454 A    
O4    C4    1.294303 A    
C181  C195  1.481973 S    
C153  C157  1.401049 A    
C187  C189  1.394568 A    
C8    C36   1.466947 S    
C60   C64   1.404060 A    
N7    O62   1.301041 A    
C57   C61   1.404211 A    
C158  C172  1.483651 S    
C71   C133  1.475394 S    
C59   C63   1.404240 A    
C84   C88   1.404291 A    
H4    C40   1.083818 S    
O47   C136  1.301786 A    
O1    Cu1   1.960640 S    
C105  C109  1.404615 A    
O41   C131  1.300700 A    
O18   C121  1.294772 A    
C198  C202  1.394761 A    
O33   C129  1.294403 A    
C108  C112  1.404951 A    
O10   C6    1.293698 A    
C187  C196  1.405837 A    
C178  H86   1.082923 S    
C78   C82   1.404447 A    
C101  H57   1.082864 S    
Cu10  O46   1.955207 S    
C2    C106  1.476241 S    
O21   Cu5   1.973681 S    
C13   H5    1.082749 S    
O31   C128  1.295175 A    
C111  H63   1.082771 S    
C14   C18   1.387919 A    
C75   C79   1.394662 A    
C51   H23   1.082850 S    
C109  H61   1.082762 S    
C16   H8    1.082756 S    
O19   C122  1.294256 A    
C97   H53   1.082936 S    
O29   C127  1.295169 A    
C51   C55   1.395302 A    
C99   C119  1.404162 A    
C6    C34   1.468140 S    
C41   C45   1.392437 A    
C100  H56   1.083016 S    
O23   C125  1.286826 A    
C67   C71   1.404841 A    
O44   C134  1.300624 A    
C43   C47   1.392439 A    
N4    O55   1.301429 A    
C113  C117  1.404415 A    
C64   H32   1.083011 S    
H20   C44   1.083938 S    
C40   C44   1.383161 A    
O42   Cu9   1.963741 S    
C61   C65   1.394744 A    
N3    O53   1.301106 A    
C92   C96   1.404462 A    
O34   C129  1.294704 A    
C149  C159  1.402119 A    
C162  C171  1.410862 A    
C152  H80   1.083063 S    
C77   C81   1.404489 A    
C98   C118  1.403810 A    
N1    O50   1.301498 A    
C22   H14   1.081796 S    
C103  C107  1.404632 A    
C200  H100  1.083164 S    
C101  C105  1.404640 A    
C70   C132  1.475742 S    
C137  H69   1.083126 S    
O24   Cu8   1.973682 S    
C109  C113  1.395234 A    
C104  C108  1.404949 A    
C139  H71   1.082953 S    
C12   N4    1.431396 S    
C33   C37   1.401542 A    
C91   H51   1.082894 S    
O39   Cu11  1.958005 S    
O44   Cu11  1.963741 S    
C82   C118  1.478161 S    
C100  C104  1.395012 A    
O14   C6    1.290255 A    
C176  Cl8   1.762717 S    
C115  H67   1.082897 S    
C142  C145  1.402173 A    
C38   C42   1.383202 A    
O46   C135  1.300910 A    
C175  Cl7   1.762715 S    
C50   H22   1.082963 S    
C175  C179  1.396247 A    
O12   Cu2   1.969138 S    
C192  C194  1.402804 A    
C167  Cl3   1.769932 S    
C174  C178  1.395985 A    
C202  C205  1.404051 A    
C182  C196  1.481972 S    
O1    C1    1.295082 A    
C115  C119  1.404429 A    
C78   H42   1.083101 S    
C128  C206  1.471885 S    
C21   H13   1.082010 S    
C100  C120  1.403793 A    
C19   H11   1.082718 S    
O40   C134  1.299837 A    
C42   C46   1.392320 A    
C49   H21   1.082850 S    
C141  H73   1.083295 S    
C24   H16   1.081227 S    
C10   C14   1.403742 A    
C143  H75   1.083160 S    
C7    C35   1.467348 S    
C74   C94   1.404423 A    
H3    C39   1.083796 S    
C112  H64   1.082845 S    
H17   C41   1.083692 S    
C180  H88   1.082925 S    
C18   C22   1.388473 A    
C179  C182  1.404561 A    
C45   C123  1.450411 S    
N8    O64   1.301050 A    
O20   C122  1.293424 A    
C190  H94   1.083165 S    
C136  C148  1.474705 S    
C89   H49   1.082896 S    
Cu6   O30   1.957066 S    
C110  C114  1.395608 A    
N5    O57   1.301188 A    
C201  H101  1.083099 S    
C157  C171  1.474115 S    
C194  C208  1.475008 S    
O19   Cu7   1.956680 S    
C203  H103  1.083101 S    
O33   Cu9   1.955688 S    
C80   H44   1.082999 S    
O6    C2    1.294931 A    
O4    Cu2   1.960410 S    
C68   C72   1.404974 A    
C76   C80   1.395197 A    
C55   C59   1.404295 A    
C1    C105  1.475356 S    
C161  C171  1.410888 A    
C73   C93   1.404395 A    
C141  C145  1.401974 A    
H19   C43   1.082721 S    
C39   C43   1.382874 A    
C198  C207  1.403333 A    
O39   C133  1.299649 A    
C138  C142  1.396536 A    
C29   C33   1.429300 A    
C57   C93   1.478893 S    
O2    Cu1   1.960410 S    
C31   C35   1.429416 A    
O10   Cu1   1.969138 S    
C153  H81   1.083215 S    
C9    C13   1.403836 A    
C84   C120  1.478324 S    
O25   C123  1.289328 A    
C173  C177  1.396244 A    
C156  H84   1.083039 S    
N6    O60   1.301024 A    
C174  Cl6   1.762716 S    
O17   Cu5   1.956680 S    
C85   C89   1.395253 A    
C28   C48   1.410736 A    
C81   C85   1.404496 A    
Cu5   O29   1.956825 S    
C166  C169  1.411015 A    
C4    C108  1.476417 S    
C138  C147  1.404291 A    
C187  H91   1.082658 S    
C88   C92   1.395533 A    
C11   C15   1.403873 A    
C188  H92   1.082642 S    
C80   C84   1.404396 A    
C9    C29   1.426603 A    
N7    O61   1.301223 A    
O7    C3    1.293724 A    
C79   C83   1.404506 A    
C140  C148  1.405007 A    
C88   H48   1.082983 S    
C3    C107  1.475362 S    
C111  C115  1.395237 A    
C14   H6    1.082753 S    
C75   H39   1.082911 S    
C193  C207  1.475011 S    
C161  C165  1.406336 A    
N3    O54   1.301486 A    
H1    C37   1.083739 S    
O28   C126  1.288955 A    
C180  C182  1.404673 A    
C92   H52   1.082980 S    
C135  C147  1.471836 S    
C204  C206  1.404058 A    
C186  H90   1.082642 S    
C65   H33   1.082867 S    
C164  C172  1.414690 A    
O23   Cu7   1.973681 S    
C189  C193  1.402790 A    
O16   C8    1.290100 A    
C47   C125  1.451072 S    
C188  C190  1.395282 A    
C113  H65   1.082902 S    
C17   H9    1.082724 S    
C107  C111  1.404593 A    
C61   H29   1.082933 S    
C11   N3    1.432030 S    
O12   C8    1.293179 A    
C10   N2    1.432145 S    
C152  C160  1.404696 A    
O9    Cu1   1.972341 S    
C79   H43   1.082908 S    
C52   C72   1.405062 A    
C103  H59   1.082863 S    
C50   C70   1.405188 A    
Cu9   O45   1.958395 S    
C200  C204  1.394764 A    
C150  C156  1.396041 A    
C12   C16   1.403571 A    
C138  H70   1.083118 S    
C110  H62   1.082896 S    
O11   Cu2   1.972341 S    
O48   C136  1.301607 A    
C99   H55   1.082933 S    
O30   C127  1.295156 A    
C204  H104  1.083020 S    
O34   Cu10  1.958949 S    
C203  C206  1.404450 A    
O40   Cu12  1.957997 S    
C190  C193  1.402809 A    
C116  H68   1.082994 S    
O20   Cu8   1.956443 S    
O6    Cu3   1.959872 S    
O36   C130  1.294704 A    
C36   C40   1.400993 A    
C83   C119  1.478892 S    
C162  N6    1.437381 S    
C166  Cl2   1.770417 S    
C151  H79   1.083052 S    
C163  N7    1.436820 S    
Cu9   Cu10  2.686377 S    
O2    C2    1.294354 A    
O26   C124  1.289234 A    
N2    O51   1.301462 A    
C52   C56   1.395500 A    
C19   C23   1.388564 A    
C58   C62   1.404126 A    
C20   C24   1.388007 A    
N4    O56   1.301110 A    
O38   C132  1.299772 A    
C27   C47   1.409904 A    
C142  H74   1.083295 S    
O14   Cu3   1.972132 S    
C76   C96   1.404235 A    
O21   C123  1.286796 A    
Cu1   Cu3   2.667160 S    
C199  C203  1.395353 A    
C18   H10   1.082655 S    
Cu2   Cu4   2.667160 S    
O36   Cu12  1.958949 S    
N1    O49   1.301100 A    
C35   C39   1.400972 A    
C202  H102  1.083018 S    
C65   C69   1.404846 A    
C46   C124  1.450146 S    
C177  H85   1.082914 S    
O11   C7    1.290086 A    
O35   C130  1.294407 A    
C121  C169  1.474975 S    
C90   H50   1.083070 S    
C17   C21   1.388640 A    
C168  Cl4   1.768871 S    
C90   C94   1.404615 A    
C164  C168  1.406441 A    
C185  C191  1.394572 A    
C189  H93   1.083178 S    
C86   H46   1.083084 S    
C167  C170  1.408636 A    
C63   H31   1.082930 S    
C163  C172  1.414789 A    
C66   C70   1.405129 A    
C50   C54   1.395554 A    
C53   H25   1.082927 S    
C68   H36   1.082885 S    
