data_mof_unit_pretest_846.cif
_audit_creation_date              2012-12-11T14:50:52-0500
_audit_creation_method            fapswitch 2.2
_symmetry_space_group_name_H-M    P1
_symmetry_Int_Tables_number       1
_space_group_crystal_system       triclinic
_cell_length_a                    10.996274
_cell_length_b                    10.895396
_cell_length_c                    18.812692
_cell_angle_alpha                 90.333192
_cell_angle_beta                  89.853449
_cell_angle_gamma                 59.938153
_cell_volume                      1950.66698774

loop_
_atom_site_label
_atom_site_type_symbol
_atom_type_description
_atom_site_fract_x
_atom_site_fract_y
_atom_site_fract_z
_atom_type_partial_charge
C1    C     C_R   0.286874 0.625190 0.616242 0.536135
C2    C     C_R   0.560997 0.181952 0.789546 -0.153428
C3    C     C_R   0.555301 0.183505 0.717174 -0.137652
C4    C     C_R   0.657076 0.624435 0.599317 0.548366
C5    C     C_R   0.659159 0.188502 0.677443 0.010615
C6    C     C_R   0.265580 0.521589 0.730354 -0.166197
C7    C     C_R   0.239182 0.529229 0.803966 -0.046041
C8    C     C_R   0.214368 0.652292 0.842081 -0.045811
C9    C     C_R   0.234726 0.754797 0.806894 0.003812
C10   C     C_R   0.225905 0.762165 0.732466 0.006058
C11   C     C_R   0.251918 0.639379 0.693285 -0.042073
C12   C     C_3   0.822681 0.542371 0.783966 -0.242764
C13   C     C_R   0.725752 0.521391 0.270997 -0.126486
C14   C     C_R   0.727014 0.534628 0.198108 -0.131035
C15   C     C_R   0.651002 0.668442 0.167081 0.000915
C16   C     C_R   0.626651 0.231306 0.603671 0.576318
C17   C     C_R   0.562368 0.786299 0.209530 -0.129553
C18   C     C_R   0.560343 0.773205 0.283131 -0.106155
C19   C     C_R   0.646054 0.641234 0.314362 0.021048
C20   C     C_R   0.553531 0.132496 0.293247 -0.125511
C21   C     C_R   0.568180 0.098624 0.222199 -0.143012
C22   C     C_R   0.689351 0.073369 0.186151 0.023498
C23   C     C_3   0.729145 0.700950 0.805263 -0.031052
C24   C     C_R   0.798107 0.079122 0.222649 -0.133487
C25   C     C_R   0.779083 0.122858 0.293061 -0.152563
C26   C     C_R   0.655436 0.152325 0.328168 0.032522
C27   C     C_R   0.173803 0.780964 0.287661 0.008084
C28   C     C_R   0.220958 0.650962 0.400830 0.551774
C29   C     C_R   0.200050 0.756661 0.214930 0.010819
C30   C     C_R   0.162150 0.664788 0.181143 -0.034113
C31   C     C_R   0.140919 0.568880 0.221017 -0.145590
C32   C     C_R   0.151081 0.568957 0.294410 -0.146338
C33   C     C_R   0.166657 0.674924 0.328417 -0.031033
C34   C     C_3   0.688258 0.656290 0.671767 -0.024827
C35   C     C_R   0.699959 0.106018 0.897036 0.543042
C36   C     C_R   0.756330 0.713153 0.882841 0.563933
C37   C     C_R   0.126520 0.701107 0.908158 0.540988
C38   C     C_R   0.701708 0.042307 0.110714 0.560571
C39   C     C_R   0.694100 0.688910 0.096785 0.539154
C40   C     C_R   0.639333 0.619073 0.390263 0.554794
C41   C     C_R   0.098371 0.706137 0.111305 0.518116
C42   C     C_R   0.618087 0.226210 0.395846 0.562178
C43   C     C_3   0.570802 0.747316 0.792657 -0.105388
C44   C     C_3   0.555713 0.696818 0.718260 -0.229597
C45   C     C_3   0.719564 0.781499 0.675715 -0.132962
C46   C     C_3   0.761496 0.795490 0.754401 -0.134868
C47   C     C_2   0.473587 0.908104 0.801718 0.217545
C48   C     C_2   0.953715 0.451274 0.669642 0.303797
C49   C     C_2   0.907720 0.768682 0.761804 0.202849
C50   C     C_2   0.818120 0.778494 0.618199 0.237906
C51   C     C_2   0.892680 0.198380 0.822280 0.281745
C52   C     C_2   0.232109 0.411428 0.838954 0.209586
C53   C     C_2   0.254605 0.857804 0.850041 0.233581
C54   C     C_2   0.171905 0.902406 0.698182 0.363718
C55   C     C_2   0.148710 0.916316 0.321288 0.292512
C56   C     C_3   0.810501 0.517339 0.705810 -0.107580
C57   C     C_2   0.259669 0.828984 0.172123 0.296388
C58   C     C_R   0.771606 0.189267 0.712207 -0.053266
C59   C     C_R   0.781666 0.181959 0.786841 0.017315
C60   C     C_R   0.678923 0.168127 0.825631 -0.027699
Cr1   Cr    Cr6+3 0.392930 0.397900 0.502230 1.058207
Cr2   Cr    Cr6+3 0.398240 0.708600 0.501260 1.077448
Cr3   Cr    Cr6+3 0.708800 0.393470 0.496460 1.075796
Cr4   Cr    Cr6+3 0.937620 0.938540 0.007640 1.063301
Cr5   Cr    Cr6+3 0.625150 0.937450 0.994520 1.012273
Cr6   Cr    Cr6+3 0.937990 0.625080 0.001190 1.027522
H1    H     H_    0.465414 0.185408 0.692647 0.206307
H2    H     H_    0.145553 0.487505 0.324609 0.150118
H3    H     H_    0.694435 0.907230 0.770919 0.182752
H4    H     H_    0.618122 0.879471 0.664742 0.206296
H5    H     H_    0.777772 0.436060 0.703272 0.154872
H6    H     H_    0.445259 0.955773 0.854173 0.185946
H7    H     H_    0.017685 0.500347 0.672471 0.082577
H8    H     H_    0.994256 0.666697 0.748235 0.105631
H9    H     H_    0.928990 0.701510 0.618250 0.121404
H10   H     H_    0.848170 0.200894 0.681221 0.219220
H11   H     H_    0.896854 0.204166 0.879594 0.137439
H12   H     H_    0.287251 0.427061 0.701028 0.177954
H13   H     H_    0.477284 0.176483 0.816531 0.209338
H14   H     H_    0.248009 0.395682 0.895776 0.128373
H15   H     H_    0.319311 0.820783 0.897319 0.083236
H16   H     H_    0.219500 0.966766 0.707912 0.205298
H17   H     H_    0.787662 0.416436 0.293270 0.146645
H18   H     H_    0.499280 0.888945 0.185870 0.156026
H19   H     H_    0.481682 0.098610 0.195071 0.145667
H20   H     H_    0.856759 0.140779 0.318684 0.125123
H21   H     H_    0.069010 0.964903 0.362491 0.108393
H22   H     H_    0.344164 0.766563 0.134788 0.084170
H23   H     H_    0.538653 0.693292 0.832176 0.085647
H24   H     H_    0.459388 0.778597 0.691925 0.169383
H25   H     H_    0.934187 0.503009 0.798478 0.193725
H26   H     H_    0.786997 0.479737 0.815269 0.146193
H27   H     H_    0.794729 0.441300 0.166478 0.147803
H28   H     H_    0.494721 0.865752 0.315554 0.176343
H29   H     H_    0.456264 0.154475 0.318903 0.157704
H30   H     H_    0.894367 0.057497 0.196022 0.177979
H31   H     H_    0.540957 0.603297 0.723857 0.072892
H32   H     H_    0.113365 0.496640 0.195692 0.154799
O1    O     O_R   0.507430 0.255570 0.581420 -0.516261
O2    O     O_R   0.837200 0.593290 0.915250 -0.516069
O3    O     O_R   0.065330 0.635370 0.931590 -0.524442
O4    O     O_R   0.280190 0.527390 0.578910 -0.502906
O5    O     O_R   0.068300 0.828790 0.091860 -0.513997
O6    O     O_R   0.798730 0.057480 0.079370 -0.505636
O7    O     O_R   0.584680 0.080480 0.076790 -0.518014
O8    O     O_R   0.626790 0.809640 0.067050 -0.517386
O9    O     O_R   0.816010 0.596460 0.076500 -0.510748
O10   O     O_R   0.045680 0.638310 0.081070 -0.506969
O11   O     O_3   0.833590 0.833690 0.001120 -0.280856
O12   O     O_R   0.524460 0.695920 0.424060 -0.487381
O13   O     O_R   0.260310 0.739740 0.584580 -0.469683
O14   O     O_R   0.532250 0.695150 0.573830 -0.518461
O15   O     O_R   0.744930 0.503430 0.576380 -0.487640
O16   O     O_R   0.699250 0.276390 0.571950 -0.492668
O17   O     O_R   0.499020 0.256400 0.419850 -0.514123
O18   O     O_R   0.272400 0.528160 0.429140 -0.492190
O19   O     O_R   0.251910 0.740570 0.423020 -0.508589
O20   O     O_2   0.423601 0.987135 0.751061 -0.533650
O21   O     O_2   0.002826 0.336052 0.639906 -0.434315
O22   O     O_2   0.928607 0.862846 0.782226 -0.475786
O23   O     O_R   0.736530 0.504260 0.414810 -0.516769
O24   O     O_2   0.773207 0.866086 0.570753 -0.481788
O25   O     O_2   0.978056 0.213099 0.787255 -0.428893
O26   O     O_2   0.209551 0.329560 0.804535 -0.469230
O27   O     O_2   0.192375 0.984104 0.837587 -0.442828
O28   O     O_2   0.068635 0.949477 0.660128 -0.440513
O29   O     O_2   0.222118 0.968101 0.308289 -0.486523
O30   O     O_2   0.207009 0.957764 0.172564 -0.472240
O31   O     O_R   0.691460 0.277160 0.422180 -0.505458
O32   O     O_3   0.499990 0.499990 0.499980 -0.293590
O33   O     O_R   0.089490 0.825610 0.930610 -0.478254
O34   O     O_R   0.818370 0.054540 0.929880 -0.482737
O35   O     O_R   0.605870 0.077310 0.915530 -0.541768
O36   O     O_R   0.646440 0.806700 0.917570 -0.535035

loop_
_geom_bond_atom_site_label_1
_geom_bond_atom_site_label_2
_ccdc_geom_bond_type
C39   O8    A    
C34   C56   S    
C41   O10   A    
C27   C29   A    
C51   O25   D    
Cr2   O32   S    
C12   H25   S    
C50   O24   D    
Cr6   O9    S    
C35   O35   A    
C57   O30   D    
C58   H10   S    
C7    C8    A    
C45   C46   S    
C27   C33   A    
C39   O9    A    
C40   O23   A    
C54   O28   D    
C12   C23   S    
C43   H23   S    
C20   C26   A    
C5    C58   A    
C22   C24   A    
C21   C22   A    
C7    C52   S    
C28   O19   A    
C24   H30   S    
C30   C31   A    
C2    C60   A    
C6    H12   S    
C49   O22   D    
C22   C38   S    
C23   C43   S    
C53   H15   S    
C18   C19   A    
C31   H32   S    
Cr6   O2    S    
Cr2   O19   S    
C38   O6    A    
C2    H13   S    
C28   O18   A    
Cr3   O16   S    
C47   O20   D    
Cr2   O13   S    
Cr4   O34   S    
C8    C9    A    
C46   H3    S    
C1    C11   S    
Cr1   O17   S    
C30   C41   S    
C9    C10   A    
C14   H27   S    
Cr5   O36   S    
C32   H2    S    
C4    O14   A    
C59   C60   A    
C23   C46   S    
C13   C14   A    
Cr6   O3    S    
Cr1   O1    S    
C10   C54   S    
Cr5   O7    S    
Cr3   O23   S    
C48   O21   D    
C21   H19   S    
C4    C34   S    
C13   C19   A    
Cr3   O32   S    
C4    O15   A    
C34   C44   S    
C24   C25   A    
C10   C11   A    
C6    C11   A    
C40   O12   A    
C58   C59   A    
C41   O5    A    
C16   O16   A    
C35   C60   S    
C43   C44   S    
C51   H11   S    
C29   C30   A    
C44   H31   S    
C31   C32   A    
Cr2   O12   S    
Cr4   O33   S    
C56   H5    S    
C15   C39   S    
Cr1   O18   S    
C17   C18   A    
Cr2   O14   S    
C36   O2    A    
C34   C45   S    
Cr5   O11   S    
C12   C56   S    
C53   O27   D    
Cr1   O32   S    
C20   H29   S    
C29   C57   S    
C28   C33   S    
C18   H28   S    
C46   C49   S    
C9    C53   S    
C8    C37   S    
Cr5   O8    S    
C54   H16   S    
C44   H24   S    
C26   C42   S    
C48   C56   S    
C45   H4    S    
C14   C15   A    
C48   H7    S    
C12   H26   S    
Cr4   O6    S    
Cr6   O10   S    
C3    C5    A    
C36   O36   A    
C55   O29   D    
C16   O1    A    
C15   C17   A    
C6    C7    A    
C13   H17   S    
C57   H22   S    
C17   H18   S    
C32   C33   A    
C38   O7    A    
Cr1   O4    S    
C25   C26   A    
C5    C16   S    
C50   H9    S    
C1    O13   A    
C37   O3    A    
C52   O26   D    
Cr4   O11   S    
C3    H1    S    
C45   C50   S    
C35   O34   A    
C25   H20   S    
C2    C3    A    
C42   O31   A    
C27   C55   S    
Cr3   O31   S    
Cr6   O11   S    
C55   H21   S    
Cr4   O5    S    
C47   H6    S    
C19   C40   S    
Cr3   O15   S    
C37   O33   A    
C42   O17   A    
C51   C59   S    
C20   C21   A    
C23   C36   S    
C49   H8    S    
C52   H14   S    
C43   C47   S    
C1    O4    A    
Cr5   O35   S    
