data_mof_unit_pretest_1962.cif
_audit_creation_date              2013-03-05T16:25:18-0500
_audit_creation_method            fapswitch 2.2
_symmetry_space_group_name_H-M    P1
_symmetry_Int_Tables_number       1
_space_group_crystal_system       triclinic
_cell_length_a                    18.367533
_cell_length_b                    18.369646
_cell_length_c                    21.499985
_cell_angle_alpha                 90.006504
_cell_angle_beta                  90.000534
_cell_angle_gamma                 89.993643
_cell_volume                      7254.20404794

loop_
_atom_site_label
_atom_site_type_symbol
_atom_site_description
_atom_site_fract_x
_atom_site_fract_y
_atom_site_fract_z
_atom_type_partial_charge
O1    O     O_R   0.438760 0.105810 0.500000 -0.607444
O2    O     O_R   0.438760 0.894190 0.500000 -0.608088
O3    O     O_R   0.938760 0.605810 0.000000 -0.607533
O4    O     O_R   0.938760 0.394190 0.000000 -0.608016
O5    O     O_R   0.561260 0.105780 0.500000 -0.545712
O6    O     O_R   0.561260 0.894220 0.500000 -0.544578
O7    O     O_R   0.061260 0.605780 0.000000 -0.545540
O8    O     O_R   0.061260 0.394220 0.000000 -0.544718
C1    C     C_R   0.500012 0.139897 0.499994 0.894990
C2    C     C_R   0.500018 0.860102 0.500005 0.891641
C3    C     C_R   0.000012 0.639897 0.999996 0.894495
C4    C     C_R   0.000018 0.360102 0.000003 0.892109
O9    O     O_R   0.438760 1.000000 0.591570 -0.626366
O10   O     O_R   0.438760 0.000000 0.408430 -0.626373
O11   O     O_R   0.938760 0.500000 0.091570 -0.626367
O12   O     O_R   0.938760 0.500000 0.908430 -0.626369
O13   O     O_R   0.561260 0.000000 0.591560 -0.534265
O14   O     O_R   0.561260 1.000000 0.408440 -0.534238
O15   O     O_R   0.061260 0.500000 0.091560 -0.534244
O16   O     O_R   0.061260 0.500000 0.908440 -0.534240
C5    C     C_R   0.499762 0.999915 0.620336 0.916942
C6    C     C_R   0.499762 0.999967 0.379664 0.916862
C7    C     C_R   0.999763 0.499944 0.120335 0.916877
C8    C     C_R   0.999762 0.499971 0.879665 0.916870
Cu1   Cu    Cu3+1 0.427480 0.000000 0.500000 0.951793
Cu2   Cu    Cu3+1 0.927480 0.500000 0.000000 0.951780
Cu3   Cu    Cu3+1 0.572540 0.000000 0.500000 1.096100
Cu4   Cu    Cu3+1 0.072540 0.500000 0.000000 1.096101
C9    C     C_3   0.531460 0.059436 0.730140 0.297310
C10   C     C_3   0.532099 0.059156 0.269867 0.296609
C11   C     C_3   0.532946 0.941241 0.269837 0.296109
C12   C     C_3   0.533551 0.941530 0.730167 0.295731
C13   C     C_3   0.031853 0.559257 0.230143 0.296814
C14   C     C_3   0.032136 0.559141 0.769865 0.296624
C15   C     C_3   0.032909 0.441226 0.769838 0.296110
C16   C     C_3   0.033188 0.441345 0.230156 0.295961
C17   C     C_3   0.567459 0.001123 0.771239 -0.007570
C18   C     C_3   0.567488 0.000458 0.228769 -0.007476
C19   C     C_3   0.067483 0.500708 0.271234 -0.007492
C20   C     C_3   0.067487 0.500419 0.728769 -0.007478
C21   C     C_3   0.498182 0.999923 0.811659 -0.231470
C22   C     C_3   0.498206 0.999978 0.188339 -0.231356
C23   C     C_3   0.998203 0.499945 0.311661 -0.231375
C24   C     C_3   0.998205 0.499982 0.688339 -0.231357
C25   C     C_3   0.462439 0.059458 0.770761 0.059096
C26   C     C_3   0.463094 0.059895 0.229236 0.058611
C27   C     C_3   0.463964 0.939547 0.229207 0.058501
C28   C     C_3   0.464589 0.939120 0.770788 0.058253
C29   C     C_3   0.962843 0.559714 0.270771 0.058763
C30   C     C_3   0.963131 0.559922 0.729235 0.058631
C31   C     C_3   0.963926 0.439574 0.729208 0.058490
C32   C     C_3   0.964213 0.439369 0.270783 0.058388
C33   C     C_3   0.428620 0.998650 0.729646 0.091945
C34   C     C_3   0.428624 0.999465 0.270346 0.092101
C35   C     C_3   0.928626 0.499137 0.229652 0.092071
C36   C     C_3   0.928624 0.499514 0.770346 0.092094
C37   C     C_3   0.498464 0.999856 0.688419 -0.299477
C38   C     C_3   0.498468 0.999946 0.311582 -0.299529
C39   C     C_3   0.998469 0.499904 0.188418 -0.299519
C40   C     C_3   0.998468 0.499954 0.811582 -0.299526
C41   C     C_1   0.500022 0.217448 0.499991 -0.104694
C42   C     C_1   0.500041 0.782552 0.500009 -0.107029
C43   C     C_1   0.000022 0.717448 0.999992 -0.105017
C44   C     C_1   0.000041 0.282552 0.000007 -0.106721
C45   C     C_1   0.500027 0.282758 0.499991 -0.139604
C46   C     C_1   0.500042 0.717242 0.500008 -0.140567
C47   C     C_1   0.000027 0.782758 0.999992 -0.139694
C48   C     C_1   0.000042 0.217242 0.000008 -0.140454
O17   O     O_R   0.605760 0.938760 0.000000 -0.575943
O18   O     O_R   0.605760 0.061240 0.000000 -0.576373
O19   O     O_R   0.105760 0.438760 0.500000 -0.575994
O20   O     O_R   0.105760 0.561240 0.500000 -0.576327
C49   C     C_R   0.639868 0.999997 1.000000 0.833335
C50   C     C_R   0.139868 0.499997 0.500000 0.833321
O21   O     O_R   0.499930 0.938760 0.908410 -0.593484
O22   O     O_R   0.499930 0.938760 0.091590 -0.593333
O23   O     O_R   0.499930 0.061240 0.091590 -0.593040
O24   O     O_R   0.499930 0.061240 0.908410 -0.592936
O25   O     O_R   0.999930 0.438760 0.408410 -0.593384
O26   O     O_R   0.999930 0.438760 0.591590 -0.593322
O27   O     O_R   0.999930 0.561240 0.591590 -0.593054
O28   O     O_R   0.999930 0.561240 0.408410 -0.593001
C51   C     C_R   0.498822 0.999986 0.879694 0.824344
C52   C     C_R   0.498835 0.999998 0.120306 0.824348
C53   C     C_R   0.998834 0.499989 0.379694 0.824345
C54   C     C_R   0.998835 0.499999 0.620306 0.824346
Cu5   Cu    Cu3+1 0.499930 0.927480 0.000000 0.963040
Cu6   Cu    Cu3+1 0.499930 0.072520 0.000000 0.963835
Cu7   Cu    Cu3+1 0.999930 0.427480 0.500000 0.963115
Cu8   Cu    Cu3+1 0.999930 0.572520 0.500000 0.963774
O29   O     O_R   0.394110 0.938740 0.000000 -0.585539
O30   O     O_R   0.394110 0.061260 0.000000 -0.585367
O31   O     O_R   0.894110 0.438740 0.500000 -0.585552
O32   O     O_R   0.894110 0.561260 0.500000 -0.585352
C55   C     C_R   0.360027 0.000003 0.000000 0.828376
C56   C     C_R   0.860027 0.500003 0.500000 0.828389
O33   O     O_R   0.605830 0.500000 0.552990 -0.577922
O34   O     O_R   0.605830 0.500000 0.447010 -0.577912
O35   O     O_R   0.105830 0.000000 0.052990 -0.577916
O36   O     O_R   0.105830 0.000000 0.947010 -0.577913
C57   C     C_R   0.639664 0.500002 0.500000 0.838543
C58   C     C_R   0.139664 0.000002 0.000000 0.838543
O37   O     O_R   0.500010 0.394180 0.552980 -0.574703
O38   O     O_R   0.500010 0.394180 0.447020 -0.574991
O39   O     O_R   0.500010 0.605820 0.447020 -0.575164
O40   O     O_R   0.500010 0.605820 0.552980 -0.575482
O41   O     O_R   0.000010 0.894180 0.052980 -0.574839
O42   O     O_R   0.000010 0.894180 0.947020 -0.574937
O43   O     O_R   0.000010 0.105820 0.947020 -0.575221
O44   O     O_R   0.000010 0.105820 0.052980 -0.575329
C59   C     C_R   0.500022 0.360328 0.499997 0.830270
C60   C     C_R   0.500027 0.639672 0.500003 0.830313
C61   C     C_R   0.000022 0.860328 0.999997 0.830303
C62   C     C_R   0.000027 0.139672 0.000003 0.830275
Cu9   Cu    Cu3+1 0.500000 0.500000 0.562750 1.000255
Cu10  Cu    Cu3+1 0.500000 0.500000 0.437250 1.000285
Cu11  Cu    Cu3+1 0.000000 0.000000 0.062750 1.000274
Cu12  Cu    Cu3+1 0.000000 1.000000 0.937250 1.000297
O45   O     O_R   0.394180 0.500000 0.553000 -0.583140
O46   O     O_R   0.394180 0.500000 0.447000 -0.583142
O47   O     O_R   0.894180 0.000000 0.053000 -0.583144
O48   O     O_R   0.894180 1.000000 0.947000 -0.583137
C63   C     C_R   0.360329 0.499998 0.500000 0.827861
C64   C     C_R   0.860329 0.999998 1.000000 0.827855
C65   C     C_1   0.717429 0.999992 0.999999 -0.176300
C66   C     C_1   0.217429 0.499992 0.499999 -0.176299
C67   C     C_1   0.282748 0.499993 0.499999 -0.157801
C68   C     C_1   0.782748 0.999993 0.999999 -0.157797
C69   C     C_1   0.282502 0.000009 0.000001 -0.172801
C70   C     C_1   0.782502 0.500009 0.500000 -0.172797
C71   C     C_1   0.717205 0.500007 0.500001 -0.154119
C72   C     C_1   0.217205 0.000007 0.000001 -0.154117
C73   C     C_3   0.644749 0.002497 0.797809 -0.354756
C74   C     C_3   0.702393 0.003469 0.746719 -0.702265
H1    H     H_    0.698073 0.954162 0.717149 0.276837
H2    H     H_    0.696373 0.052582 0.717138 0.276820
H3    H     H_    0.757353 0.004418 0.768200 0.227641
H4    H     H_    0.651146 0.051619 0.827437 0.219243
H5    H     H_    0.652873 0.953672 0.827481 0.218557
C75   C     C_3   0.644791 0.001011 0.202208 -0.354803
C76   C     C_3   0.702435 0.001396 0.253305 -0.702221
H6    H     H_    0.696913 0.050567 0.282895 0.276806
H7    H     H_    0.697605 0.952137 0.282867 0.276841
H8    H     H_    0.757405 0.001782 0.231833 0.227637
H9    H     H_    0.652406 0.952093 0.172541 0.218764
H10   H     H_    0.651708 0.050054 0.172578 0.219013
C77   C     C_3   0.144783 0.501583 0.297797 -0.354791
C78   C     C_3   0.202426 0.502200 0.246703 -0.702232
H11   H     H_    0.197798 0.452921 0.217133 0.276836
H12   H     H_    0.196705 0.551347 0.217121 0.276813
H13   H     H_    0.257393 0.502810 0.268178 0.227638
H14   H     H_    0.151496 0.550657 0.327432 0.219107
H15   H     H_    0.152599 0.452701 0.327460 0.218675
C79   C     C_3   0.144791 0.500924 0.702207 -0.354804
C80   C     C_3   0.202435 0.501276 0.753304 -0.702222
H16   H     H_    0.196942 0.550450 0.782894 0.276811
H17   H     H_    0.197577 0.452021 0.782866 0.276835
H18   H     H_    0.257405 0.501631 0.731831 0.227641
H19   H     H_    0.152375 0.452000 0.672542 0.218781
H20   H     H_    0.151737 0.549961 0.672576 0.218999
N1    N     N_R   0.568137 0.125537 0.709249 0.118693
O49   O     O_R   0.595496 0.170217 0.749922 -0.364408
O50   O     O_R   0.572015 0.141414 0.650426 -0.381687
N2    N     N_R   0.569447 0.124895 0.290750 0.118985
O51   O     O_R   0.597366 0.169212 0.250074 -0.364397
O52   O     O_R   0.573307 0.140868 0.349558 -0.381281
N3    N     N_R   0.571216 0.876005 0.290665 0.119194
O53   O     O_R   0.599863 0.832182 0.249953 -0.364518
O54   O     O_R   0.575080 0.859892 0.349442 -0.380211
N4    N     N_R   0.572495 0.876678 0.709360 0.119362
O55   O     O_R   0.601663 0.833226 0.750085 -0.364617
O56   O     O_R   0.576364 0.860460 0.650602 -0.379785
N5    N     N_R   0.068937 0.625140 0.209265 0.118895
O57   O     O_R   0.096642 0.669597 0.249946 -0.364376
O58   O     O_R   0.072800 0.641078 0.150454 -0.381370
N6    N     N_R   0.069526 0.624857 0.790746 0.118974
O59   O     O_R   0.097477 0.669152 0.750068 -0.364414
O60   O     O_R   0.073390 0.640834 0.849553 -0.381181
N7    N     N_R   0.071138 0.375967 0.790668 0.119194
O61   O     O_R   0.099753 0.332121 0.749958 -0.364505
O62   O     O_R   0.075000 0.359860 0.849446 -0.380316
N8    N     N_R   0.071722 0.376260 0.209326 0.119262
O63   O     O_R   0.100576 0.332580 0.250036 -0.364561
O64   O     O_R   0.075588 0.360110 0.150554 -0.380115
C81   C     C_3   0.427326 0.128732 0.797240 -0.330940
C82   C     C_3   0.395081 0.177810 0.747003 -0.769393
H21   H     H_    0.435441 0.188876 0.709797 0.281366
H22   H     H_    0.345839 0.152872 0.726343 0.243928
H23   H     H_    0.378773 0.230495 0.768152 0.247263
H24   H     H_    0.384384 0.113787 0.831209 0.195774
H25   H     H_    0.469643 0.160017 0.822653 0.243434
C83   C     C_3   0.428771 0.129611 0.202861 -0.330120
C84   C     C_3   0.396699 0.178740 0.253160 -0.769890
H26   H     H_    0.346465 0.154672 0.272800 0.243960
H27   H     H_    0.436516 0.188305 0.291087 0.280687
H28   H     H_    0.382059 0.232095 0.232370 0.247401
H29   H     H_    0.471535 0.160594 0.177731 0.243429
H30   H     H_    0.385877 0.115249 0.168661 0.195985
C85   C     C_3   0.430680 0.869308 0.202866 -0.329131
C86   C     C_3   0.399122 0.819873 0.253172 -0.771687
H31   H     H_    0.438751 0.811332 0.291419 0.280601
H32   H     H_    0.348231 0.843081 0.272346 0.244109
H33   H     H_    0.385730 0.766111 0.232532 0.246943
H34   H     H_    0.387699 0.882990 0.168544 0.196152
H35   H     H_    0.473948 0.838852 0.177881 0.243392
C87   C     C_3   0.432070 0.868512 0.797101 -0.328567
C88   C     C_3   0.400900 0.818818 0.746793 -0.772263
H36   H     H_    0.349552 0.841374 0.727943 0.244239
H37   H     H_    0.440392 0.810988 0.708331 0.280399
H38   H     H_    0.388404 0.764794 0.767332 0.246930
H39   H     H_    0.475702 0.838471 0.821986 0.243372
H40   H     H_    0.389024 0.881702 0.831505 0.196345
C89   C     C_3   0.928216 0.629266 0.297183 -0.330367
C90   C     C_3   0.896037 0.678340 0.246906 -0.769737
H41   H     H_    0.935990 0.688352 0.209170 0.280887
H42   H     H_    0.846091 0.653974 0.226991 0.243929
H43   H     H_    0.880885 0.731503 0.267802 0.247343
H44   H     H_    0.885326 0.614690 0.331317 0.195897
H45   H     H_    0.970818 0.660387 0.322396 0.243439
C91   C     C_3   0.928850 0.629658 0.702859 -0.330188
C92   C     C_3   0.896832 0.678820 0.753160 -0.769731
H46   H     H_    0.846626 0.654764 0.772857 0.243973
H47   H     H_    0.936693 0.688415 0.791046 0.280714
H48   H     H_    0.882164 0.732160 0.732356 0.247475
H49   H     H_    0.971625 0.660607 0.677713 0.243431
H50   H     H_    0.885933 0.615320 0.668674 0.196030
C93   C     C_3   0.930599 0.369355 0.702868 -0.329076
C94   C     C_3   0.899003 0.319945 0.753174 -0.771873
H51   H     H_    0.938609 0.311408 0.791439 0.280601
H52   H     H_    0.848107 0.343172 0.772320 0.244097
H53   H     H_    0.885610 0.266179 0.732542 0.246869
H54   H     H_    0.887630 0.383062 0.668542 0.196101
H55   H     H_    0.973849 0.338871 0.677888 0.243395
C95   C     C_3   0.931235 0.368979 0.297099 -0.328935
C96   C     C_3   0.899826 0.319451 0.246781 -0.771830
H56   H     H_    0.848736 0.342394 0.227761 0.244155
H57   H     H_    0.939387 0.311221 0.208432 0.280485
H58   H     H_    0.886816 0.265570 0.267363 0.246971
H59   H     H_    0.974651 0.338685 0.322035 0.243378
H60   H     H_    0.888230 0.382459 0.331460 0.196238
C97   C     C_3   0.350833 0.997111 0.703316 -0.324024
C98   C     C_3   0.292221 0.996364 0.753660 -0.823760
H61   H     H_    0.297695 0.948012 0.783997 0.255259
H62   H     H_    0.294844 0.046144 0.782568 0.255137
H63   H     H_    0.237767 0.994364 0.731314 0.249638
H64   H     H_    0.342461 0.045307 0.673111 0.212860
H65   H     H_    0.344295 0.948287 0.673505 0.212260
C99   C     C_3   0.350811 0.998864 0.296636 -0.323922
C100  C     C_3   0.292235 0.998523 0.246254 -0.823858
H66   H     H_    0.295756 0.047859 0.216880 0.255132
H67   H     H_    0.296886 0.949695 0.216371 0.255194
H68   H     H_    0.237734 0.997751 0.268569 0.249624
H69   H     H_    0.343707 0.950235 0.326575 0.212495
H70   H     H_    0.342964 0.047288 0.326690 0.212755
C101  C     C_3   0.850818 0.498184 0.203354 -0.323943
C102  C     C_3   0.792237 0.497669 0.253729 -0.823832
H71   H     H_    0.797202 0.449003 0.283758 0.255221
H72   H     H_    0.795431 0.547157 0.282954 0.255115
H73   H     H_    0.737747 0.496451 0.231407 0.249628
H74   H     H_    0.842768 0.546535 0.173263 0.212822
H75   H     H_    0.843926 0.449489 0.173447 0.212406
C103  C     C_3   0.850810 0.498958 0.796636 -0.323918
C104  C     C_3   0.792235 0.498675 0.746252 -0.823893
H76   H     H_    0.795767 0.548037 0.716913 0.255150
H77   H     H_    0.796879 0.449876 0.716337 0.255181
H78   H     H_    0.737734 0.497895 0.768565 0.249626
H79   H     H_    0.843673 0.450324 0.826561 0.212505
H80   H     H_    0.842994 0.547376 0.826703 0.212741

loop_
_geom_bond_atom_site_label_1
_geom_bond_atom_site_label_2
_geom_bond_distance
_ccdc_geom_bond_type
C104  H78   1.110157 S    
O1    Cu1   1.954724 S    
Cu5   Cu6   2.664335 S    
C66   C67   1.199753 T    
Cu8   O32   1.954650 S    
Cu5   O29   1.954605 S    
C80   H17   1.109386 S    
C96   H57   1.109336 S    
C35   C39   1.559431 S    
O39   Cu10  1.955169 S    
C36   C103  1.537005 S    
C77   C78   1.525747 S    
C78   H13   1.110233 S    
C10   N2    1.459624 S    
C16   C39   1.539185 S    
C27   C85   1.535993 S    
O22   C52   1.283306 A    
C74   H3    1.110242 S    
C94   H52   1.106942 S    
N1    O49   1.300308 A    
C89   H45   1.110393 S    
C32   C95   1.536015 S    
C104  H76   1.106547 S    
N3    O54   1.299872 A    
O40   C60   1.297769 A    
C89   C90   1.526618 S    
O7    C3    1.287716 A    
C100  H66   1.106575 S    
C13   C19   1.538023 S    
C1    C41   1.424583 S    
C44   C48   1.199722 T    
C11   C38   1.539204 S    
N2    O51   1.300312 A    
C58   C72   1.424252 S    
C31   C36   1.553933 S    
C92   H48   1.110286 S    
C3    C43   1.424583 S    
C76   H7    1.109390 S    
C103  H80   1.108785 S    
C4    C44   1.424581 S    
C99   H70   1.108794 S    
C23   C32   1.549297 S    
N4    O55   1.300331 A    
C13   C29   1.539396 S    
Cu9   Cu10  2.698250 S    
C21   C51   1.462793 S    
C102  H73   1.110179 S    
C29   C89   1.535916 S    
C85   H35   1.110393 S    
O41   Cu11  1.955170 S    
C10   C18   1.538041 S    
O37   C59   1.297755 A    
C97   C98   1.526699 S    
Cu12  O48   1.954926 S    
O26   Cu7   1.980032 S    
O3    Cu2   1.954724 S    
Cu11  O47   1.954922 S    
N8    O63   1.300319 A    
O41   C61   1.297753 A    
O47   C64   1.298091 A    
O26   C54   1.283314 A    
O3    C3    1.287621 A    
C87   H40   1.109463 S    
O38   Cu10  1.955218 S    
C70   C71   1.199345 T    
O34   Cu10  1.955126 S    
O24   C51   1.283573 A    
O21   C51   1.283227 A    
O2    C2    1.287611 A    
C45   C59   1.424921 S    
C20   C79   1.530446 S    
Cu6   O30   1.954650 S    
O23   Cu6   1.980079 S    
C35   C101  1.537018 S    
C86   H31   1.109326 S    
C84   H27   1.109345 S    
C102  H72   1.106592 S    
C91   H49   1.110381 S    
C88   H38   1.110273 S    
C98   H62   1.106638 S    
C96   H56   1.106962 S    
O17   C49   1.287647 A    
C83   H30   1.109487 S    
C87   C88   1.526701 S    
O4    C4    1.287609 A    
O14   C6    1.287887 A    
C13   N5    1.459609 S    
O44   C62   1.297770 A    
O27   C54   1.283475 A    
C16   C32   1.539266 S    
O46   C63   1.298090 A    
C8    C40   1.463968 S    
C64   C68   1.424973 S    
C69   C72   1.199345 T    
C26   C83   1.535919 S    
O11   C7    1.279818 A    
N6    O60   1.299871 A    
C93   H54   1.109463 S    
C13   C39   1.539296 S    
C25   C33   1.553987 S    
C73   H4    1.110732 S    
O12   C8    1.279818 A    
O5    Cu3   1.954132 S    
C99   H69   1.108817 S    
C80   H18   1.110233 S    
C14   C40   1.539275 S    
C12   C28   1.539210 S    
O9    Cu1   1.979621 S    
O6    Cu3   1.954180 S    
C2    C42   1.424579 S    
C12   C37   1.539150 S    
C24   C54   1.462756 S    
C87   H39   1.110410 S    
O44   Cu11  1.955216 S    
C94   H51   1.109330 S    
N1    O50   1.299875 A    
O43   Cu12  1.955169 S    
C81   H25   1.110389 S    
N8    O64   1.299869 A    
N5    O58   1.299874 A    
O12   Cu2   1.979627 S    
C28   C33   1.553962 S    
C93   H55   1.110388 S    
C43   C47   1.199722 T    
O4    Cu2   1.954681 S    
C100  H67   1.106547 S    
C98   H63   1.110198 S    
C14   C30   1.539378 S    
C42   C46   1.199723 T    
O9    C5    1.279815 A    
C88   H36   1.106972 S    
C23   C53   1.462761 S    
C101  H75   1.108827 S    
C81   H24   1.109489 S    
C55   C69   1.423926 S    
O1    C1    1.287620 A    
C78   H11   1.109390 S    
O20   C50   1.287625 A    
C76   H8    1.110237 S    
C75   H10   1.110735 S    
N3    O53   1.300317 A    
C33   C37   1.559468 S    
C90   H41   1.109372 S    
C23   C29   1.549249 S    
O11   Cu2   1.979621 S    
C19   C23   1.541090 S    
C31   C93   1.535989 S    
O16   Cu4   1.979412 S    
O23   C52   1.283483 A    
N5    O57   1.300308 A    
O30   C55   1.287745 A    
C30   C36   1.553931 S    
O7    Cu4   1.954132 S    
C36   C40   1.559419 S    
C9    C25   1.539438 S    
C15   C40   1.539199 S    
O38   C59   1.297768 A    
O13   Cu3   1.979413 S    
O42   C61   1.297770 A    
C18   C75   1.530450 S    
C21   C28   1.549299 S    
O15   C7    1.287888 A    
C79   H20   1.110732 S    
O37   Cu9   1.955170 S    
C50   C66   1.424602 S    
C9    N1    1.459573 S    
O35   Cu11  1.955130 S    
C92   H46   1.106875 S    
O20   Cu8   1.954828 S    
C97   H64   1.108732 S    
C63   C67   1.424973 S    
C93   C94   1.526695 S    
O19   Cu7   1.954874 S    
C22   C52   1.462756 S    
C20   C24   1.541091 S    
O8    C4    1.287728 A    
C84   H28   1.110304 S    
C102  H71   1.106553 S    
C26   C34   1.553929 S    
O18   C49   1.287623 A    
O36   C58   1.297750 A    
C98   H61   1.106592 S    
C91   H50   1.109475 S    
C95   H60   1.109463 S    
C12   C17   1.538156 S    
C75   C76   1.525749 S    
O32   C56   1.287746 A    
O15   Cu4   1.979413 S    
O42   Cu12  1.955218 S    
C79   C80   1.525747 S    
C103  C104  1.526734 S    
O43   C62   1.297754 A    
C82   H21   1.109427 S    
C27   C34   1.553936 S    
O27   Cu8   1.980079 S    
C57   C71   1.424252 S    
C33   C97   1.537076 S    
O21   Cu5   1.980081 S    
N6    O59   1.300309 A    
O39   C60   1.297756 A    
C9    C37   1.539367 S    
C73   H5    1.110743 S    
O31   C56   1.287729 A    
Cu9   O45   1.954922 S    
C22   C26   1.549239 S    
C85   H34   1.109467 S    
O8    Cu4   1.954180 S    
C96   H58   1.110277 S    
C14   C20   1.538044 S    
O36   Cu12  1.955126 S    
C95   C96   1.526711 S    
O48   C64   1.298090 A    
C101  C102  1.526732 S    
O28   C53   1.283507 A    
C103  H79   1.108811 S    
C99   C100  1.526738 S    
C24   C31   1.549286 S    
C56   C70   1.423926 S    
C34   C38   1.559424 S    
C24   C30   1.549246 S    
C104  H77   1.106517 S    
C12   N4    1.459694 S    
C101  H74   1.108777 S    
O24   Cu6   1.980034 S    
C100  H68   1.110170 S    
Cu7   O31   1.954605 S    
C7    C39   1.463973 S    
C28   C87   1.536071 S    
C97   H65   1.108832 S    
C10   C26   1.539382 S    
C16   C19   1.538129 S    
O18   Cu6   1.954828 S    
C78   H12   1.109385 S    
C90   H43   1.110330 S    
O17   Cu5   1.954874 S    
C75   H9    1.110735 S    
C6    C38   1.463968 S    
O19   C50   1.287645 A    
O22   Cu5   1.980032 S    
C89   H44   1.109489 S    
C32   C35   1.553949 S    
C18   C22   1.541095 S    
C74   H1    1.109398 S    
O45   C63   1.298091 A    
Cu1   Cu3   2.664393 S    
O34   C57   1.297750 A    
C5    C37   1.463991 S    
C19   C77   1.530450 S    
Cu2   Cu4   2.664393 S    
O28   Cu8   1.980034 S    
C11   C18   1.538110 S    
O40   Cu9   1.955216 S    
O14   Cu3   1.979412 S    
C83   C84   1.526658 S    
O10   C6    1.279818 A    
C82   H23   1.110386 S    
N2    O52   1.299872 A    
C77   H14   1.110733 S    
C47   C61   1.424921 S    
C79   H19   1.110735 S    
C92   H47   1.109312 S    
C29   C35   1.553936 S    
C76   H6    1.109388 S    
C83   H29   1.110392 S    
C15   C31   1.539284 S    
C15   N7    1.459673 S    
C25   C81   1.535931 S    
C81   C82   1.526511 S    
C73   C74   1.525748 S    
N4    O56   1.299865 A    
C34   C99   1.537008 S    
C86   H33   1.110272 S    
C49   C65   1.424602 S    
C10   C38   1.539273 S    
C30   C91   1.535919 S    
O25   C53   1.283283 A    
C74   H2    1.109394 S    
C91   C92   1.526654 S    
C15   C20   1.538103 S    
O2    Cu1   1.954681 S    
C90   H42   1.106928 S    
C22   C27   1.549297 S    
C41   C45   1.199722 T    
C17   C21   1.541073 S    
C77   H15   1.110738 S    
C17   C73   1.530460 S    
O13   C5    1.287898 A    
O25   Cu7   1.980081 S    
C14   N6    1.459621 S    
O6    C2    1.287726 A    
O29   C55   1.287731 A    
N7    O61   1.300308 A    
Cu10  O46   1.954926 S    
C85   C86   1.526698 S    
O35   C58   1.297751 A    
C16   N8    1.459682 S    
O10   Cu1   1.979627 S    
C86   H32   1.106938 S    
C84   H26   1.106923 S    
C65   C68   1.199753 T    
C9    C17   1.538003 S    
C80   H16   1.109386 S    
C88   H37   1.109337 S    
O33   Cu9   1.955130 S    
C21   C25   1.549279 S    
C95   H59   1.110398 S    
C11   C27   1.539284 S    
O5    C1    1.287717 A    
C46   C60   1.424921 S    
Cu7   Cu8   2.664335 S    
Cu11  Cu12  2.698250 S    
C82   H22   1.106910 S    
O16   C8    1.287884 A    
C94   H53   1.110271 S    
O33   C57   1.297751 A    
C48   C62   1.424921 S    
N7    O62   1.299873 A    
C11   N3    1.459671 S    
