data_mof_unit_pretest_651.cif
_audit_creation_date              2012-12-10T17:29:19-0500
_audit_creation_method            fapswitch 2.2
_symmetry_space_group_name_H-M    P1
_symmetry_Int_Tables_number       1
_space_group_crystal_system       triclinic
_cell_length_a                    12.045557
_cell_length_b                    12.870118
_cell_length_c                    13.124292
_cell_angle_alpha                 86.766173
_cell_angle_beta                  113.252946
_cell_angle_gamma                 93.889356
_cell_volume                      1864.07816715

loop_
_atom_site_label
_atom_site_type_symbol
_atom_type_description
_atom_site_fract_x
_atom_site_fract_y
_atom_site_fract_z
_atom_type_partial_charge
C1    C     C_R   0.476888 0.299540 0.497717 0.890873
C2    C     C_R   0.561098 0.517789 0.988220 0.085725
C3    C     C_R   0.541153 0.548032 0.878001 0.093480
C4    C     C_R   0.472003 0.538447 0.027979 0.081590
C5    C     C_R   0.376424 0.603999 0.965699 0.176109
C6    C     C_R   0.369100 0.646286 0.863385 -0.236762
C7    C     C_R   0.450338 0.618559 0.819742 -0.172778
C8    C     C_R   0.474107 0.493421 0.127289 -0.260282
C9    C     C_R   0.302287 0.589192 0.112891 -0.200243
C10   C     C_R   0.611511 0.505197 0.828462 -0.113763
C11   C     C_R   0.537073 0.811938 0.503540 -0.050646
C12   C     C_R   0.567131 0.500737 0.708245 0.863469
C13   C     C_R   0.463186 0.187976 0.497223 -0.055336
C14   C     C_R   0.364675 0.027653 0.527709 -0.217768
C15   C     C_R   0.369404 0.135459 0.519764 -0.200947
C16   C     C_R   0.550125 0.133552 0.479541 -0.280056
C17   C     C_R   0.546847 0.026586 0.488305 0.186018
C18   C     C_R   0.453664 0.973292 0.512992 0.186464
C19   C     C_R   0.450339 0.866304 0.521634 -0.286880
C20   C     C_R   0.630890 0.864472 0.481090 -0.201828
C21   C     C_R   0.635787 0.972259 0.473481 -0.220393
C22   C     C_R   0.003031 0.589199 0.381024 0.063447
C23   C     C_R   0.523172 0.700434 0.502490 0.873929
C24   C     C_R   0.126091 0.580554 0.396826 -0.087812
C25   C     C_R   0.159643 0.464776 0.552269 0.490206
C26   C     C_R   0.038912 0.471722 0.542032 0.045919
C27   C     C_R   0.959051 0.533561 0.455724 -0.075591
C28   C     C_R   0.837331 0.536549 0.447310 -0.037311
C29   C     C_R   0.875333 0.420626 0.602745 -0.021252
C30   C     C_R   0.995731 0.415291 0.615447 -0.245497
C31   C     C_R   0.433788 0.505383 0.291660 0.877341
C32   C     C_R   0.290804 0.627409 0.007842 -0.194504
C33   C     C_R   0.396548 0.524259 0.173353 -0.056922
C34   C     C_R   0.716965 0.454431 0.894167 -0.192695
C35   C     C_R   0.747607 0.439397 0.007344 -0.137160
C36   C     C_R   0.669084 0.467906 0.053990 -0.199364
H1    H     H_    0.241838 0.614176 0.148708 0.148812
H2    H     H_    0.698170 0.822441 0.466922 0.157924
H3    H     H_    0.292689 0.987017 0.546235 0.140196
H4    H     H_    0.707762 0.012904 0.454947 0.140088
H5    H     H_    0.301977 0.177515 0.533659 0.164328
H6    H     H_    0.621786 0.174342 0.460460 0.161659
H7    H     H_    0.773049 0.584013 0.383611 0.125339
H8    H     H_    0.843474 0.377499 0.659948 0.129485
H9    H     H_    0.054347 0.366802 0.682690 0.195775
H10   H     H_    0.162927 0.621441 0.342207 0.169802
H11   H     H_    0.299181 0.699144 0.816074 0.144254
H12   H     H_    0.218284 0.678294 0.961614 0.137988
H13   H     H_    0.538952 0.436537 0.173180 0.149371
H14   H     H_    0.773627 0.423459 0.857524 0.152494
H15   H     H_    0.696529 0.452428 0.141973 0.126998
H16   H     H_    0.829672 0.401229 0.058251 0.144638
H17   H     H_    0.442228 0.654040 0.740558 0.162796
H18   H     H_    0.378723 0.825452 0.540749 0.158045
N1    N     N_R   0.798200 0.480260 0.519790 -0.090345
N2    N     N_R   0.201820 0.519740 0.480210 -0.169327
O1    O     O_R   0.579910 0.341070 0.505280 -0.619751
O2    O     O_R   0.388440 0.353740 0.492580 -0.646360
O3    O     O_R   0.643280 0.490550 0.663120 -0.618429
O4    O     O_R   0.451810 0.503220 0.650420 -0.604183
O5    O     O_R   0.611560 0.646260 0.507420 -0.620116
O6    O     O_R   0.420090 0.658930 0.494720 -0.631088
O7    O     O_R   0.548190 0.496780 0.349580 -0.621783
O8    O     O_R   0.356720 0.509450 0.336880 -0.619410
Zn1   Zn    Zn3+2 0.627850 0.491540 0.508480 0.935968
Zn2   Zn    Zn3+2 0.372150 0.508460 0.491520 0.932744
C37   C     C_3   0.917967 0.655591 0.285967 -0.395826
C38   C     C_3   0.971091 0.708152 0.206588 -0.882112
H19   H     H_    0.047171 0.763964 0.251305 0.254627
H20   H     H_    0.002123 0.648868 0.166685 0.255690
H21   H     H_    0.900178 0.752295 0.140243 0.258095
H22   H     H_    0.838503 0.605502 0.235603 0.209416
H23   H     H_    0.885314 0.717512 0.321429 0.204189
O9    O     O_3   0.232810 0.400715 0.635840 -0.787143
H24   H     H_    0.293495 0.375462 0.612000 0.376371

loop_
_geom_bond_atom_site_label_1
_geom_bond_atom_site_label_2
_ccdc_geom_bond_type
O7    Zn1   S    
C14   C18   A    
C30   H9    S    
C35   C36   A    
C25   N2    A    
C4    C8    A    
C11   C19   A    
C26   C27   A    
C25   O9    S    
C3    C7    A    
C5    C6    A    
C34   C35   A    
C9    C32   A    
C14   H3    S    
C38   H19   S    
C12   O3    A    
O2    Zn2   S    
C23   O6    A    
C16   C17   A    
C31   C33   S    
C37   H23   S    
C5    C32   A    
O4    Zn2   S    
C9    C33   A    
C32   H12   S    
N1    Zn1   S    
C28   N1    A    
C11   C20   A    
C34   H14   S    
C6    H11   S    
O6    Zn2   S    
C37   C38   S    
C31   O7    A    
C37   H22   S    
C15   H5    S    
O9    H24   S    
C18   C19   A    
C29   N1    A    
C25   C26   A    
C17   C21   A    
O8    Zn2   S    
C2    C4    A    
C29   C30   A    
C1    O1    A    
C20   H2    S    
C9    H1    S    
C17   C18   A    
C10   C34   A    
C36   H15   S    
C10   C12   S    
C19   H18   S    
C26   C30   A    
C22   C27   A    
C13   C15   A    
C29   H8    S    
C22   C24   A    
C1    C13   S    
C7    H17   S    
C16   H6    S    
C35   H16   S    
C2    C36   A    
C31   O8    A    
O1    Zn1   S    
C4    C5    A    
C6    C7    A    
C24   N2    A    
C28   H7    S    
C24   H10   S    
C2    C3    A    
C3    C10   A    
C1    O2    A    
O3    Zn1   S    
C21   H4    S    
C38   H21   S    
N2    Zn2   S    
C11   C23   S    
C8    C33   A    
C22   C37   S    
C12   O4    A    
O5    Zn1   S    
C23   O5    A    
C20   C21   A    
C38   H20   S    
C13   C16   A    
C27   C28   A    
C14   C15   A    
C8    H13   S    
