data_mof_unit_pretest_42.cif
_audit_creation_date              2012-12-10T20:45:36-0500
_audit_creation_method            fapswitch 2.2
_symmetry_space_group_name_H-M    P1
_symmetry_Int_Tables_number       1
_space_group_crystal_system       triclinic
_cell_length_a                    10.6908
_cell_length_b                    10.671529
_cell_length_c                    9.844378
_cell_angle_alpha                 89.730887
_cell_angle_beta                  90.29877
_cell_angle_gamma                 90.103374
_cell_volume                      1123.08791037

loop_
_atom_site_label
_atom_site_type_symbol
_atom_type_description
_atom_site_fract_x
_atom_site_fract_y
_atom_site_fract_z
_atom_type_partial_charge
C1    C     C_R   0.503293 0.259894 0.500438 0.873929
C2    C     C_R   0.228331 0.813198 0.096632 -0.110528
C3    C     C_R   0.932053 0.565133 0.399011 -0.253592
C4    C     C_R   0.872426 0.497479 0.501693 -0.074482
C5    C     C_R   0.939742 0.437234 0.606167 -0.007251
C6    C     C_R   0.067848 0.443276 0.603214 -0.263311
C7    C     C_R   0.127787 0.509618 0.499789 -0.079242
C8    C     C_R   0.060620 0.574373 0.397822 -0.000768
C9    C     C_R   0.879665 0.414665 0.849924 -0.136725
C10   C     C_R   0.822948 0.347746 0.955460 -0.141104
C11   C     C_R   0.768627 0.230872 0.929986 -0.105329
C12   C     C_R   0.260238 0.504753 0.499593 0.867874
C13   C     C_R   0.770894 0.180886 0.798931 -0.106641
C14   C     C_R   0.825475 0.248473 0.692594 -0.138396
C15   C     C_R   0.880368 0.365687 0.717700 0.140283
C16   C     C_R   0.507300 0.062873 0.624067 0.060043
C17   C     C_R   0.521406 0.128422 0.502520 -0.137942
C18   C     C_R   0.558523 0.065534 0.384539 -0.221569
C19   C     C_R   0.559134 0.935824 0.384174 -0.246197
C20   C     C_R   0.521561 0.871344 0.501397 -0.078263
C21   C     C_R   0.505950 0.935083 0.622860 0.040107
C22   C     C_3   0.403142 0.925137 0.724803 -0.554900
C23   C     C_R   0.503749 0.739969 0.499823 0.874481
C24   C     C_3   0.404642 0.067620 0.727417 0.270961
C25   C     C_R   0.440113 0.406942 0.071485 0.217071
C26   C     C_R   0.569275 0.584341 0.072025 -0.140592
C27   C     C_R   0.569594 0.584091 0.927890 -0.141464
C28   C     C_R   0.438219 0.408434 0.928760 0.330104
C29   C     C_3   0.300952 0.382787 0.924744 -0.510756
C30   C     C_3   0.304454 0.376138 0.078655 -0.506166
C31   C     C_R   0.739891 0.497301 0.500554 0.867024
C32   C     C_R   0.255071 0.831568 0.234189 -0.120604
C33   C     C_R   0.201140 0.753723 0.332532 -0.098730
C34   C     C_R   0.119806 0.656420 0.293718 0.133750
C35   C     C_R   0.090727 0.640982 0.155224 -0.194121
C36   C     C_R   0.146012 0.718128 0.057185 -0.145681
H1    H     H_    0.270606 0.873280 0.020745 0.140885
H2    H     H_    0.725337 0.178805 0.011886 0.117185
H3    H     H_    0.730852 0.089501 0.779777 0.121569
H4    H     H_    0.825859 0.209308 0.591263 0.113378
H5    H     H_    0.579406 0.115564 0.291322 0.170117
H6    H     H_    0.580423 0.887018 0.290861 0.162491
H7    H     H_    0.315547 0.885723 0.680834 0.170827
H8    H     H_    0.434953 0.879553 0.820707 0.207818
H9    H     H_    0.317245 0.112031 0.689000 0.116971
H10   H     H_    0.623143 0.653954 0.126511 0.140841
H11   H     H_    0.317155 0.906571 0.264621 0.138969
H12   H     H_    0.623921 0.653350 0.873324 0.148424
H13   H     H_    0.246330 0.464010 0.885633 0.200346
H14   H     H_    0.277569 0.291858 0.876568 0.238480
H15   H     H_    0.249214 0.450419 0.128265 0.232353
H16   H     H_    0.288210 0.280128 0.119242 0.212888
H17   H     H_    0.222141 0.769729 0.438803 0.088834
H18   H     H_    0.027283 0.567515 0.122978 0.125817
H19   H     H_    0.124863 0.704259 0.950642 0.129998
H20   H     H_    0.877835 0.615263 0.322754 0.153999
H21   H     H_    0.121034 0.393074 0.680197 0.155523
H22   H     H_    0.921865 0.504992 0.870722 0.115184
H23   H     H_    0.821395 0.386329 0.056976 0.134395
N1    N     N_R   0.499160 0.499140 0.142800 -0.108825
N2    N     N_R   0.499160 0.499180 0.857150 -0.116451
O1    O     O_R   0.500020 0.316790 0.614690 -0.589345
O2    O     O_R   0.500000 0.316760 0.385350 -0.624003
O3    O     O_R   0.316770 0.500030 0.614670 -0.630614
O4    O     O_R   0.316750 0.499990 0.385330 -0.609967
O5    O     O_R   0.500000 0.683240 0.614650 -0.618494
O6    O     O_R   0.499980 0.683210 0.385310 -0.623837
O7    O     O_R   0.683250 0.500010 0.614670 -0.609069
O8    O     O_R   0.683230 0.499970 0.385330 -0.631568
Zn1   Zn    Zn3+2 0.500010 0.500020 0.653130 0.961274
Zn2   Zn    Zn3+2 0.499990 0.499980 0.346870 0.942899
O9    O     O_3   0.444584 0.117104 0.852722 -0.772927
H24   H     H_    0.522420 0.073739 0.881686 0.332364

loop_
_geom_bond_atom_site_label_1
_geom_bond_atom_site_label_2
_ccdc_geom_bond_type
N2    Zn1   S    
C27   H12   S    
C11   H2    S    
C30   H15   S    
C19   H6    S    
C16   C21   A    
C25   N1    A    
O3    Zn1   S    
C3    H20   S    
O5    Zn1   S    
C1    C17   S    
C35   C36   A    
C2    H1    S    
C20   C23   S    
C10   H23   S    
C32   C33   A    
C19   C20   A    
C33   C34   A    
C9    C15   A    
C7    C8    A    
C16   C24   S    
C36   H19   S    
C29   H13   S    
C21   C22   S    
C28   N2    A    
C35   H18   S    
C33   H17   S    
C11   C13   A    
C6    H21   S    
O1    Zn1   S    
C26   C27   A    
C29   C30   S    
O9    H24   S    
C24   H9    S    
C1    O2    A    
C23   O5    A    
C2    C32   A    
C28   C29   S    
O2    Zn2   S    
C9    H22   S    
C6    C7    A    
O6    Zn2   S    
C29   H14   S    
C3    C8    A    
C17   C18   A    
C5    C6    A    
C12   O3    A    
C32   H11   S    
C22   C24   S    
C7    C12   S    
C5    C15   S    
C4    C31   S    
C13   H3    S    
C10   C11   A    
C26   H10   S    
C14   H4    S    
C3    C4    A    
C9    C10   A    
C31   O8    A    
C2    C36   A    
C20   C21   A    
C24   O9    S    
C1    O1    A    
O7    Zn1   S    
C34   C35   A    
C12   O4    A    
C18   H5    S    
C23   O6    A    
C25   C30   S    
O8    Zn2   S    
C30   H16   S    
C14   C15   A    
C18   C19   A    
C8    C34   S    
C27   N2    A    
N1    Zn2   S    
O4    Zn2   S    
C26   N1    A    
C31   O7    A    
C22   H8    S    
C22   H7    S    
C16   C17   A    
C4    C5    A    
C25   C28   A    
C13   C14   A    
