data_mof_unit_pretest_1330.cif
_audit_creation_date              2012-12-10T16:56:30-0500
_audit_creation_method            fapswitch 2.2
_symmetry_space_group_name_H-M    P1
_symmetry_Int_Tables_number       1
_space_group_crystal_system       triclinic
_cell_length_a                    7.790257
_cell_length_b                    8.467746
_cell_length_c                    15.743973
_cell_angle_alpha                 91.41428
_cell_angle_beta                  85.241355
_cell_angle_gamma                 93.366627
_cell_volume                      1032.99465447

loop_
_atom_site_label
_atom_site_type_symbol
_atom_type_description
_atom_site_fract_x
_atom_site_fract_y
_atom_site_fract_z
_atom_type_partial_charge
C1    C     C_R   0.545349 0.793736 0.510549 0.934131
C2    C     C_3   0.373817 0.394803 0.030235 -0.055320
C3    C     C_1   0.504017 0.500886 0.750262 -0.136422
C4    C     C_1   0.496042 0.499232 0.249704 -0.145188
C5    C     C_3   0.348460 0.541542 0.977591 0.351547
C6    C     C_3   0.651776 0.458549 0.022312 0.352643
C7    C     C_3   0.504112 0.501901 0.915850 -0.046215
C8    C     C_3   0.496111 0.498186 0.084066 -0.045954
C9    C     C_1   0.504840 0.501378 0.825282 0.120800
C10   C     C_1   0.495298 0.498717 0.174662 0.126538
C11   C     C_3   0.767807 0.723722 0.935281 -0.760401
C12   C     C_R   0.455835 0.207231 0.514442 0.933448
C13   C     C_3   0.232379 0.276328 0.064517 -0.754411
C14   C     C_3   0.753628 0.015257 0.553830 -0.806117
C15   C     C_3   0.254647 0.991850 0.580884 -0.829404
C16   C     C_R   0.501337 0.500458 0.661817 0.845967
C17   C     C_R   0.498692 0.499690 0.338195 0.900508
C18   C     C_2   0.571025 0.956182 0.537276 -0.048037
C19   C     C_2   0.433563 0.048054 0.544255 -0.034122
C20   C     C_3   0.469509 0.643849 0.031294 0.348990
C21   C     C_3   0.530721 0.356244 0.968606 0.347554
C22   C     C_3   0.626411 0.605285 0.969662 -0.053370
H1    H     H_    0.834879 0.779061 0.988944 0.264254
H2    H     H_    0.122317 0.614657 0.005423 0.362999
H3    H     H_    0.816541 0.924591 0.588287 0.254600
H4    H     H_    0.831286 0.039155 0.492651 0.255715
H5    H     H_    0.754622 0.122270 0.596075 0.255705
H6    H     H_    0.192838 0.088309 0.619062 0.241946
H7    H     H_    0.171950 0.955284 0.528855 0.266025
H8    H     H_    0.261944 0.893872 0.625756 0.239671
H9    H     H_    0.936846 0.307552 0.390114 0.338678
H10   H     H_    0.060625 0.679073 0.615968 0.332958
H11   H     H_    0.862018 0.662288 0.891313 0.264295
H12   H     H_    0.710331 0.816946 0.900256 0.242835
H13   H     H_    0.165375 0.221101 0.010802 0.262447
H14   H     H_    0.289804 0.183023 0.099503 0.244298
H15   H     H_    0.138126 0.337701 0.108489 0.265774
H16   H     H_    0.418487 0.859776 0.017096 0.349508
H17   H     H_    0.581773 0.140305 0.982746 0.350004
H18   H     H_    0.877759 0.385122 0.994481 0.362071
N1    N     N_2   0.950320 0.457950 0.477300 0.182370
N2    N     N_2   0.049680 0.542050 0.522700 0.182669
O1    O     O_R   0.389250 0.738570 0.505570 -0.636268
O2    O     O_3   0.565216 0.206993 0.933542 -0.745567
O3    O     O_3   0.808850 0.412999 0.047906 -0.751300
O4    O     O_3   0.191410 0.587104 0.951972 -0.753483
O5    O     O_3   0.030777 0.361997 0.420252 -0.652208
O6    O     O_3   0.968145 0.632096 0.582330 -0.670986
O7    O     O_R   0.610750 0.261430 0.494430 -0.643704
O8    O     O_R   0.678390 0.711630 0.491020 -0.576976
O9    O     O_R   0.321610 0.288370 0.508980 -0.573619
O10   O     O_R   0.355460 0.513480 0.630490 -0.640075
O11   O     O_R   0.644540 0.486520 0.369510 -0.619247
O12   O     O_R   0.644600 0.486540 0.615950 -0.577340
O13   O     O_R   0.355400 0.513460 0.384050 -0.559049
O14   O     O_3   0.435005 0.793123 0.066320 -0.742108
Zn1   Zn    Zn3+2 0.306940 0.517990 0.509710 1.038561
Zn2   Zn    Zn3+2 0.693060 0.482010 0.490290 1.037384

loop_
_geom_bond_atom_site_label_1
_geom_bond_atom_site_label_2
_ccdc_geom_bond_type
O11   Zn2   S    
C13   H13   S    
H17   O2    S    
C3    C9    T    
C6    O3    S    
C14   H5    S    
C21   O2    S    
N1    N2    D    
C17   O13   A    
C11   C22   S    
C13   H15   S    
C20   O14   S    
H2    O4    S    
C2    C21   S    
C12   O7    A    
N1    O5    S    
O8    Zn2   S    
C5    C20   S    
N2    O6    S    
C14   H4    S    
C15   C19   S    
H10   O6    S    
C15   H6    S    
C8    C20   S    
C5    O4    S    
C15   H8    S    
O9    Zn1   S    
C4    C17   S    
N2    Zn1   S    
C11   H1    S    
H9    O5    S    
C20   C22   S    
N1    Zn2   S    
C15   H7    S    
C7    C9    S    
O13   Zn1   S    
C14   H3    S    
O12   Zn2   S    
H18   O3    S    
C16   O12   A    
C2    C5    S    
C3    C16   S    
O10   Zn1   S    
O1    Zn1   S    
C4    C10   T    
C7    C22   S    
C17   O11   A    
C11   H11   S    
C12   O9    A    
H16   O14   S    
C12   C19   S    
C13   H14   S    
C8    C10   S    
C18   C19   D    
C1    O8    A    
C5    C7    S    
C2    C13   S    
C1    C18   S    
C6    C8    S    
C7    C21   S    
C6    C21   S    
C14   C18   S    
C1    O1    A    
C11   H12   S    
C2    C8    S    
O7    Zn2   S    
C16   O10   A    
C6    C22   S    
