data_mof_unit_pretest_1625.cif
_audit_creation_date              2012-12-10T17:17:48-0500
_audit_creation_method            fapswitch 2.2
_symmetry_space_group_name_H-M    P1
_symmetry_Int_Tables_number       1
_space_group_crystal_system       triclinic
_cell_length_a                    18.270199
_cell_length_b                    18.267696
_cell_length_c                    59.936351
_cell_angle_alpha                 90.00077
_cell_angle_beta                  90.000748
_cell_angle_gamma                 90.002815
_cell_volume                      20004.0233074

loop_
_atom_site_label
_atom_site_type_symbol
_atom_type_description
_atom_site_fract_x
_atom_site_fract_y
_atom_site_fract_z
_atom_type_partial_charge
C1    C     C_R   0.500000 1.000000 0.939259 1.054869
C2    C     C_R   0.434533 0.011751 0.620769 -0.013638
C3    C     C_R   0.470306 0.941804 0.832533 0.667013
C4    C     C_R   0.559685 0.973445 0.332521 0.666564
C5    C     C_R   0.030901 0.557563 0.332533 0.667207
C6    C     C_R   0.440314 0.026549 0.332521 0.666563
C7    C     C_R   0.969092 0.442440 0.332532 0.667206
C8    C     C_R   0.978293 0.437088 0.879266 0.000614
C9    C     C_R   0.562466 0.977060 0.879288 0.000648
C10   C     C_R   0.021707 0.562907 0.879266 0.000612
C11   C     C_R   0.437528 0.022940 0.879288 0.000650
C12   C     C_R   0.478344 0.937070 0.379265 0.000540
C13   C     C_R   0.991111 0.434082 0.620795 -0.011340
C14   C     C_R   0.062270 0.476526 0.379294 0.000600
C15   C     C_R   0.521657 0.062924 0.379266 0.000538
C16   C     C_R   0.937725 0.523476 0.379294 0.000602
C17   C     C_R   0.978367 0.437073 0.902661 0.565591
C18   C     C_R   0.562485 0.977161 0.902683 0.565496
C19   C     C_R   0.021634 0.562923 0.902662 0.565593
C20   C     C_R   0.437511 0.022839 0.902683 0.565499
C21   C     C_R   0.478417 0.937055 0.402661 0.565627
C22   C     C_R   0.062290 0.476640 0.402689 0.565430
C23   C     C_R   0.521584 0.062940 0.402661 0.565625
C24   C     C_R   0.565473 0.988250 0.620769 -0.013634
C25   C     C_R   0.937706 0.523360 0.402689 0.565434
C26   C     C_R   1.000000 0.499997 0.867598 0.145193
C27   C     C_R   0.499997 0.000001 0.867616 0.144904
C28   C     C_R   0.500000 0.999997 0.367598 0.145200
C29   C     C_R   0.999997 0.500001 0.367619 0.144811
C30   C     C_R   0.433481 0.008693 0.238357 -0.011435
C31   C     C_R   0.986374 0.434409 0.238369 -0.047872
C32   C     C_R   0.566518 0.991309 0.238358 -0.011435
C33   C     C_R   0.013629 0.565594 0.238370 -0.047873
C34   C     C_R   0.933507 0.508894 0.738357 -0.011480
C35   C     C_R   0.508786 0.065968 0.097399 0.508792
C36   C     C_R   0.487788 0.934131 0.738373 -0.047952
C37   C     C_R   0.066491 0.491109 0.738357 -0.011480
C38   C     C_R   0.512214 0.065871 0.738374 -0.047953
C39   C     C_R   0.499999 0.000002 0.226538 -0.061945
C40   C     C_R   0.000002 0.500001 0.226517 -0.062948
C41   C     C_R   0.999999 0.500002 0.726537 -0.061970
C42   C     C_R   0.500002 0.000001 0.726521 -0.062962
C43   C     C_R   0.639603 0.859685 0.999805 0.941836
C44   C     C_R   0.140307 0.639609 0.999805 0.941869
C45   C     C_R   0.360397 0.140315 0.999805 0.941850
C46   C     C_R   0.934704 0.512788 0.097365 0.506613
C47   C     C_R   0.859693 0.360390 0.999805 0.941872
C48   C     C_R   0.360397 0.859684 0.999806 0.942881
C49   C     C_R   0.859680 0.639599 0.999802 0.943092
C50   C     C_R   0.639603 0.140316 0.999806 0.942882
C51   C     C_R   0.140320 0.360400 0.999802 0.943104
C52   C     C_R   0.139602 0.359684 0.499804 0.941822
C53   C     C_R   0.640307 0.139609 0.499805 0.941859
C54   C     C_R   0.860398 0.640316 0.499804 0.941833
C55   C     C_R   0.359693 0.860390 0.499805 0.941861
C56   C     C_R   0.860397 0.359684 0.499806 0.942897
C57   C     C_R   0.491213 0.934036 0.097399 0.508791
C58   C     C_R   0.359679 0.139599 0.499802 0.942972
C59   C     C_R   0.139603 0.640316 0.499806 0.942896
C60   C     C_R   0.640321 0.860401 0.499802 0.942984
C61   C     C_R   0.367111 0.002468 0.226471 0.652018
C62   C     C_R   0.987862 0.367770 0.226555 0.732231
C63   C     C_R   0.632887 0.997536 0.226472 0.652018
C64   C     C_R   0.012141 0.632232 0.226556 0.732230
C65   C     C_R   0.867120 0.502869 0.726470 0.651953
C66   C     C_R   0.490716 0.867540 0.726560 0.732234
C67   C     C_R   0.132878 0.497135 0.726471 0.651953
C68   C     C_R   0.065300 0.487212 0.097365 0.506613
C69   C     C_R   0.509288 0.132462 0.726561 0.732235
C70   C     C_R   0.355899 0.752347 0.963428 0.445300
C71   C     C_R   0.247336 0.355600 0.963340 0.445688
C72   C     C_R   0.644089 0.247656 0.963430 0.445294
C73   C     C_R   0.752662 0.644398 0.963340 0.445690
C74   C     C_R   0.644505 0.752780 0.963312 0.459841
C75   C     C_R   0.752490 0.355805 0.963397 0.458962
C76   C     C_R   0.355493 0.247218 0.963313 0.459846
C77   C     C_R   0.247501 0.644195 0.963396 0.458966
C78   C     C_R   0.855893 0.252352 0.463427 0.445246
C79   C     C_R   0.008927 0.565949 0.597398 0.508775
C80   C     C_R   0.747295 0.855558 0.463328 0.445775
C81   C     C_R   0.144100 0.747646 0.463427 0.445240
C82   C     C_R   0.252700 0.144436 0.463329 0.445772
C83   C     C_R   0.144546 0.252821 0.463301 0.460145
C84   C     C_R   0.252501 0.855794 0.463394 0.458958
C85   C     C_R   0.855449 0.747174 0.463300 0.460151
C86   C     C_R   0.747495 0.144201 0.463394 0.458954
C87   C     C_R   0.352373 0.701306 0.946188 0.484525
C88   C     C_R   0.298212 0.351922 0.946061 0.484393
C89   C     C_R   0.647612 0.298697 0.946191 0.484525
C90   C     C_R   0.434514 0.011782 0.597372 0.506722
C91   C     C_R   0.701785 0.648075 0.946060 0.484394
C92   C     C_R   0.648142 0.701860 0.946043 0.490687
C93   C     C_R   0.701405 0.352337 0.946171 0.490440
C94   C     C_R   0.351855 0.298137 0.946044 0.490686
C95   C     C_R   0.298581 0.647664 0.946169 0.490445
C96   C     C_R   0.852364 0.201315 0.446186 0.484528
C97   C     C_R   0.798147 0.851857 0.446043 0.484268
C98   C     C_R   0.147628 0.798681 0.446187 0.484530
C99   C     C_R   0.201845 0.148135 0.446044 0.484268
C100  C     C_R   0.148203 0.201922 0.446026 0.490739
C101  C     C_R   0.991072 0.434055 0.597398 0.508776
C102  C     C_R   0.201422 0.852321 0.446167 0.490455
C103  C     C_R   0.851789 0.798070 0.446025 0.490739
C104  C     C_R   0.798571 0.147674 0.446166 0.490459
C105  C     C_R   0.249006 0.695993 0.981133 -0.255069
C106  C     C_R   0.303851 0.248862 0.981089 -0.255443
C107  C     C_R   0.750990 0.304007 0.981133 -0.255066
C108  C     C_R   0.696148 0.751137 0.981089 -0.255438
C109  C     C_R   0.751101 0.696121 0.981096 -0.252041
C110  C     C_R   0.695966 0.249061 0.981143 -0.251955
C111  C     C_R   0.248898 0.303877 0.981096 -0.252040
C112  C     C_R   0.000000 0.499999 0.939253 1.053938
C113  C     C_R   0.565490 0.988219 0.597372 0.506722
C114  C     C_R   0.304028 0.750941 0.981142 -0.251955
C115  C     C_R   0.749003 0.195996 0.481132 -0.255047
C116  C     C_R   0.803829 0.748840 0.481082 -0.255576
C117  C     C_R   0.250995 0.804002 0.481132 -0.255048
C118  C     C_R   0.196168 0.251157 0.481083 -0.255573
C119  C     C_R   0.251120 0.196141 0.481090 -0.252031
C120  C     C_R   0.195971 0.749056 0.481142 -0.251941
C121  C     C_R   0.748877 0.803856 0.481089 -0.252033
C122  C     C_R   0.804025 0.250943 0.481141 -0.251942
C123  C     C_R   0.306288 0.801655 0.999077 0.030879
C124  C     C_R   0.499999 0.000003 0.132463 0.172635
C125  C     C_R   0.198351 0.306294 0.999071 0.030754
C126  C     C_R   0.693711 0.198346 0.999078 0.030882
C127  C     C_R   0.801649 0.693706 0.999071 0.030758
C128  C     C_R   0.693714 0.801663 0.999071 0.030689
C129  C     C_R   0.801685 0.306265 0.999071 0.030709
C130  C     C_R   0.306285 0.198337 0.999071 0.030684
C131  C     C_R   0.198317 0.693733 0.999072 0.030709
C132  C     C_R   0.806288 0.301655 0.499077 0.030871
C133  C     C_R   0.698353 0.806295 0.499070 0.030787
C134  C     C_R   0.193710 0.698346 0.499078 0.030872
C135  C     C_R   0.000003 0.500001 0.132430 0.193571
C136  C     C_R   0.301647 0.193705 0.499070 0.030793
C137  C     C_R   0.193713 0.301661 0.499070 0.030639
C138  C     C_R   0.301684 0.806266 0.499071 0.030714
C139  C     C_R   0.806287 0.698339 0.499070 0.030634
C140  C     C_R   0.698317 0.193732 0.499072 0.030715
C141  C     C_R   0.256789 0.797371 0.016909 0.030426
C142  C     C_R   0.202828 0.256976 0.016947 0.030321
C143  C     C_R   0.743216 0.202628 0.016908 0.030426
C144  C     C_R   0.797173 0.743025 0.016947 0.030322
C145  C     C_R   0.743023 0.797176 0.016948 0.029642
C146  C     C_R   0.999999 0.500004 0.632462 0.172662
C147  C     C_R   0.797377 0.256773 0.016906 0.029656
C148  C     C_R   0.256978 0.202824 0.016948 0.029642
C149  C     C_R   0.202629 0.743225 0.016907 0.029655
C150  C     C_R   0.756794 0.297366 0.516910 0.030410
C151  C     C_R   0.702853 0.757001 0.516952 0.030347
C152  C     C_R   0.243208 0.702636 0.516910 0.030409
C153  C     C_R   0.297150 0.243002 0.516951 0.030349
C154  C     C_R   0.243000 0.297154 0.516952 0.029681
C155  C     C_R   0.297369 0.756781 0.516908 0.029700
C156  C     C_R   0.757003 0.702849 0.516953 0.029679
C157  C     C_R   0.500003 0.000001 0.632436 0.193449
C158  C     C_R   0.702634 0.243220 0.516908 0.029699
C159  C     C_R   0.434708 0.001352 0.167502 0.620241
C160  C     C_R   0.993716 0.434967 0.167430 0.602179
C161  C     C_R   0.565291 0.998656 0.167502 0.620241
C162  C     C_R   0.006292 0.565034 0.167430 0.602180
C163  C     C_R   0.934712 0.501548 0.667501 0.620213
C164  C     C_R   0.495105 0.934847 0.667436 0.602167
C165  C     C_R   0.065286 0.498460 0.667501 0.620214
C166  C     C_R   0.504904 0.065154 0.667436 0.602168
C167  C     C_R   0.499999 0.000003 0.202864 -0.150017
C168  C     C_R   0.000003 0.500001 0.202813 -0.102306
C169  C     C_R   0.999999 0.500003 0.702863 -0.150040
C170  C     C_R   0.500003 0.000001 0.702818 -0.102340
C171  C     C_R   0.432847 0.000867 0.191056 -0.089896
C172  C     C_R   0.999999 0.500000 0.439260 1.055357
C173  C     C_R   0.994099 0.432824 0.191016 -0.141452
C174  C     C_R   0.567152 0.999140 0.191057 -0.089894
C175  C     C_R   0.005908 0.567178 0.191017 -0.141450
C176  C     C_R   0.932850 0.501069 0.691055 -0.089919
C177  C     C_R   0.495545 0.932712 0.691021 -0.141506
C178  C     C_R   0.067149 0.498937 0.691056 -0.089917
C179  C     C_R   0.504462 0.067289 0.691022 -0.141503
C180  C     C_R   0.366331 0.999410 0.203134 -0.009741
C181  C     C_R   0.990698 0.366291 0.203314 -0.016951
C182  C     C_R   0.633667 0.000596 0.203135 -0.009742
C183  C     C_R   0.500000 0.999999 0.439253 1.053928
C184  C     C_R   0.009308 0.633711 0.203315 -0.016951
C185  C     C_R   0.866331 0.499815 0.703133 -0.009786
C186  C     C_R   0.493585 0.866122 0.703319 -0.017008
C187  C     C_R   0.133668 0.500192 0.703134 -0.009788
C188  C     C_R   0.506421 0.133880 0.703320 -0.017009
C189  C     C_R   0.500000 0.000002 0.085436 -0.321693
C190  C     C_R   0.000002 0.500000 0.085414 -0.321044
C191  C     C_R   1.000000 0.500002 0.585435 -0.321666
C192  C     C_R   0.500002 0.000000 0.585418 -0.321319
C193  C     C_R   0.000000 0.499998 0.914569 -0.336008
C194  C     C_R   0.508746 0.065943 0.120796 -0.011347
C195  C     C_R   0.499998 1.000000 0.914583 -0.336751
C196  C     C_R   0.500000 0.999998 0.414569 -0.335985
C197  C     C_R   0.999998 0.500000 0.414587 -0.336999
C198  C     C_R   0.935990 0.520263 0.761801 -0.107827
C199  C     C_R   0.476501 0.937154 0.761816 -0.107079
C200  C     C_R   0.064009 0.479736 0.761801 -0.107827
C201  C     C_R   0.523498 0.062848 0.761817 -0.107078
C202  C     C_R   0.435929 0.020071 0.261801 -0.107693
C203  C     C_R   0.975158 0.437673 0.261813 -0.106889
C204  C     C_R   0.564069 0.979929 0.261802 -0.107694
C205  C     C_R   0.934722 0.512764 0.120762 -0.013637
C206  C     C_R   0.024841 0.562330 0.261814 -0.106887
C207  C     C_R   0.999999 0.499999 0.773581 -0.065691
C208  C     C_R   0.499999 0.000001 0.773600 -0.054454
C209  C     C_R   0.499999 0.999999 0.273581 -0.065629
C210  C     C_R   0.999999 0.500002 0.273597 -0.054394
C211  C     C_R   0.500000 0.000000 0.060680 0.890550
C212  C     C_R   0.000000 0.500000 0.060672 0.892880
C213  C     C_R   1.000000 0.500000 0.560680 0.890612
C214  C     C_R   0.500000 0.000000 0.560673 0.892312
C215  C     C_R   0.878173 0.553310 0.773837 0.619130
C216  C     C_R   0.491252 0.934063 0.120795 -0.011351
C217  C     C_R   0.440567 0.881056 0.773845 0.612297
C218  C     C_R   0.121825 0.446688 0.773838 0.619129
C219  C     C_R   0.559432 0.118946 0.773847 0.612298
C220  C     C_R   0.378013 0.052945 0.273838 0.619128
C221  C     C_R   0.938033 0.382357 0.273843 0.612281
C222  C     C_R   0.621985 0.947054 0.273838 0.619131
C223  C     C_R   0.061966 0.617646 0.273845 0.612279
C224  C     C_R   0.879304 0.555905 0.797074 0.621137
C225  C     C_R   0.438028 0.882292 0.797083 0.623413
C226  C     C_R   0.120694 0.444091 0.797074 0.621139
C227  C     C_R   0.065284 0.487237 0.120762 -0.013633
C228  C     C_R   0.561968 0.117711 0.797085 0.623414
C229  C     C_R   0.379137 0.055545 0.297075 0.621172
C230  C     C_R   0.935532 0.383641 0.297081 0.623321
C231  C     C_R   0.620861 0.944451 0.297075 0.621172
C232  C     C_R   0.064464 0.616362 0.297083 0.623322
C233  C     C_R   0.938988 0.527289 0.809039 -0.238201
C234  C     C_R   0.469642 0.940447 0.809052 -0.238111
C235  C     C_R   0.061010 0.472706 0.809039 -0.238203
C236  C     C_R   0.530353 0.059556 0.809053 -0.238112
C237  C     C_R   0.438907 0.027108 0.309039 -0.238094
C238  C     C_R   0.008888 0.565924 0.620795 -0.011337
C239  C     C_R   0.968386 0.441106 0.309050 -0.237822
C240  C     C_R   0.561091 0.972887 0.309039 -0.238096
C241  C     C_R   0.031609 0.558898 0.309051 -0.237823
C242  C     C_R   0.999999 0.499998 0.797235 -0.209695
C243  C     C_R   0.499998 0.000002 0.797251 -0.212765
C244  C     C_R   0.499999 0.999998 0.297235 -0.209632
C245  C     C_R   0.999998 0.500002 0.297249 -0.212773
C246  C     C_R   0.059606 0.473270 0.832520 0.666518
C247  C     C_R   0.529688 0.058199 0.832534 0.667011
C248  C     C_R   0.940392 0.526724 0.832520 0.666516
F1    F     F_    0.823859 0.590438 0.763314 -0.539763
F2    F     F_    0.994705 0.302916 0.237455 -0.557282
F3    F     F_    0.697183 0.008861 0.237322 -0.584573
F4    F     F_    0.005298 0.697087 0.237457 -0.557281
F5    F     F_    0.802790 0.491736 0.737319 -0.584569
F6    F     F_    0.498958 0.802850 0.737461 -0.557125
F7    F     F_    0.197208 0.508267 0.737321 -0.584568
F8    F     F_    0.501045 0.197152 0.737463 -0.557124
F9    F     F_    0.411398 0.801677 0.962646 -0.582116
F10   F     F_    0.198026 0.411114 0.962556 -0.581925
F11   F     F_    0.588589 0.198327 0.962649 -0.582115
F12   F     F_    0.400819 0.828650 0.763308 -0.540295
F13   F     F_    0.801972 0.588884 0.962556 -0.581925
F14   F     F_    0.589121 0.802227 0.962492 -0.572620
F15   F     F_    0.801973 0.411163 0.962573 -0.573279
F16   F     F_    0.410877 0.197771 0.962493 -0.572614
F17   F     F_    0.198021 0.588835 0.962572 -0.573278
F18   F     F_    0.911393 0.301681 0.462644 -0.582160
F19   F     F_    0.697990 0.911076 0.462545 -0.581918
F20   F     F_    0.088598 0.698318 0.462646 -0.582162
F21   F     F_    0.302005 0.088918 0.462545 -0.581920
F22   F     F_    0.089160 0.302266 0.462480 -0.572420
F23   F     F_    0.176140 0.409562 0.763314 -0.539764
F24   F     F_    0.301983 0.911153 0.462570 -0.573321
F25   F     F_    0.910835 0.697729 0.462480 -0.572415
F26   F     F_    0.698015 0.088841 0.462571 -0.573322
F27   F     F_    0.402335 0.703426 0.929451 -0.471563
F28   F     F_    0.295940 0.401742 0.929284 -0.471532
F29   F     F_    0.597644 0.296579 0.929455 -0.471558
F30   F     F_    0.704056 0.598254 0.929283 -0.471529
F31   F     F_    0.598408 0.704218 0.929245 -0.470389
F32   F     F_    0.703623 0.402221 0.929411 -0.470253
F33   F     F_    0.401588 0.295779 0.929246 -0.470384
F34   F     F_    0.599181 0.171353 0.763311 -0.540294
F35   F     F_    0.296359 0.597781 0.929409 -0.470255
F36   F     F_    0.902324 0.203437 0.429448 -0.471695
F37   F     F_    0.795855 0.901656 0.429261 -0.471654
F38   F     F_    0.097664 0.796558 0.429449 -0.471695
F39   F     F_    0.204134 0.098334 0.429262 -0.471652
F40   F     F_    0.098490 0.204300 0.429223 -0.470520
F41   F     F_    0.203644 0.902199 0.429405 -0.470324
F42   F     F_    0.901499 0.795689 0.429222 -0.470520
F43   F     F_    0.796347 0.097793 0.429405 -0.470328
F44   F     F_    0.482055 0.869382 0.086547 -0.628429
F45   F     F_    0.323587 0.089908 0.263314 -0.539986
F46   F     F_    0.129183 0.473910 0.086493 -0.629228
F47   F     F_    0.517945 0.130621 0.086548 -0.628430
F48   F     F_    0.870821 0.526091 0.086493 -0.629227
F49   F     F_    0.981765 0.369424 0.586546 -0.628463
F50   F     F_    0.629591 0.975955 0.586506 -0.628968
F51   F     F_    0.018234 0.630580 0.586546 -0.628464
F52   F     F_    0.370412 0.024046 0.586506 -0.628967
F53   F     F_    0.956006 0.375894 0.913607 -0.598488
F54   F     F_    0.623177 0.953590 0.913641 -0.597927
F55   F     F_    0.043995 0.624102 0.913608 -0.598487
F56   F     F_    0.897162 0.330819 0.263306 -0.540651
F57   F     F_    0.376820 0.046410 0.913641 -0.597926
F58   F     F_    0.456105 0.875858 0.413606 -0.598459
F59   F     F_    0.122767 0.452549 0.413652 -0.597669
F60   F     F_    0.543896 0.124138 0.413607 -0.598460
F61   F     F_    0.877230 0.547451 0.413652 -0.597666
F62   F     F_    0.821970 0.587956 0.807690 -0.514560
F63   F     F_    0.403123 0.826634 0.807694 -0.515474
F64   F     F_    0.178029 0.412039 0.807690 -0.514560
F65   F     F_    0.596872 0.173369 0.807697 -0.515474
F66   F     F_    0.321707 0.087424 0.307690 -0.514702
F67   F     F_    0.676411 0.910092 0.263314 -0.539987
F68   F     F_    0.899445 0.328744 0.307692 -0.516087
F69   F     F_    0.678291 0.912571 0.307690 -0.514702
F70   F     F_    0.100550 0.671260 0.307695 -0.516085
F71   F     F_    0.102837 0.669184 0.263309 -0.540650
F72   F     F_    0.302816 0.991141 0.237320 -0.584574
H1    H     H_    0.212505 0.878213 0.035902 0.184202
H2    H     H_    0.729466 0.820438 0.049845 0.212996
H3    H     H_    0.878205 0.212453 0.035894 0.185173
H4    H     H_    0.820977 0.270008 0.049792 0.212026
H5    H     H_    0.212862 0.122172 0.036053 0.184880
H6    H     H_    0.270537 0.179564 0.049844 0.212997
H7    H     H_    0.121806 0.787543 0.035897 0.185171
H8    H     H_    0.179039 0.729989 0.049794 0.212028
H9    H     H_    0.712514 0.378204 0.535906 0.184184
H10   H     H_    0.770060 0.320944 0.549797 0.216768
H11   H     H_    0.622242 0.712903 0.536075 0.183855
H12   H     H_    0.270047 0.820956 0.049796 0.216710
H13   H     H_    0.679631 0.770630 0.549849 0.217733
H14   H     H_    0.287489 0.621799 0.535906 0.184185
H15   H     H_    0.229947 0.679062 0.549797 0.216766
H16   H     H_    0.377764 0.287103 0.536074 0.183856
H17   H     H_    0.320377 0.229378 0.549848 0.217730
H18   H     H_    0.287095 0.377785 0.536071 0.184883
H19   H     H_    0.229405 0.320378 0.549850 0.212962
H20   H     H_    0.378190 0.712468 0.535900 0.185113
H21   H     H_    0.320956 0.770029 0.549794 0.212186
H22   H     H_    0.712911 0.622221 0.536072 0.184883
H23   H     H_    0.122194 0.212856 0.036056 0.183817
H24   H     H_    0.770603 0.679630 0.549850 0.212964
H25   H     H_    0.621815 0.287533 0.535901 0.185112
H26   H     H_    0.679053 0.229975 0.549795 0.212185
H27   H     H_    0.524465 0.831424 0.128142 0.235583
H28   H     H_    0.432657 0.843550 0.128212 0.240178
H29   H     H_    0.169778 0.513996 0.128111 0.236067
H30   H     H_    0.151961 0.423111 0.128173 0.237970
H31   H     H_    0.475533 0.168582 0.128142 0.235582
H32   H     H_    0.567341 0.156457 0.128213 0.240178
H33   H     H_    0.830229 0.486005 0.128111 0.236067
H34   H     H_    0.179567 0.270566 0.049843 0.218037
H35   H     H_    0.848046 0.576890 0.128173 0.237970
H36   H     H_    0.024099 0.331372 0.628142 0.235594
H37   H     H_    0.932318 0.343697 0.628210 0.240115
H38   H     H_    0.669534 0.016658 0.628117 0.235866
H39   H     H_    0.653151 0.925503 0.628183 0.238194
H40   H     H_    0.975899 0.668635 0.628142 0.235593
H41   H     H_    0.067681 0.656309 0.628211 0.240116
H42   H     H_    0.330473 0.983343 0.628116 0.235866
H43   H     H_    0.346855 0.074497 0.628183 0.238195
H44   H     H_    0.271299 0.945555 0.197361 0.244867
H45   H     H_    0.787503 0.121784 0.035900 0.184204
H46   H     H_    0.264830 0.038038 0.196469 0.247746
H47   H     H_    0.944620 0.288816 0.183323 0.250119
H48   H     H_    0.038908 0.290320 0.183249 0.242461
H49   H     H_    0.728699 0.054452 0.197364 0.244869
H50   H     H_    0.735168 0.961969 0.196471 0.247747
H51   H     H_    0.055388 0.711186 0.183326 0.250118
H52   H     H_    0.961100 0.709682 0.183250 0.242461
H53   H     H_    0.771135 0.446250 0.697360 0.244803
H54   H     H_    0.764949 0.538753 0.696469 0.247862
H55   H     H_    0.449200 0.787660 0.683331 0.250250
H56   H     H_    0.729968 0.179042 0.049795 0.216706
H57   H     H_    0.543434 0.791225 0.683251 0.242344
H58   H     H_    0.228863 0.553757 0.697363 0.244805
H59   H     H_    0.235050 0.461254 0.696470 0.247863
H60   H     H_    0.550809 0.212341 0.683333 0.250250
H61   H     H_    0.456574 0.208777 0.683252 0.242345
H62   H     H_    0.902301 0.360513 0.871935 0.265029
H63   H     H_    0.989681 0.329868 0.871870 0.250995
H64   H     H_    0.637461 0.899492 0.871976 0.264864
H65   H     H_    0.669883 0.986238 0.871888 0.251615
H66   H     H_    0.097700 0.639480 0.871936 0.265031
H67   H     H_    0.877808 0.787146 0.036057 0.183816
H68   H     H_    0.010319 0.670126 0.871870 0.250995
H69   H     H_    0.362534 0.100510 0.871977 0.264864
H70   H     H_    0.330111 0.013763 0.871888 0.251615
H71   H     H_    0.402418 0.860431 0.371933 0.265157
H72   H     H_    0.489824 0.829860 0.371869 0.251012
H73   H     H_    0.136570 0.398281 0.371991 0.264881
H74   H     H_    0.169764 0.484734 0.371893 0.251955
H75   H     H_    0.597582 0.139563 0.371934 0.265158
H76   H     H_    0.510176 0.170134 0.371870 0.251011
H77   H     H_    0.863424 0.601721 0.371992 0.264883
H78   H     H_    0.820435 0.729436 0.049843 0.218037
H79   H     H_    0.830229 0.515268 0.371893 0.251954
H80   H     H_    0.787140 0.877830 0.036053 0.184880
N1    N     N_R   0.499999 0.000004 0.156442 -0.319533
N2    N     N_3   0.151089 0.262091 0.034944 -0.474633
N3    N     N_3   0.738273 0.150705 0.034862 -0.475950
N4    N     N_3   0.848912 0.737911 0.034944 -0.474634
N5    N     N_3   0.737915 0.848922 0.034945 -0.479544
N6    N     N_3   0.849302 0.261699 0.034858 -0.480361
N7    N     N_3   0.262087 0.151080 0.034945 -0.479545
N8    N     N_3   0.150709 0.738297 0.034860 -0.480356
N9    N     N_3   0.761745 0.349284 0.534865 -0.475902
N10   N     N_3   0.651136 0.762137 0.534953 -0.474908
N11   N     N_3   0.238259 0.650720 0.534865 -0.475902
N12   N     N_R   0.000004 0.500001 0.156419 -0.294249
N13   N     N_3   0.348870 0.237869 0.534953 -0.474911
N14   N     N_3   0.237872 0.348879 0.534954 -0.479535
N15   N     N_3   0.349287 0.761714 0.534861 -0.480245
N16   N     N_3   0.762134 0.651127 0.534955 -0.479533
N17   N     N_3   0.650719 0.238288 0.534862 -0.480243
N18   N     N_3   0.482506 0.867055 0.132910 -0.407098
N19   N     N_3   0.131607 0.474325 0.132875 -0.407902
N20   N     N_3   0.517493 0.132952 0.132910 -0.407095
N21   N     N_3   0.868400 0.525676 0.132875 -0.407903
N22   N     N_3   0.982217 0.367094 0.632909 -0.407151
N23   N     N_R   0.999999 0.500004 0.656441 -0.319529
N24   N     N_3   0.631993 0.976393 0.632882 -0.407894
N25   N     N_3   0.017782 0.632913 0.632909 -0.407150
N26   N     N_3   0.368014 0.023608 0.632882 -0.407896
N27   N     N_3   0.297264 0.993318 0.191901 -0.340479
N28   N     N_3   0.991741 0.295463 0.192993 -0.336282
N29   N     N_3   0.702734 0.006689 0.191903 -0.340478
N30   N     N_3   0.008266 0.704538 0.192995 -0.336280
N31   N     N_3   0.797246 0.493934 0.691900 -0.340454
N32   N     N_3   0.496170 0.795334 0.692998 -0.336143
N33   N     N_3   0.202753 0.506073 0.691902 -0.340452
N34   N     N_R   0.500004 0.000000 0.656425 -0.294243
N35   N     N_3   0.503837 0.204668 0.693000 -0.336142
N36   N     N_3   0.955826 0.373344 0.867160 -0.386376
N37   N     N_3   0.625727 0.953260 0.867188 -0.386014
N38   N     N_3   0.044175 0.626650 0.867161 -0.386377
N39   N     N_3   0.374267 0.046742 0.867188 -0.386012
N40   N     N_3   0.455933 0.873307 0.367160 -0.386228
N41   N     N_3   0.125316 0.452145 0.367196 -0.385686
N42   N     N_3   0.544068 0.126687 0.367160 -0.386229
N43   N     N_3   0.874678 0.547856 0.367197 -0.385684
N44   N     N_R   0.999999 0.499997 0.843634 -0.333192
N45   N     N_R   0.499996 0.000001 0.843650 -0.332965
N46   N     N_R   0.499999 0.999997 0.343634 -0.333203
N47   N     N_R   0.999996 0.500002 0.343650 -0.332914
N48   N     N_3   0.261736 0.849293 0.034863 -0.475945
O1    O     O_3   0.500000 0.000000 0.999950 -0.553707
O2    O     O_R   0.500000 0.939340 0.450010 -0.554647
O3    O     O_R   0.060660 0.500000 0.450010 -0.555494
O4    O     O_R   0.500000 0.060660 0.450010 -0.554646
O5    O     O_R   0.500000 0.939280 0.049890 -0.592151
O6    O     O_R   0.060720 0.500000 0.049890 -0.593068
O7    O     O_R   0.500000 0.060720 0.049890 -0.592157
O8    O     O_R   0.939280 0.500000 0.049890 -0.593064
O9    O     O_R   0.000000 0.439280 0.549890 -0.592176
O10   O     O_R   0.560720 0.000000 0.549890 -0.592812
O11   O     O_R   1.000000 0.560720 0.549890 -0.592182
O12   O     O_3   1.000000 0.500000 0.999950 -0.553694
O13   O     O_R   0.439280 0.000000 0.549890 -0.592807
O14   O     O_R   0.646240 0.914580 0.986850 -0.613037
O15   O     O_R   0.085420 0.646240 0.986850 -0.613085
O16   O     O_R   0.353760 0.085420 0.986850 -0.613038
O17   O     O_R   0.914580 0.353760 0.986850 -0.613088
O18   O     O_R   0.353760 0.914580 0.986850 -0.621673
O19   O     O_R   0.914580 0.646240 0.986850 -0.621444
O20   O     O_R   0.646240 0.085420 0.986850 -0.621675
O21   O     O_R   0.085420 0.353760 0.986850 -0.621444
O22   O     O_R   0.146240 0.414580 0.486850 -0.612982
O23   O     O_3   1.000000 0.500000 0.499950 -0.553668
O24   O     O_R   0.585420 0.146240 0.486850 -0.613112
O25   O     O_R   0.853760 0.585420 0.486850 -0.612981
O26   O     O_R   0.414580 0.853760 0.486850 -0.613115
O27   O     O_R   0.853760 0.414580 0.486850 -0.621765
O28   O     O_R   0.414580 0.146240 0.486850 -0.621390
O29   O     O_R   0.146240 0.585420 0.486850 -0.621764
O30   O     O_R   0.585420 0.853760 0.486850 -0.621390
O31   O     O_R   0.414600 0.146170 0.013040 -0.622112
O32   O     O_R   0.853830 0.414600 0.013040 -0.623092
O33   O     O_R   0.585400 0.853830 0.013040 -0.622112
O34   O     O_3   0.500000 0.000000 0.499950 -0.553735
O35   O     O_R   0.146170 0.585400 0.013040 -0.623094
O36   O     O_R   0.585400 0.146170 0.013040 -0.617107
O37   O     O_R   0.146170 0.414600 0.013040 -0.616366
O38   O     O_R   0.414600 0.853830 0.013040 -0.617107
O39   O     O_R   0.853830 0.585400 0.013040 -0.616365
O40   O     O_R   0.914600 0.646170 0.513040 -0.622167
O41   O     O_R   0.353830 0.914600 0.513040 -0.622861
O42   O     O_R   0.085400 0.353830 0.513040 -0.622166
O43   O     O_R   0.646170 0.085400 0.513040 -0.622864
O44   O     O_R   0.085400 0.646170 0.513040 -0.617071
O45   O     O_R   0.439340 0.000000 0.950010 -0.555253
O46   O     O_R   0.646170 0.914600 0.513040 -0.616555
O47   O     O_R   0.914600 0.353830 0.513040 -0.617069
O48   O     O_R   0.353830 0.085400 0.513040 -0.616554
O49   O     O_2   0.372130 0.003578 0.155576 -0.520269
O50   O     O_2   0.986738 0.373164 0.155338 -0.582140
O51   O     O_2   0.627868 0.996430 0.155577 -0.520269
O52   O     O_2   0.013271 0.626837 0.155340 -0.582140
O53   O     O_2   0.872142 0.503959 0.655575 -0.520264
O54   O     O_2   0.489427 0.872909 0.655345 -0.582161
O55   O     O_2   0.127857 0.496050 0.655576 -0.520263
O56   O     O_R   1.000000 0.439340 0.950010 -0.554693
O57   O     O_2   0.510582 0.127092 0.655346 -0.582162
O58   O     O_2   0.882771 0.552275 0.844247 -0.412231
O59   O     O_2   0.441945 0.885499 0.844256 -0.413598
O60   O     O_2   0.117228 0.447718 0.844247 -0.412230
O61   O     O_2   0.558048 0.114504 0.844258 -0.413598
O62   O     O_2   0.382620 0.051934 0.344247 -0.412220
O63   O     O_2   0.939581 0.386727 0.344253 -0.414171
O64   O     O_2   0.617379 0.948058 0.344247 -0.412218
O65   O     O_2   0.060412 0.613276 0.344254 -0.414169
O66   O     O_R   0.560660 0.000000 0.950010 -0.555255
O67   O     O_R   1.000000 0.560660 0.950010 -0.554688
O68   O     O_R   0.939340 0.500000 0.450010 -0.555494
Zn1   Zn    Zn3+2 0.500000 0.913250 0.018650 1.070935
Zn2   Zn    Zn3+2 0.000000 0.586820 0.981240 1.143933
Zn3   Zn    Zn3+2 0.413180 0.000000 0.981240 1.143628
Zn4   Zn    Zn3+2 1.000000 0.413180 0.981240 1.143936
Zn5   Zn    Zn3+2 0.086820 0.500000 0.481240 1.143551
Zn6   Zn    Zn3+2 0.500000 0.086820 0.481240 1.143928
Zn7   Zn    Zn3+2 0.913180 0.500000 0.481240 1.143555
Zn8   Zn    Zn3+2 0.500000 0.913180 0.481240 1.143933
Zn9   Zn    Zn3+2 0.086750 0.500000 0.018650 1.070593
Zn10  Zn    Zn3+2 0.500000 0.086750 0.018650 1.070939
Zn11  Zn    Zn3+2 0.913250 0.500000 0.018650 1.070593
Zn12  Zn    Zn3+2 1.000000 0.413250 0.518650 1.070932
Zn13  Zn    Zn3+2 0.586750 0.000000 0.518650 1.070619
Zn14  Zn    Zn3+2 1.000000 0.586750 0.518650 1.070933
Zn15  Zn    Zn3+2 0.413250 0.000000 0.518650 1.070618
Zn16  Zn    Zn3+2 0.586820 0.000000 0.981240 1.143622

loop_
_geom_bond_atom_site_label_1
_geom_bond_atom_site_label_2
_ccdc_geom_bond_type
C168  C175  A    
C35   F47   S    
C75   C107  A    
C20   F57   S    
C212  O6    A    
O8    Zn11  S    
C80   F19   S    
C200  C218  A    
C36   C42   A    
C133  C151  A    
O33   Zn1   S    
H70   N39   S    
C107  C129  A    
C105  C131  A    
C71   F10   S    
C96   F36   S    
C87   F27   S    
C2    N26   S    
C241  C245  A    
C78   F18   S    
H23   N2    S    
C47   O17   A    
C36   C66   A    
C128  C145  A    
H57   N32   S    
C4    O64   S    
H28   N18   S    
O41   Zn15  S    
C126  C143  A    
C240  C244  A    
C8    C26   A    
C108  C109  A    
C1    O66   A    
C74   C92   A    
C2    C90   A    
C190  C212  S    
C42   C170  A    
H68   N38   S    
C109  C127  A    
H50   N29   S    
C78   C96   A    
C84   C117  A    
O25   Zn7   S    
C16   N43   S    
C28   N46   S    
C23   C196  A    
C111  C125  A    
C81   F20   S    
C203  C210  A    
C5    C241  A    
C213  O9    A    
H75   N42   S    
C85   C103  A    
C38   C69   A    
C194  N20   S    
C45   C130  S    
C79   C191  A    
H3    N6    S    
C153  N13   S    
C31   C62   A    
C6    N46   A    
C23   F60   S    
C58   O28   A    
H71   N40   S    
O23   Zn5   S    
C227  N19   S    
C209  C244  A    
C67   C187  A    
C225  F63   S    
C65   C185  A    
C80   C121  A    
C30   C202  A    
C75   F15   S    
C11   C20   A    
C116  C121  A    
H26   N17   S    
O66   Zn16  S    
C232  C241  A    
O40   Zn14  S    
O2    Zn8   S    
C201  C219  A    
C172  O3    A    
C167  C171  A    
C179  C188  A    
H34   N2    S    
C98   C102  A    
C41   C169  A    
C177  C186  A    
H10   N9    S    
O1    Zn16  S    
O9    Zn12  S    
C91   F30   S    
C224  C233  A    
C101  F49   S    
H80   N5    S    
C142  C148  A    
H30   N19   S    
C59   O44   A    
C57   C216  A    
C11   C27   A    
C123  C141  A    
C52   C137  S    
C73   C109  A    
C97   C103  A    
C167  C174  A    
C24   N24   S    
C67   F7    S    
C83   C100  A    
C66   C186  A    
C112  O67   A    
C107  C110  A    
C131  C149  A    
O34   Zn15  S    
C213  O11   A    
C229  C237  A    
C229  F66   S    
C223  C232  A    
C75   C93   A    
H49   N29   S    
C90   F52   S    
C16   C25   A    
C106  C130  A    
O15   Zn2   S    
H65   N37   S    
C59   O29   A    
C237  C244  A    
H79   N43   S    
C85   C116  A    
C8    C17   A    
C144  C145  A    
C101  C191  A    
C150  N9    S    
C231  F69   S    
C172  O68   A    
C164  O54   S    
C53   O43   A    
C221  F56   S    
C119  C136  A    
C58   C136  S    
C51   O21   A    
O36   Zn10  S    
H31   N20   S    
C212  O8    A    
C62   C181  A    
C136  C153  A    
C7    N47   A    
H16   N13   S    
C2    C157  A    
C58   O48   A    
C201  C208  A    
C21   C196  A    
O3    Zn5   S    
C15   N42   S    
C145  N5    S    
C129  C147  A    
C166  O57   S    
O29   Zn5   S    
C71   C88   A    
C43   O33   A    
C62   F2    S    
C11   N39   S    
H56   N3    S    
H44   N27   S    
C124  C194  A    
C215  F1    S    
C231  C240  A    
H21   N15   S    
H22   N16   S    
C218  C226  A    
H40   N25   S    
C43   O14   A    
C163  N23   A    
C161  C174  A    
C80   C97   A    
C84   C102  A    
C160  C173  A    
C22   C197  A    
O4    Zn6   S    
C36   C199  A    
O67   Zn2   S    
C86   C104  A    
C174  C182  A    
C90   C192  A    
C135  C227  A    
O47   Zn12  S    
C47   C129  S    
C225  C234  A    
C247  O61   S    
C180  N27   S    
C1    C195  S    
H51   N30   S    
C32   C39   A    
C60   O46   A    
C187  N33   S    
C54   O25   A    
H36   N22   S    
C202  C220  A    
C34   C198  A    
C35   C194  A    
C140  C158  A    
C64   F4    S    
C169  C176  A    
C70   F9    S    
C54   C139  S    
C87   C95   A    
C221  C230  A    
O34   Zn13  S    
C219  C228  A    
C125  C142  A    
C76   C94   A    
O12   Zn9   S    
C76   F16   S    
H39   N24   S    
O1    Zn10  S    
C230  C239  A    
C12   N40   S    
C46   F48   S    
C70   C87   A    
C73   F13   S    
C61   F72   S    
C106  C111  A    
C226  F64   S    
C88   C94   A    
C33   C40   A    
C30   C61   A    
O21   Zn4   S    
H5    N7    S    
H2    N5    S    
H66   N38   S    
C79   F51   S    
C91   C92   A    
C93   F32   S    
O12   Zn2   S    
C24   C157  A    
C162  C175  A    
C27   N45   S    
C155  N15   S    
C159  O49   S    
C56   O27   A    
O1    Zn1   S    
C247  N45   A    
C60   O30   A    
C86   C115  A    
C83   F22   S    
C47   O32   A    
C57   C189  A    
H13   N10   S    
O30   Zn8   S    
C206  C210  A    
C56   O47   A    
C50   O36   A    
H7    N8    S    
C165  O55   S    
C148  N7    S    
C144  N4    S    
C89   F29   S    
C52   O42   A    
H67   N4    S    
C122  C132  A    
C246  O60   S    
C108  C128  A    
C143  N3    S    
C57   F44   S    
C110  C126  A    
C102  F41   S    
C216  N18   S    
C114  C123  A    
C25   F61   S    
H54   N31   S    
C3    N45   A    
C149  N8    S    
C202  C209  A    
H9    N9    S    
C6    O62   S    
C113  F50   S    
C151  N10   S    
O18   Zn3   S    
C113  C192  A    
C76   C106  A    
C20   C195  A    
C198  C207  A    
C74   C108  A    
C46   C205  A    
C59   C134  S    
C223  F71   S    
C170  C179  A    
C48   O38   A    
C14   C22   A    
C214  O10   A    
H11   N10   S    
C55   O41   A    
C37   C67   A    
C199  C208  A    
C248  O58   S    
C30   C39   A    
O44   Zn14  S    
H24   N16   S    
C89   C93   A    
H15   N11   S    
C64   C184  A    
O12   Zn11  S    
C233  C242  A    
C147  N6    S    
C222  F67   S    
C72   F11   S    
C14   C29   A    
C79   C238  A    
C230  F68   S    
C69   F8    S    
C217  C225  A    
H35   N21   S    
C138  C155  A    
C49   O39   A    
H58   N33   S    
C63   F3    S    
O23   Zn14  S    
O45   Zn3   S    
C82   C99   A    
C8    N36   S    
C117  C138  A    
C199  C217  A    
C215  C224  A    
C49   O19   A    
C48   C123  S    
C5    O65   S    
C183  O4    A    
O12   Zn4   S    
C176  C185  A    
O1    Zn3   S    
O16   Zn3   S    
C159  C171  A    
C12   C28   A    
C82   F21   S    
O27   Zn7   S    
H63   N36   S    
C248  N44   A    
C236  C243  A    
H17   N13   S    
C48   O18   A    
C53   O24   A    
H18   N14   S    
H14   N11   S    
C163  O53   S    
C81   C98   A    
C31   C40   A    
H47   N28   S    
C37   C200  A    
C112  O56   A    
O37   Zn9   S    
O35   Zn9   S    
C66   F6    S    
C204  C209  A    
H61   N35   S    
O26   Zn8   S    
C152  N11   S    
H27   N18   S    
H62   N36   S    
C132  C150  A    
H77   N43   S    
C124  N1    S    
C235  C246  A    
O22   Zn5   S    
C135  C205  A    
C116  C139  A    
H46   N27   S    
C104  F43   S    
C173  C181  A    
C35   C189  A    
H42   N26   S    
C34   C41   A    
C82   C119  A    
O34   Zn6   S    
C198  C215  A    
C6    C237  A    
H20   N15   S    
O11   Zn14  S    
C44   O35   A    
C170  C177  A    
C211  O7    A    
H74   N41   S    
O31   Zn10  S    
C117  C120  A    
O23   Zn7   S    
H32   N20   S    
C22   F59   S    
C32   C204  A    
H78   N4    S    
H55   N32   S    
C142  N2    S    
O10   Zn13  S    
C152  C155  A    
C68   C190  A    
C10   C19   A    
C134  C152  A    
C4    C240  A    
C151  C156  A    
O68   Zn7   S    
C55   C138  S    
C56   C132  S    
H41   N25   S    
C94   F33   S    
C178  C187  A    
C220  C229  A    
C17   F53   S    
C154  N14   S    
C200  C207  A    
O43   Zn13  S    
C40   C168  A    
C19   F55   S    
C207  C242  A    
C161  N1    A    
C238  N25   S    
C183  O2    A    
C9    C27   A    
C100  F40   S    
H38   N24   S    
C150  C158  A    
C204  C222  A    
C18   C195  A    
C26   N44   S    
H64   N37   S    
C224  F62   S    
C97   F37   S    
C43   C128  S    
O42   Zn12  S    
C99   F39   S    
O48   Zn15  S    
C239  C245  A    
C77   C105  A    
C228  F65   S    
C50   O20   A    
C165  N23   A    
C191  C213  S    
C188  N35   S    
C15   C28   A    
C141  N48   S    
C77   F17   S    
C137  C154  A    
C55   O26   A    
C127  C144  A    
H37   N22   S    
C205  N21   S    
C156  N16   S    
C115  C140  A    
C61   C180  A    
C181  N28   S    
C1    O45   A    
C60   C133  S    
C44   O15   A    
O34   Zn8   S    
C175  C184  A    
O28   Zn6   S    
C211  O5    A    
C53   C140  S    
C17   C193  A    
H59   N33   S    
C52   O22   A    
O13   Zn15  S    
C68   C227  A    
C141  C149  A    
C70   C114  A    
C44   C131  S    
C143  C147  A    
C81   C120  A    
C217  F12   S    
C86   F26   S    
C83   C118  A    
H69   N39   S    
C38   C42   A    
C45   O16   A    
C3    C234  A    
H25   N17   S    
H29   N19   S    
C164  N34   A    
C203  C221  A    
C118  C119  A    
C21   F58   S    
O6    Zn9   S    
C246  N44   A    
C220  F45   S    
C85   F25   S    
H8    N8    S    
C38   C201  A    
C71   C111  A    
C162  O52   S    
O5    Zn1   S    
H1    N48   S    
C50   C126  S    
O23   Zn12  S    
C118  C137  A    
C120  C134  A    
C234  C243  A    
C7    O63   S    
H53   N31   S    
C15   C23   A    
O38   Zn1   S    
C24   C113  A    
C115  C122  A    
C37   C41   A    
C165  C178  A    
C236  C247  A    
C13   N22   S    
H45   N3    S    
C13   C146  A    
C46   C190  A    
C163  C176  A    
C34   C65   A    
C192  C214  S    
C183  C196  S    
H73   N41   S    
C157  N34   S    
O20   Zn16  S    
C168  C173  A    
C49   C127  S    
C72   C110  A    
C33   C206  A    
C161  O51   S    
C9    N37   S    
C84   F24   S    
C130  C148  A    
C51   C125  S    
C146  C238  A    
C105  C114  A    
C25   C197  A    
C73   C91   A    
C189  C211  S    
C184  N30   S    
C103  F42   S    
C65   F5    S    
C160  O50   S    
C16   C29   A    
C12   C21   A    
C77   C95   A    
C226  C235  A    
C214  O13   A    
C68   F46   S    
C146  N23   S    
C235  C242  A    
H12   N48   S    
C162  N12   A    
C51   O37   A    
C9    C18   A    
C99   C100  A    
C206  C223  A    
C232  F70   S    
H72   N40   S    
C172  C197  S    
H60   N35   S    
O39   Zn11  S    
C69   C188  A    
O24   Zn6   S    
C219  F34   S    
C7    C239  A    
C222  C231  A    
C19   C193  A    
O7    Zn10  S    
C171  C180  A    
C13   C101  A    
C159  N1    A    
C74   F14   S    
C169  C178  A    
C186  N32   S    
O17   Zn4   S    
C124  C216  A    
O19   Zn2   S    
C158  N17   S    
C31   C203  A    
H6    N7    S    
C32   C63   A    
C3    O59   S    
O46   Zn13  S    
C29   N47   S    
C233  C248  A    
C166  N34   A    
C95   F35   S    
C218  F23   S    
O14   Zn16  S    
H76   N42   S    
C92   F31   S    
C96   C104  A    
C88   F28   S    
C160  N12   A    
O32   Zn11  S    
C72   C89   A    
C10   C26   A    
H48   N28   S    
H19   N14   S    
C139  C156  A    
C33   C64   A    
H33   N21   S    
C18   F54   S    
C182  N29   S    
C54   O40   A    
C39   C167  A    
C78   C122  A    
C112  C193  S    
C228  C236  A    
H4    N6    S    
C135  N12   S    
C45   O31   A    
C4    N46   A    
C5    N47   A    
C63   C182  A    
C14   N41   S    
C208  C243  A    
C166  C179  A    
C210  C245  A    
C121  C133  A    
C153  C154  A    
C185  N31   S    
H52   N30   S    
C10   N38   S    
C164  C177  A    
C98   F38   S    
O56   Zn4   S    
H43   N26   S    
