data_mof_unit_pretest_1617.cif
_audit_creation_date              2012-12-10T20:09:01-0500
_audit_creation_method            fapswitch 2.2
_symmetry_space_group_name_H-M    P1
_symmetry_Int_Tables_number       1
_space_group_crystal_system       triclinic
_cell_length_a                    32.09415
_cell_length_b                    32.093796
_cell_length_c                    35.43554
_cell_angle_alpha                 89.992239
_cell_angle_beta                  89.988817
_cell_angle_gamma                 90.157015
_cell_volume                      36499.2867764

loop_
_atom_site_label
_atom_site_type_symbol
_atom_type_description
_atom_site_fract_x
_atom_site_fract_y
_atom_site_fract_z
_atom_type_partial_charge
C1    C     C_R   0.919357 0.499953 0.000014 0.912993
C2    C     C_R   0.500048 0.080642 0.000005 0.942021
C3    C     C_R   0.080643 0.500048 0.000007 0.911871
C4    C     C_R   0.499950 0.919358 0.000018 0.946007
C5    C     C_R   0.419358 0.999951 0.499992 0.943723
C6    C     C_R   0.000048 0.580643 0.499986 0.912462
C7    C     C_R   0.580642 0.000047 0.500007 0.941590
C8    C     C_R   0.999952 0.419357 0.499994 0.911372
C9    C     C_R   0.771674 0.523130 0.972750 0.362368
C10   C     C_R   0.523333 0.228505 0.972703 0.365139
C11   C     C_R   0.228344 0.476883 0.972736 0.362076
C12   C     C_R   0.476803 0.771524 0.972656 0.365293
C13   C     C_R   0.771489 0.476893 0.027513 0.366415
C14   C     C_R   0.522982 0.771651 0.027388 0.365401
C15   C     C_R   0.228494 0.523237 0.027378 0.367026
C16   C     C_R   0.476664 0.228329 0.027143 0.366405
C17   C     C_R   0.271664 0.023004 0.472635 0.365711
C18   C     C_R   0.023015 0.728511 0.472419 0.366444
C19   C     C_R   0.728336 0.976214 0.473250 0.367157
C20   C     C_R   0.976938 0.271507 0.472484 0.366948
C21   C     C_R   0.271506 0.976861 0.527401 0.365129
C22   C     C_R   0.022954 0.271655 0.527385 0.362074
C23   C     C_R   0.728506 0.023639 0.527105 0.365084
C24   C     C_R   0.977011 0.728325 0.527363 0.362319
C25   C     C_R   0.793386 0.499978 0.000121 -0.068402
C26   C     C_R   0.500033 0.206612 0.999939 -0.070469
C27   C     C_R   0.206614 0.500088 0.000045 -0.068270
C28   C     C_R   0.499865 0.793392 0.000039 -0.070209
C29   C     C_R   0.293389 0.999905 0.500004 -0.070076
C30   C     C_R   0.000043 0.706613 0.499900 -0.068466
C31   C     C_R   0.706615 0.999966 0.500164 -0.070320
C32   C     C_R   0.999917 0.293386 0.499947 -0.068345
C33   C     C_1   0.662191 0.500016 0.000048 0.020657
C34   C     C_1   0.499981 0.337809 0.999969 0.021212
C35   C     C_1   0.337810 0.500015 0.000038 0.020701
C36   C     C_1   0.499967 0.662194 0.999985 0.021035
C37   C     C_1   0.162192 0.999979 0.500010 0.021037
C38   C     C_1   0.999998 0.837809 0.499962 0.020632
C39   C     C_1   0.837811 0.999946 0.500077 0.021358
C40   C     C_1   0.999985 0.162190 0.499958 0.020745
C41   C     C_1   0.837899 0.499898 0.000087 0.116116
C42   C     C_1   0.500110 0.162099 0.999972 0.118413
C43   C     C_1   0.162101 0.500137 0.000026 0.117958
C44   C     C_1   0.499837 0.837904 0.000052 0.115581
C45   C     C_1   0.337902 0.999860 0.499987 0.116811
C46   C     C_1   0.000112 0.662101 0.499927 0.116348
C47   C     C_1   0.662101 0.000072 0.500112 0.120791
C48   C     C_1   0.999866 0.337899 0.499969 0.117973
C49   C     C_1   0.875176 0.499872 0.000048 -0.110277
C50   C     C_1   0.500133 0.124822 0.999997 -0.100247
C51   C     C_1   0.124824 0.500139 0.000011 -0.110410
C52   C     C_1   0.499852 0.875180 0.000046 -0.102638
C53   C     C_1   0.375179 0.999859 0.499980 -0.101764
C54   C     C_1   0.000131 0.624824 0.499958 -0.110331
C55   C     C_1   0.624823 0.000120 0.500055 -0.097852
C56   C     C_1   0.999861 0.375176 0.499987 -0.110675
C57   C     C_1   0.624897 0.500011 0.000010 -0.154332
C58   C     C_1   0.499985 0.375103 0.999995 -0.154235
C59   C     C_1   0.375104 0.500003 0.000018 -0.154329
C60   C     C_1   0.499988 0.624899 0.999989 -0.154326
C61   C     C_1   0.124898 0.999994 0.499999 -0.154297
C62   C     C_1   0.999995 0.875103 0.499993 -0.154352
C63   C     C_1   0.875104 0.999969 0.500029 -0.154127
C64   C     C_1   0.999996 0.124896 0.499981 -0.154270
C65   C     C_R   0.499990 0.419330 0.000001 0.897009
C66   C     C_R   0.419330 0.499992 0.000004 0.896993
C67   C     C_R   0.500008 0.580671 0.999997 0.896975
C68   C     C_R   0.580670 0.500008 0.999999 0.897024
C69   C     C_R   0.999992 0.919330 0.500001 0.896984
C70   C     C_R   0.919330 0.999989 0.500005 0.896985
C71   C     C_R   0.000007 0.080670 0.499996 0.897033
C72   C     C_R   0.080671 0.000008 0.499998 0.896969
C73   C     C_R   0.999993 0.500002 0.926393 1.011110
C74   C     C_R   0.500002 0.000005 0.926615 1.079685
C75   C     C_R   0.999898 0.499993 0.073375 1.077626
C76   C     C_R   0.500006 0.000069 0.073402 1.079930
C77   C     C_R   0.499848 0.000007 0.426563 1.079091
C78   C     C_R   0.000007 0.500105 0.426625 1.077621
C79   C     C_R   0.500004 0.999996 0.573386 1.080045
C80   C     C_R   0.999998 0.500006 0.573616 1.008752
C81   C     C_R   0.965387 0.483891 0.674081 0.248444
C82   C     C_R   0.463757 0.012127 0.673343 0.276325
C83   C     C_R   0.034520 0.516206 0.674080 0.248334
C84   C     C_R   0.536138 0.987775 0.673352 0.276215
C85   C     C_R   0.990346 0.537228 0.326621 0.275347
C86   C     C_R   0.465238 0.983223 0.326587 0.264307
C87   C     C_R   0.010272 0.463517 0.326819 0.280350
C88   C     C_R   0.534433 0.014498 0.326448 0.270053
C89   C     C_R   0.484890 0.963363 0.173095 0.266019
C90   C     C_R   0.962827 0.509858 0.173381 0.275197
C91   C     C_R   0.514983 0.034114 0.173572 0.270477
C92   C     C_R   0.036504 0.489712 0.173184 0.280211
C93   C     C_R   0.487990 0.036291 0.826650 0.276842
C94   C     C_R   0.983413 0.465789 0.825941 0.247017
C95   C     C_R   0.511915 0.963643 0.826670 0.277110
C96   C     C_R   0.016571 0.534322 0.825950 0.247112
C97   C     C_R   0.966812 0.480321 0.634437 0.358825
C98   C     C_R   0.464249 0.013707 0.633657 0.339584
C99   C     C_R   0.033150 0.519723 0.634429 0.359547
C100  C     C_R   0.535697 0.986230 0.633668 0.339757
C101  C     C_R   0.988050 0.536619 0.366294 0.340706
C102  C     C_R   0.465387 0.982263 0.366547 0.344090
C103  C     C_R   0.012379 0.464141 0.366338 0.346296
C104  C     C_R   0.533494 0.017277 0.366112 0.341799
C105  C     C_R   0.483568 0.964164 0.133125 0.338027
C106  C     C_R   0.963399 0.512054 0.133695 0.341000
C107  C     C_R   0.516629 0.034063 0.133840 0.341149
C108  C     C_R   0.035851 0.487579 0.133665 0.345561
C109  C     C_R   0.486396 0.035802 0.866332 0.339606
C110  C     C_R   0.979960 0.467137 0.865610 0.360103
C111  C     C_R   0.513563 0.964174 0.866346 0.339239
C112  C     C_R   0.020045 0.532904 0.865614 0.359915
C113  C     C_R   0.999990 0.500019 0.614972 -0.325474
C114  C     C_R   0.499987 0.999983 0.614366 -0.319849
C115  C     C_R   0.000064 0.500236 0.385681 -0.324442
C116  C     C_R   0.499517 0.999938 0.385521 -0.315123
C117  C     C_R   0.500023 0.999488 0.114391 -0.316714
C118  C     C_R   0.999757 0.499939 0.114321 -0.324114
C119  C     C_R   0.499999 0.999999 0.885641 -0.320753
C120  C     C_R   0.999997 0.500012 0.885046 -0.321979
C121  C     C_R   0.999941 0.500072 0.693229 -0.180582
C122  C     C_R   0.499935 0.999944 0.692813 -0.192167
C123  C     C_R   0.000298 0.500211 0.307185 -0.196991
C124  C     C_R   0.500004 0.998527 0.307140 -0.183187
C125  C     C_R   0.499951 0.998617 0.192702 -0.184637
C126  C     C_R   0.999815 0.499775 0.192814 -0.196583
C127  C     C_R   0.499945 0.999960 0.807191 -0.194113
C128  C     C_R   0.999974 0.500078 0.806806 -0.177133
C129  C     C_1   0.999934 0.500100 0.733234 0.259519
C130  C     C_1   0.499922 0.999941 0.733127 0.255296
C131  C     C_1   0.000275 0.499904 0.266883 0.252497
C132  C     C_1   0.500149 0.998354 0.266808 0.258736
C133  C     C_1   0.500086 0.998392 0.233043 0.256376
C134  C     C_1   0.000128 0.499777 0.233120 0.252537
C135  C     C_1   0.499929 0.999944 0.766878 0.254488
C136  C     C_1   0.999950 0.500107 0.766797 0.260951
C137  C     C_R   0.728058 0.477008 0.027342 -0.203063
C138  C     C_R   0.476739 0.271760 0.026993 -0.201856
C139  C     C_R   0.271925 0.523113 0.027226 -0.203136
C140  C     C_R   0.522922 0.728220 0.027210 -0.201946
C141  C     C_R   0.728245 0.523054 0.972891 -0.199549
C142  C     C_R   0.476932 0.728093 0.972791 -0.202080
C143  C     C_R   0.271774 0.476953 0.972894 -0.199378
C144  C     C_R   0.523209 0.271936 0.972859 -0.201736
C145  C     C_R   0.228075 0.976983 0.527252 -0.201986
C146  C     C_R   0.977086 0.771755 0.527221 -0.199557
C147  C     C_R   0.771936 0.023518 0.526938 -0.201447
C148  C     C_R   0.022884 0.228225 0.527226 -0.199414
C149  C     C_R   0.228233 0.022934 0.472796 -0.201753
C150  C     C_R   0.977060 0.228076 0.472637 -0.203020
C151  C     C_R   0.771766 0.976301 0.473384 -0.201569
C152  C     C_R   0.022901 0.771942 0.472589 -0.203101
C153  C     C_R   0.706590 0.500026 0.000097 0.014487
C154  C     C_R   0.499975 0.293409 0.999938 0.014867
C155  C     C_R   0.293410 0.500027 0.000055 0.014423
C156  C     C_R   0.499941 0.706595 0.999993 0.014783
C157  C     C_R   0.206593 0.999965 0.500021 0.014725
C158  C     C_R   0.999996 0.793409 0.499922 0.014558
C159  C     C_R   0.793411 0.999919 0.500137 0.014726
C160  C     C_R   0.999976 0.206590 0.499938 0.014453
H1    H     H_    0.711082 0.459203 0.048389 0.193885
H2    H     H_    0.458747 0.288596 0.047918 0.193663
H3    H     H_    0.288887 0.540959 0.048233 0.193846
H4    H     H_    0.540733 0.711365 0.048238 0.193681
H5    H     H_    0.711413 0.540883 0.951841 0.193692
H6    H     H_    0.459154 0.711140 0.951742 0.193670
H7    H     H_    0.288620 0.459078 0.951895 0.193689
H8    H     H_    0.541175 0.288908 0.951930 0.193620
H9    H     H_    0.211111 0.959218 0.548309 0.193665
H10   H     H_    0.959347 0.788587 0.548342 0.193686
H11   H     H_    0.788906 0.041775 0.547637 0.193586
H12   H     H_    0.040629 0.211379 0.548325 0.193679
H13   H     H_    0.211390 0.040727 0.451749 0.193675
H14   H     H_    0.959342 0.211115 0.451530 0.193946
H15   H     H_    0.788604 0.958024 0.452675 0.193671
H16   H     H_    0.040617 0.788918 0.451472 0.193860
O1    O     O_R   0.939070 0.534350 0.999910 -0.620449
O2    O     O_R   0.534350 0.060930 0.999910 -0.614016
O3    O     O_R   0.060930 0.465650 0.999910 -0.622555
O4    O     O_R   0.465650 0.939070 0.999910 -0.612347
O5    O     O_R   0.939070 0.465650 0.000090 -0.605191
O6    O     O_R   0.534350 0.939070 0.000090 -0.619485
O7    O     O_R   0.060930 0.534350 0.000090 -0.604701
O8    O     O_R   0.465650 0.060930 0.000090 -0.619596
O9    O     O_R   0.439070 0.034350 0.499910 -0.620366
O10   O     O_R   0.034350 0.560930 0.499910 -0.605343
O11   O     O_R   0.560930 0.965650 0.499910 -0.620108
O12   O     O_R   0.965650 0.439070 0.499910 -0.604813
O13   O     O_R   0.439070 0.965650 0.500090 -0.611576
O14   O     O_R   0.034350 0.439070 0.500090 -0.622369
O15   O     O_R   0.560930 0.034350 0.500090 -0.611917
O16   O     O_R   0.965650 0.560930 0.500090 -0.620310
O17   O     O_R   0.000060 0.534350 0.944480 -0.572992
O18   O     O_R   0.534350 0.999940 0.944480 -0.620791
O19   O     O_R   0.999940 0.465650 0.944480 -0.572857
O20   O     O_R   0.465650 0.000060 0.944480 -0.620739
O21   O     O_R   0.000060 0.465650 0.055520 -0.623576
O22   O     O_R   0.534350 0.000060 0.055520 -0.618993
O23   O     O_R   0.999940 0.534350 0.055520 -0.619637
O24   O     O_R   0.465650 0.999940 0.055520 -0.614382
O25   O     O_R   0.500060 0.034350 0.444480 -0.618417
O26   O     O_R   0.034350 0.499940 0.444480 -0.623401
O27   O     O_R   0.499940 0.965650 0.444480 -0.613968
O28   O     O_R   0.965650 0.500060 0.444480 -0.619939
O29   O     O_R   0.500060 0.965650 0.555520 -0.620497
O30   O     O_R   0.034350 0.500060 0.555520 -0.572412
O31   O     O_R   0.499940 0.034350 0.555520 -0.620424
O32   O     O_R   0.965650 0.499940 0.555520 -0.572459
O33   O     O_R   0.500090 0.438950 0.968600 -0.608557
O34   O     O_R   0.438950 0.499910 0.968600 -0.608691
O35   O     O_R   0.499910 0.561050 0.968600 -0.608540
O36   O     O_R   0.561050 0.500090 0.968600 -0.608678
O37   O     O_R   0.500090 0.561050 0.031400 -0.608424
O38   O     O_R   0.438950 0.500090 0.031400 -0.608320
O39   O     O_R   0.499910 0.438950 0.031400 -0.608349
O40   O     O_R   0.561050 0.499910 0.031400 -0.608326
O41   O     O_R   0.000090 0.938950 0.468600 -0.608314
O42   O     O_R   0.938950 0.999910 0.468600 -0.608232
O43   O     O_R   0.999910 0.061050 0.468600 -0.608264
O44   O     O_R   0.061050 0.000090 0.468600 -0.608411
O45   O     O_R   0.000090 0.061050 0.531400 -0.608714
O46   O     O_R   0.938950 0.000090 0.531400 -0.608611
O47   O     O_R   0.999910 0.938950 0.531400 -0.608717
O48   O     O_R   0.061050 0.999910 0.531400 -0.608555
Zn1   Zn    Zn3+2 0.000000 0.545900 0.000000 1.046817
Zn2   Zn    Zn3+2 0.545900 0.000000 0.000000 1.014845
Zn3   Zn    Zn3+2 0.000000 0.454100 0.000000 1.042600
Zn4   Zn    Zn3+2 0.454100 0.000000 0.000000 1.019785
Zn5   Zn    Zn3+2 0.500000 0.045900 0.500000 1.013688
Zn6   Zn    Zn3+2 0.045900 0.500000 0.500000 1.042940
Zn7   Zn    Zn3+2 0.500000 0.954100 0.500000 1.019257
Zn8   Zn    Zn3+2 0.954100 0.500000 0.500000 1.046981
Zn9   Zn    Zn3+2 0.500000 0.500000 0.958130 1.025579
Zn10  Zn    Zn3+2 0.500000 0.500000 0.041870 1.026375
Zn11  Zn    Zn3+2 0.000000 0.000000 0.458130 1.026583
Zn12  Zn    Zn3+2 0.000000 0.000000 0.541870 1.025506
Cl1   Cl    Cl    0.919864 0.471127 0.700037 -0.550111
Cl2   Cl    Cl    0.418035 0.023743 0.699015 -0.538779
Cl3   Cl    Cl    0.079977 0.529017 0.700053 -0.550746
Cl4   Cl    Cl    0.581830 0.976135 0.699037 -0.539253
Cl5   Cl    Cl    0.982460 0.584168 0.301150 -0.535314
Cl6   Cl    Cl    0.421981 0.967143 0.300260 -0.551712
Cl7   Cl    Cl    0.018816 0.417101 0.302112 -0.535523
Cl8   Cl    Cl    0.579330 0.028778 0.300987 -0.534423
Cl9   Cl    Cl    0.469467 0.918774 0.199321 -0.547520
Cl10  Cl    Cl    0.916058 0.518118 0.198912 -0.537387
Cl11  Cl    Cl    0.529752 0.078791 0.199559 -0.541032
Cl12  Cl    Cl    0.083035 0.481202 0.197911 -0.534605
Cl13  Cl    Cl    0.476685 0.082221 0.800990 -0.537208
Cl14  Cl    Cl    0.969990 0.420767 0.799863 -0.554564
Cl15  Cl    Cl    0.523154 0.917646 0.801056 -0.536576
Cl16  Cl    Cl    0.029995 0.579391 0.799890 -0.554115
O49   O     O_3   0.934980 0.461965 0.613284 -0.571236
C161  C     C_3   0.923198 0.421794 0.627184 0.180940
H17   H     H_    0.892767 0.424309 0.642753 0.217952
H18   H     H_    0.946804 0.407166 0.645645 0.157027
C162  C     C_3   0.916122 0.392210 0.593969 -0.775700
H19   H     H_    0.946553 0.383917 0.580302 0.246870
H20   H     H_    0.900651 0.362845 0.604255 0.226369
H21   H     H_    0.895561 0.407168 0.572835 0.274595
O50   O     O_3   0.428987 0.022896 0.612538 -0.586412
C163  C     C_3   0.414763 0.064042 0.619314 0.189109
H22   H     H_    0.438240 0.084996 0.632582 0.141227
H23   H     H_    0.386673 0.062832 0.637659 0.221403
C164  C     C_3   0.401766 0.083514 0.581876 -0.778229
H24   H     H_    0.380350 0.062205 0.566666 0.269057
H25   H     H_    0.385266 0.113438 0.587485 0.220800
H26   H     H_    0.429481 0.089771 0.563801 0.259543
O51   O     O_3   0.064977 0.538061 0.613297 -0.572304
C165  C     C_3   0.076927 0.578077 0.627082 0.180894
H27   H     H_    0.107228 0.575435 0.642651 0.218295
H28   H     H_    0.053414 0.592833 0.645515 0.157416
C166  C     C_3   0.084174 0.607497 0.593809 -0.776002
H29   H     H_    0.053860 0.615915 0.580138 0.247051
H30   H     H_    0.099769 0.636731 0.604046 0.226268
H31   H     H_    0.104640 0.592418 0.572693 0.274615
O52   O     O_3   0.570976 0.977026 0.612567 -0.586729
C167  C     C_3   0.585162 0.935868 0.619354 0.188401
H32   H     H_    0.561654 0.914921 0.632603 0.141463
H33   H     H_    0.613229 0.937056 0.637724 0.221309
C168  C     C_3   0.598198 0.916405 0.581927 -0.778028
H34   H     H_    0.619642 0.937709 0.566729 0.268557
H35   H     H_    0.614673 0.886474 0.587554 0.221011
H36   H     H_    0.570506 0.910159 0.563832 0.259640
O53   O     O_3   0.978936 0.571944 0.387319 -0.586283
C169  C     C_3   0.938711 0.586763 0.379978 0.185064
H37   H     H_    0.917842 0.563808 0.366026 0.139811
H38   H     H_    0.940822 0.614593 0.362084 0.223717
C170  C     C_3   0.918700 0.599619 0.417025 -0.777754
H39   H     H_    0.939682 0.620542 0.433058 0.269768
H40   H     H_    0.889486 0.616406 0.410982 0.221185
H41   H     H_    0.911594 0.571982 0.434337 0.260149
O54   O     O_3   0.431368 0.970261 0.388268 -0.598403
C171  C     C_3   0.415235 0.930805 0.378886 0.192322
H42   H     H_    0.437754 0.910120 0.364248 0.153735
H43   H     H_    0.387420 0.934744 0.361067 0.224208
C172  C     C_3   0.401681 0.909023 0.414910 -0.777457
H44   H     H_    0.381063 0.929642 0.431619 0.270107
H45   H     H_    0.384439 0.880109 0.407419 0.221661
H46   H     H_    0.429048 0.900690 0.432328 0.256581
O55   O     O_3   0.022004 0.429013 0.387120 -0.584518
C173  C     C_3   0.063256 0.415952 0.380775 0.184234
H47   H     H_    0.083740 0.439232 0.366989 0.137188
H48   H     H_    0.063121 0.387774 0.362847 0.219857
C174  C     C_3   0.082738 0.405002 0.418584 -0.771557
H49   H     H_    0.062165 0.383453 0.434303 0.269849
H50   H     H_    0.113415 0.389665 0.413528 0.219297
H51   H     H_    0.087659 0.433518 0.435893 0.261437
O56   O     O_3   0.566989 0.031997 0.386855 -0.588776
C175  C     C_3   0.576362 0.073909 0.378531 0.190331
H52   H     H_    0.551047 0.090921 0.363596 0.141846
H53   H     H_    0.604668 0.075178 0.360987 0.220125
C176  C     C_3   0.585080 0.097191 0.415082 -0.776625
H54   H     H_    0.607982 0.079899 0.432464 0.272086
H55   H     H_    0.597958 0.128398 0.408303 0.219408
H56   H     H_    0.555979 0.101142 0.431451 0.256218
O57   O     O_3   0.473017 0.929454 0.110946 -0.593768
C177  C     C_3   0.433743 0.912173 0.120573 0.192294
H57   H     H_    0.412585 0.934018 0.135327 0.152973
H58   H     H_    0.438539 0.884195 0.138362 0.224246
C178  C     C_3   0.412168 0.898195 0.084460 -0.777115
H59   H     H_    0.433402 0.878365 0.067758 0.269759
H60   H     H_    0.383652 0.879951 0.091883 0.222350
H61   H     H_    0.403073 0.925429 0.066933 0.256464
O58   O     O_3   0.928087 0.521137 0.112622 -0.587064
C179  C     C_3   0.913044 0.561230 0.120021 0.185179
H62   H     H_    0.935907 0.582231 0.133934 0.140574
H63   H     H_    0.885283 0.558927 0.137941 0.224133
C180  C     C_3   0.899987 0.581153 0.083015 -0.778028
H64   H     H_    0.879112 0.560067 0.067038 0.269731
H65   H     H_    0.883105 0.610294 0.089100 0.221250
H66   H     H_    0.927520 0.588365 0.065629 0.260230
O59   O     O_3   0.528887 0.068847 0.113026 -0.589801
C181  C     C_3   0.570157 0.080877 0.120940 0.189916
H67   H     H_    0.589361 0.056398 0.134758 0.143552
H68   H     H_    0.569777 0.108458 0.139325 0.222962
C182  C     C_3   0.591476 0.092566 0.084095 -0.775595
H69   H     H_    0.572061 0.114923 0.068034 0.270854
H70   H     H_    0.622113 0.107060 0.090543 0.220328
H71   H     H_    0.596575 0.064632 0.066428 0.257298
O60   O     O_3   0.071009 0.477996 0.112891 -0.583995
C183  C     C_3   0.083990 0.436628 0.119192 0.184298
H72   H     H_    0.060623 0.416186 0.132941 0.136904
H73   H     H_    0.112219 0.436679 0.137155 0.219442
C184  C     C_3   0.094963 0.417116 0.081353 -0.771258
H74   H     H_    0.116558 0.437691 0.065674 0.269749
H75   H     H_    0.110309 0.386411 0.086399 0.219348
H76   H     H_    0.066429 0.412205 0.063997 0.261265
O61   O     O_3   0.477308 0.071132 0.887406 -0.585722
C185  C     C_3   0.436059 0.085253 0.880705 0.188613
H77   H     H_    0.415154 0.061733 0.867427 0.140696
H78   H     H_    0.437149 0.113399 0.862363 0.220987
C186  C     C_3   0.416573 0.098153 0.918198 -0.777548
H79   H     H_    0.437854 0.119602 0.933405 0.268755
H80   H     H_    0.386591 0.114614 0.912638 0.220893
H81   H     H_    0.410393 0.070380 0.936269 0.259588
O62   O     O_3   0.961250 0.435758 0.886833 -0.576081
C187  C     C_3   0.921677 0.423189 0.872969 0.180767
H82   H     H_    0.924820 0.393037 0.857489 0.218973
H83   H     H_    0.906680 0.446434 0.854487 0.159702
C188  C     C_3   0.892364 0.415580 0.906171 -0.775835
H84   H     H_    0.883683 0.445721 0.919881 0.247778
H85   H     H_    0.863342 0.399782 0.895861 0.226150
H86   H     H_    0.907594 0.395229 0.927267 0.274495
O63   O     O_3   0.522623 0.928833 0.887424 -0.585275
C189  C     C_3   0.563937 0.914773 0.880746 0.188826
H87   H     H_    0.584818 0.938316 0.867444 0.140368
H88   H     H_    0.562919 0.886583 0.862427 0.220863
C190  C     C_3   0.583429 0.901947 0.918264 -0.777630
H89   H     H_    0.562164 0.880482 0.933486 0.268978
H90   H     H_    0.613459 0.885517 0.912737 0.220828
H91   H     H_    0.589547 0.929768 0.936308 0.259580
O64   O     O_3   0.038793 0.564234 0.886857 -0.575839
C191  C     C_3   0.078431 0.576752 0.872944 0.180860
H92   H     H_    0.075340 0.606986 0.857503 0.218794
H93   H     H_    0.093367 0.553488 0.854425 0.159573
C192  C     C_3   0.107828 0.584245 0.906121 -0.775712
H94   H     H_    0.116426 0.554031 0.919817 0.247673
H95   H     H_    0.136934 0.599969 0.895797 0.226166
H96   H     H_    0.092666 0.604642 0.927235 0.274451
Cl17  Cl    Cl    0.797561 0.447594 0.062340 -0.530392
Cl18  Cl    Cl    0.447047 0.202037 0.061709 -0.535675
Cl19  Cl    Cl    0.202401 0.552621 0.062114 -0.529108
Cl20  Cl    Cl    0.552262 0.797917 0.062164 -0.538363
Cl21  Cl    Cl    0.797972 0.552471 0.937984 -0.559710
Cl22  Cl    Cl    0.447524 0.797634 0.937876 -0.534005
Cl23  Cl    Cl    0.202068 0.447477 0.938034 -0.559890
Cl24  Cl    Cl    0.552913 0.202428 0.938091 -0.533972
Cl25  Cl    Cl    0.297596 0.947612 0.562213 -0.534348
Cl26  Cl    Cl    0.947820 0.702026 0.562247 -0.559704
Cl27  Cl    Cl    0.702426 0.053697 0.561355 -0.534444
Cl28  Cl    Cl    0.052146 0.297930 0.562252 -0.560050
Cl29  Cl    Cl    0.297946 0.052274 0.437849 -0.539607
Cl30  Cl    Cl    0.947771 0.297602 0.437583 -0.528791
Cl31  Cl    Cl    0.702051 0.946108 0.439066 -0.535156
Cl32  Cl    Cl    0.052166 0.702439 0.437477 -0.529996

loop_
_geom_bond_atom_site_label_1
_geom_bond_atom_site_label_2
_ccdc_geom_bond_type
O20   Zn4   S    
C10   Cl24  S    
O62   C187  S    
C71   O45   A    
C180  H65   S    
C78   C115  S    
C7    C55   S    
C8    C56   S    
C74   O18   A    
C182  H69   S    
C89   C125  A    
O59   C181  S    
C168  H36   S    
O46   Zn12  S    
C70   O42   A    
C59   C66   S    
C98   C114  A    
C72   O48   A    
C166  H31   S    
O40   Zn10  S    
C187  C188  S    
C148  C160  A    
C192  H96   S    
C161  H18   S    
C104  C116  A    
C187  H82   S    
C108  O60   S    
C8    O14   A    
C67   O35   A    
C179  H62   S    
C169  C170  S    
C190  H91   S    
O11   Zn7   S    
C138  C154  A    
C106  C118  A    
C82   C98   A    
C6    C54   S    
C18   C152  A    
C41   C49   T    
C186  H80   S    
C102  O54   S    
C15   C139  A    
C188  H86   S    
C175  H53   S    
C84   C100  A    
C91   C107  A    
C25   C41   S    
C112  C120  A    
C1    O5    A    
C183  H72   S    
O31   Zn5   S    
O55   C173  S    
C16   Cl18  S    
C28   C44   S    
C81   C121  A    
O14   Zn6   S    
C23   C31   A    
O28   Zn8   S    
C88   Cl8   S    
C145  C157  A    
C15   C27   A    
C36   C156  S    
C11   C27   A    
C86   Cl6   S    
C179  C180  S    
C90   C126  A    
C101  O53   S    
C138  H2    S    
C184  H76   S    
O32   Zn8   S    
C87   C103  A    
C22   C148  A    
O45   Zn12  S    
C112  O64   S    
C101  C115  A    
C165  H28   S    
O33   Zn9   S    
O8    Zn4   S    
C182  H71   S    
C20   Cl30  S    
C91   C125  A    
C177  C178  S    
C39   C159  S    
C16   C138  A    
C183  C184  S    
O10   Zn6   S    
C110  O62   S    
C6    O10   A    
O19   Zn3   S    
C5    O13   A    
O63   C189  S    
C169  H38   S    
C181  C182  S    
C111  O63   S    
C79   O31   A    
C89   Cl9   S    
C85   C123  A    
C144  C154  A    
C185  H77   S    
O17   Zn1   S    
C172  H44   S    
C126  C134  S    
C178  H59   S    
C34   C58   T    
C24   C146  A    
C142  C156  A    
C11   C143  A    
C82   C122  A    
O22   Zn2   S    
C22   Cl28  S    
C38   C62   T    
C80   O30   A    
O61   C185  S    
C100  O52   S    
C88   C124  A    
O7    Zn1   S    
C92   Cl12  S    
O5    Zn3   S    
C22   C32   A    
C7    O11   A    
C35   C155  S    
O42   Zn11  S    
C65   O39   A    
O50   C163  S    
C33   C153  S    
C176  H55   S    
C124  C132  S    
C111  C119  A    
C162  H19   S    
O34   Zn9   S    
C37   C157  S    
C191  H92   S    
C177  H58   S    
C2    C50   S    
C92   C108  A    
C60   C67   S    
C174  H50   S    
C11   Cl23  S    
C19   C151  A    
C9    Cl21  S    
C66   O34   A    
C23   Cl27  S    
C44   C52   T    
O25   Zn5   S    
C45   C53   T    
O52   C167  S    
C172  H45   S    
C94   Cl14  S    
C88   C104  A    
C166  H29   S    
C72   O44   A    
C173  H48   S    
O43   Zn11  S    
C100  C114  A    
C181  H67   S    
C161  C162  S    
C79   O29   A    
O35   Zn9   S    
C69   O47   A    
C191  C192  S    
C151  C159  A    
O54   C171  S    
C95   C127  A    
C142  H6    S    
C58   C65   S    
C143  C155  A    
C139  C155  A    
O15   Zn5   S    
C178  H61   S    
C170  H39   S    
C10   C144  A    
C187  H83   S    
C164  H25   S    
C189  C190  S    
C143  H7    S    
C42   C50   T    
C80   O32   A    
C14   C140  A    
C86   C124  A    
O29   Zn7   S    
C57   C68   S    
C68   O36   A    
C26   C42   S    
C97   O49   S    
C20   C32   A    
C30   C46   S    
C77   O25   A    
C163  H22   S    
C146  C158  A    
C75   O23   A    
C140  H4    S    
C141  H5    S    
C162  H21   S    
C139  H3    S    
C87   C123  A    
C141  C153  A    
C166  H30   S    
C81   Cl1   S    
C15   Cl19  S    
O3    Zn3   S    
C192  H95   S    
O47   Zn12  S    
O1    Zn1   S    
C80   C113  S    
C89   C105  A    
C167  H32   S    
C83   C99   A    
C2    O2    A    
C3    O7    A    
C29   C45   S    
C93   C109  A    
C190  H90   S    
C86   C102  A    
C73   O17   A    
C17   C29   A    
O44   Zn11  S    
C130  C135  T    
C5    O9    A    
C131  C134  T    
C19   C31   A    
C163  C164  S    
C186  H79   S    
C9    C25   A    
C8    O12   A    
C188  H85   S    
C150  C160  A    
C12   C28   A    
C69   O41   A    
C127  C135  S    
C128  C136  S    
C171  H42   S    
C183  H73   S    
C170  H41   S    
C71   O43   A    
C96   C128  A    
C35   C59   T    
O24   Zn4   S    
C64   C71   S    
C24   Cl26  S    
C189  H87   S    
O4    Zn4   S    
C167  C168  S    
C184  H75   S    
C75   O21   A    
C73   C120  S    
C31   C47   S    
O51   C165  S    
C32   C48   S    
C165  C166  S    
C105  C117  A    
O38   Zn10  S    
O39   Zn10  S    
C4    O4    A    
C77   O27   A    
C182  H70   S    
C152  C158  A    
C34   C154  S    
C16   C26   A    
C91   Cl11  S    
C151  H15   S    
C90   C106  A    
C171  C172  S    
C19   Cl31  S    
C95   Cl15  S    
C3    C51   S    
O6    Zn2   S    
C17   Cl29  S    
C185  C186  S    
O60   C183  S    
C23   C147  A    
C94   C110  A    
C62   C69   S    
C21   C145  A    
C66   O38   A    
C103  C115  A    
O53   C169  S    
C37   C61   T    
C46   C54   T    
C85   Cl5   S    
C2    O8    A    
C185  H78   S    
C38   C158  S    
C12   Cl22  S    
C61   C72   S    
C4    C52   S    
C73   O19   A    
C107  O59   S    
C168  H35   S    
C96   Cl16  S    
O37   Zn10  S    
C186  H81   S    
C14   Cl20  S    
C109  C119  A    
O16   Zn8   S    
C175  H52   S    
C7    O15   A    
C123  C131  S    
C40   C160  S    
C121  C129  S    
C92   C126  A    
C99   C113  A    
C74   O20   A    
C94   C128  A    
O9    Zn5   S    
C76   C117  S    
C13   Cl17  S    
O18   Zn2   S    
O48   Zn12  S    
C76   O22   A    
O27   Zn7   S    
C43   C51   T    
C176  H54   S    
O49   C161  S    
C21   C29   A    
C90   Cl10  S    
C21   Cl25  S    
O41   Zn11  S    
C70   O46   A    
C12   C142  A    
O58   C179  S    
C68   O40   A    
C191  H93   S    
C27   C43   S    
C109  O61   S    
C174  H49   S    
C6    O16   A    
C165  H27   S    
C4    O6    A    
O12   Zn8   S    
C149  C157  A    
C107  C117  A    
C175  C176  S    
O30   Zn6   S    
C180  H64   S    
C147  C159  A    
O36   Zn9   S    
O56   C175  S    
C18   Cl32  S    
C74   C119  S    
C96   C112  A    
C173  C174  S    
C161  H17   S    
C144  H8    S    
C5    C53   S    
O13   Zn7   S    
C78   O28   A    
C169  H37   S    
C181  H68   S    
C84   C122  A    
C3    O3    A    
C170  H40   S    
C1    O1    A    
C20   C150  A    
C132  C133  T    
C178  H60   S    
C18   C30   A    
C77   C116  S    
C164  H24   S    
C65   O33   A    
O26   Zn6   S    
C10   C26   A    
C13   C25   A    
C84   Cl4   S    
C145  H9    S    
C147  H11   S    
C189  H88   S    
C83   Cl3   S    
C137  C153  A    
C108  C118  A    
C93   Cl13  S    
C76   O24   A    
C110  C120  A    
C9    C141  A    
C176  H56   S    
C163  H23   S    
C172  H46   S    
C168  H34   S    
C162  H20   S    
C13   C137  A    
C93   C127  A    
C177  H57   S    
C129  C136  T    
C87   Cl7   S    
C63   C70   S    
C174  H51   S    
C137  H1    S    
C104  O56   S    
C83   C121  A    
O23   Zn1   S    
C192  H94   S    
O21   Zn3   S    
C150  H14   S    
C140  C156  A    
C146  H10   S    
C75   C118  S    
C180  H66   S    
C167  H33   S    
C67   O37   A    
C97   C113  A    
C105  O57   S    
C85   C101  A    
C47   C55   T    
C190  H89   S    
C125  C133  S    
C48   C56   T    
C173  H47   S    
C33   C57   T    
C17   C149  A    
C78   O26   A    
C36   C60   T    
C179  H63   S    
C39   C63   T    
C188  H84   S    
C40   C64   T    
C95   C111  A    
O64   C191  S    
C171  H43   S    
C98   O50   S    
C81   C97   A    
C106  O58   S    
C82   Cl2   S    
C148  H12   S    
C149  H13   S    
O57   C177  S    
C164  H26   S    
C24   C30   A    
O2    Zn2   S    
C102  C116  A    
C152  H16   S    
C103  O55   S    
C79   C114  S    
C99   O51   S    
C14   C28   A    
C184  H74   S    
C1    C49   S    
C122  C130  S    
