data_mof_unit_pretest_1073.cif
_audit_creation_date              2012-12-11T15:45:01-0500
_audit_creation_method            fapswitch 2.2
_symmetry_space_group_name_H-M    P1
_symmetry_Int_Tables_number       1
_space_group_crystal_system       triclinic
_cell_length_a                    6.931262
_cell_length_b                    16.95428
_cell_length_c                    17.033526
_cell_angle_alpha                 100.521713
_cell_angle_beta                  88.950951
_cell_angle_gamma                 91.506047
_cell_volume                      1967.16475471

loop_
_atom_site_label
_atom_site_type_symbol
_atom_type_description
_atom_site_fract_x
_atom_site_fract_y
_atom_site_fract_z
_atom_type_partial_charge
O1    O     O_R   0.494370 0.415690 0.413450 -0.527221
O2    O     O_R   0.819420 0.429360 0.578420 -0.493324
O3    O     O_R   0.994280 0.584310 0.586550 -0.523422
C1    C     C_R   0.646895 0.413610 0.605232 0.885446
O4    O     O_R   0.823790 0.406230 0.413570 -0.517480
O5    O     O_R   0.998670 0.561000 0.420530 -0.556782
C2    C     C_R   0.654473 0.384447 0.384197 0.848253
O6    O     O_R   0.489970 0.439000 0.579470 -0.521905
O7    O     O_3   0.662300 0.550810 0.502470 -0.401586
V1    V     V_3+5 0.935380 0.490570 0.499540 1.723098
O8    O     O_R   0.328650 0.570640 0.421580 -0.542560
C3    C     C_R   0.161779 0.586252 0.395327 0.688182
O9    O     O_R   0.324290 0.593770 0.586430 -0.546367
C4    C     C_R   0.155581 0.616260 0.615351 0.829058
V2    V     V_3+5 0.435930 0.509430 0.500460 1.646929
O10   O     O_3   0.159140 0.449190 0.497530 -0.343609
C5    C     C_R   0.273046 0.749116 0.689840 -0.245888
H1    H     H_    0.379980 0.749748 0.642791 0.206985
C6    C     C_R   0.258090 0.815706 0.751992 0.409386
C7    C     C_R   0.119181 0.814767 0.814957 -0.404510
C8    C     C_R   0.993780 0.745707 0.811088 0.313769
C9    C     C_R   0.004356 0.682802 0.744494 0.608276
C10   C     C_R   0.145176 0.683516 0.684550 -0.295937
C11   C     C_R   0.157892 0.633700 0.330784 -0.088825
C12   C     C_R   0.113989 0.855069 0.163356 -0.362213
C13   C     C_R   0.026018 0.838072 0.297659 0.374334
C14   C     C_R   0.091131 0.888650 0.245160 0.366237
C15   C     C_R   0.174901 0.773352 0.145184 0.381970
C16   C     C_R   0.166945 0.725678 0.206739 -0.025780
C17   C     C_R   0.082554 0.757146 0.282270 -0.079706
C18   C     C_R   0.072694 0.709089 0.342496 -0.056845
C19   C     C_R   0.242253 0.603422 0.257054 -0.154551
C20   C     C_R   0.242605 0.647381 0.195489 0.017762
H2    H     H_    0.010554 0.731119 0.400717 0.177336
H3    H     H_    0.306448 0.544760 0.246656 0.193035
H4    H     H_    0.307316 0.618678 0.140002 0.213337
C21   C     C_R   0.620420 0.360573 0.666207 -0.402832
C22   C     C_R   0.643716 0.139251 0.833846 -0.173961
C23   C     C_R   0.851441 0.189108 0.734946 -0.024816
C24   C     C_R   0.815304 0.135827 0.787369 0.611186
C25   C     C_R   0.507039 0.196726 0.824745 -0.074447
C26   C     C_R   0.544067 0.251507 0.772402 -0.185663
C27   C     C_R   0.718305 0.247823 0.727213 -0.148439
C28   C     C_R   0.756091 0.302285 0.674655 0.609672
C29   C     C_R   0.448897 0.364485 0.713134 0.531479
C30   C     C_R   0.411264 0.310625 0.765113 0.611305
H5    H     H_    0.985461 0.184499 0.700832 0.203980
H6    H     H_    0.374928 0.200263 0.860100 0.222759
C31   C     C_R   0.764887 0.252553 0.310507 0.534207
C32   C     C_R   0.754511 0.187176 0.246644 0.253748
C33   C     C_R   0.624105 0.187624 0.182811 -0.424829
C34   C     C_R   0.509269 0.256617 0.185075 0.365075
C35   C     C_R   0.512901 0.318434 0.252937 0.523030
C36   C     C_R   0.642356 0.317164 0.315090 -0.406027
O11   O     O_R   0.774880 0.061150 0.920630 -0.529677
O12   O     O_R   0.440980 0.093710 0.086500 -0.503696
O13   O     O_R   0.266190 0.938890 0.079390 -0.515681
C37   C     C_R   0.610771 0.117671 0.114607 0.885437
O14   O     O_R   0.445420 0.070740 0.921670 -0.528387
O15   O     O_R   0.270660 0.915760 0.913380 -0.509333
C38   C     C_R   0.617838 0.086627 0.895024 0.839157
O16   O     O_R   0.770400 0.084270 0.086640 -0.523875
O17   O     O_3   0.602590 0.949210 0.997500 -0.355353
V3    V     V_3+5 0.329470 0.009420 0.000470 1.869280
O18   O     O_R   0.940650 0.906250 0.913470 -0.507549
C39   C     C_R   0.109001 0.884126 0.883577 0.893355
O19   O     O_R   0.936210 0.929220 0.078300 -0.521957
C40   C     C_R   0.104625 0.909733 0.102401 0.933528
V4    V     V_3+5 0.828930 0.990510 0.999490 1.864407
O20   O     O_3   0.105680 0.050790 0.002500 -0.367157
S1    S     S_3+6 0.283302 0.731429 0.051645 0.055826
O21   O     O_2   0.487437 0.710179 0.065783 -0.309431
O22   O     O_2   0.172224 0.656269 0.016400 -0.291262
O23   O     O_3   0.291286 0.792483 0.985451 -0.496964
H7    H     H_    0.312167 0.756308 0.933608 0.378256
F1    F     F_    0.921554 0.296687 0.630085 -0.615983
F2    F     F_    0.315927 0.421040 0.709207 -0.583605
F3    F     F_    0.243795 0.316414 0.808272 -0.614128
F4    F     F_    0.950095 0.080593 0.792416 -0.669973
F5    F     F_    0.892222 0.252996 0.370287 -0.584755
S2    S     S_3+6 0.911144 0.106758 0.248162 0.138480
O24   O     O_2   0.069448 0.111327 0.187826 -0.275857
O25   O     O_2   0.999251 0.111376 0.328769 -0.203458
O26   O     O_3   0.790424 0.018907 0.224042 -0.497857
H8    H     H_    0.682949 0.023078 0.263288 0.388047
S3    S     S_3+6 0.376692 0.272186 0.100891 0.088002
O27   O     O_2   0.486067 0.240250 0.025292 -0.379287
O28   O     O_2   0.183936 0.229495 0.100095 -0.296778
O29   O     O_3   0.341119 0.370545 0.104284 -0.437685
H9    H     H_    0.264632 0.373135 0.056296 0.391352
S4    S     S_3+6 0.406562 0.901025 0.743770 0.053181
O30   O     O_2   0.570372 0.907714 0.801224 -0.297898
O31   O     O_2   0.489755 0.894172 0.660693 -0.301065
O32   O     O_3   0.276779 0.984671 0.764731 -0.486542
H10   H     H_    0.195030 0.982845 0.717321 0.388433
F6    F     F_    0.395937 0.382144 0.257175 -0.628067
S5    S     S_3+6 0.819007 0.734235 0.886582 0.137964
O33   O     O_2   0.887491 0.770972 0.968498 -0.304892
O34   O     O_2   0.638653 0.774676 0.869422 -0.317730
O35   O     O_3   0.767135 0.636577 0.885826 -0.402849
H11   H     H_    0.644389 0.635901 0.916422 0.409251
F7    F     F_    0.878586 0.619216 0.738361 -0.608123
S6    S     S_3+6 0.900326 0.879627 0.386866 0.122367
O36   O     O_2   0.727128 0.827051 0.397274 -0.310934
O37   O     O_2   0.031077 0.883513 0.456995 -0.285548
O38   O     O_3   0.826181 0.972346 0.383157 -0.423895
H12   H     H_    0.748399 0.988420 0.432580 0.391967
S7    S     S_3+6 0.281152 0.955383 0.285013 0.099647
O39   O     O_2   0.457122 0.905713 0.286326 -0.324181
O40   O     O_2   0.324488 0.016934 0.233826 -0.324909
O41   O     O_3   0.233276 0.001938 0.378893 -0.393074
H13   H     H_    0.354356 0.031443 0.397074 0.381147

loop_
_geom_bond_atom_site_label_1
_geom_bond_atom_site_label_2
_ccdc_geom_bond_type
C37   O16   A    
C25   C26   A    
C6    C7    A    
C1    O6    A    
S5    O35   S    
S5    O33   D    
C29   C30   A    
C12   C15   A    
C13   C14   A    
C5    C10   A    
C7    C39   S    
C15   C16   A    
O5    C3    A    
C17   C18   A    
S3    O28   D    
O38   H12   S    
C31   C36   A    
C16   C20   A    
C20   H4    S    
S7    O39   D    
C26   C30   A    
C28   F1    S    
S2    O25   D    
O8    V2    S    
O41   H13   S    
O12   C37   A    
O12   V3    S    
O1    V2    S    
V3    O20   S    
O7    V1    S    
C22   C38   S    
O15   C39   A    
C8    C9    A    
C35   F6    S    
V4    O20   S    
C12   C40   S    
S5    O34   D    
C5    H1    S    
C18   H2    S    
O14   C38   A    
O23   H7    S    
O19   C40   A    
C19   H3    S    
O17   V4    S    
O26   H8    S    
C22   C25   A    
C30   F3    S    
S4    O30   D    
O4    C2    A    
S3    O27   D    
C23   C27   A    
C35   C36   A    
S2    O24   D    
C33   C34   A    
O16   V4    S    
O19   V4    S    
C4    C10   S    
O2    C1    A    
C27   C28   A    
C11   C19   A    
C16   C17   A    
C13   S6    S    
S4    O31   D    
C8    S5    S    
C32   C33   A    
O14   V3    S    
C24   F4    S    
S6    O37   D    
C33   C37   S    
C7    C8    A    
O11   V4    S    
O3    C4    A    
C13   C17   A    
O6    V2    S    
O9    V2    S    
C31   C32   A    
C15   S1    S    
C26   C27   A    
O13   C40   A    
C21   C29   A    
O2    V1    S    
C23   C24   A    
S2    O26   S    
C34   C35   A    
O13   V3    S    
C23   H5    S    
O1    C2    A    
S3    O29   S    
O5    V1    S    
S1    O23   S    
O8    C3    A    
C31   F5    S    
C12   C14   A    
C3    C11   S    
C9    F7    S    
S7    O41   S    
O15   V3    S    
C19   C20   A    
C21   C28   A    
C34   S3    S    
O7    V2    S    
C11   C18   A    
S1    O21   D    
O3    V1    S    
V1    O10   S    
S4    O32   S    
C22   C24   A    
C14   S7    S    
O18   V4    S    
O11   C38   A    
O35   H11   S    
C5    C6    A    
C25   H6    S    
S7    O40   D    
S6    O38   S    
O32   H10   S    
C6    S4    S    
O17   V3    S    
O4    V1    S    
C1    C21   S    
O18   C39   A    
S1    O22   D    
S6    O36   D    
C9    C10   A    
C29   F2    S    
C2    C36   S    
O29   H9    S    
O9    C4    A    
V2    O10   S    
C32   S2    S    
