data_mof_unit_pretest_1859.cif
_audit_creation_date              2012-12-10T20:34:52-0500
_audit_creation_method            fapswitch 2.2
_symmetry_space_group_name_H-M    P1
_symmetry_Int_Tables_number       1
_space_group_crystal_system       triclinic
_cell_length_a                    26.075629
_cell_length_b                    39.790677
_cell_length_c                    39.761106
_cell_angle_alpha                 89.990703
_cell_angle_beta                  89.928272
_cell_angle_gamma                 90.027562
_cell_volume                      41254.7710817

loop_
_atom_site_label
_atom_site_type_symbol
_atom_type_description
_atom_site_fract_x
_atom_site_fract_y
_atom_site_fract_z
_atom_type_partial_charge
C1    C     C_R   0.391150 0.499294 0.750479 0.801225
C2    C     C_R   0.108922 0.998890 0.248652 0.798734
C3    C     C_3   0.529500 0.033925 0.237823 -0.262713
C4    C     C_3   0.029219 0.028812 0.267689 -0.251814
C5    C     C_3   0.970659 0.033625 0.737000 -0.260682
C6    C     C_3   0.970269 0.024437 0.273259 -0.254256
C7    C     C_3   0.029872 0.034737 0.743199 -0.235464
C8    C     C_3   0.030929 0.485554 0.715160 -0.104467
C9    C     C_3   0.969745 0.468663 0.269298 -0.117413
C10   C     C_3   0.969991 0.480359 0.717406 -0.119522
C11   C     C_3   0.030553 0.466437 0.263829 -0.119805
C12   C     C_3   0.530200 0.468381 0.231104 -0.114356
C13   C     C_R   0.108864 0.999224 0.750619 0.793878
C14   C     C_3   0.470005 0.485248 0.785798 -0.130636
C15   C     C_3   0.469395 0.466269 0.236607 -0.122810
C16   C     C_3   0.530690 0.491532 0.787024 -0.130373
C17   C     C_3   0.530856 0.019358 0.715858 -0.113641
C18   C     C_3   0.469989 0.986192 0.286282 -0.131413
C19   C     C_3   0.470266 0.014422 0.712896 -0.154532
C20   C     C_3   0.530635 0.992605 0.287313 -0.131616
C21   C     C_3   0.029947 0.001370 0.209478 -0.129826
C22   C     C_3   0.969192 0.993673 0.787585 -0.131507
C23   C     C_3   0.969220 0.007439 0.211019 -0.110166
C24   C     C_R   0.891165 0.998971 0.249039 0.784570
C25   C     C_3   0.029798 0.987122 0.786699 -0.131279
C26   C     C_3   0.051234 0.499199 0.750696 -0.075484
C27   C     C_3   0.948740 0.500407 0.248807 -0.075697
C28   C     C_3   0.949088 0.498711 0.750481 -0.073826
C29   C     C_3   0.050918 0.501203 0.248430 -0.068334
C30   C     C_3   0.551272 0.500370 0.251175 -0.067232
C31   C     C_3   0.448923 0.498110 0.750251 -0.070716
C32   C     C_3   0.449102 0.501226 0.251571 -0.077708
C33   C     C_3   0.551079 0.498899 0.749587 -0.081457
C34   C     C_3   0.551165 0.998086 0.747644 -0.061637
C35   C     C_R   0.391136 0.999243 0.250548 0.800926
C36   C     C_3   0.448891 0.998048 0.250386 -0.070157
C37   C     C_3   0.448966 0.999194 0.747922 -0.075400
C38   C     C_3   0.551050 0.998817 0.249663 -0.083597
C39   C     C_3   0.051157 0.997785 0.247403 -0.071690
C40   C     C_3   0.948949 0.998829 0.749752 -0.079500
C41   C     C_3   0.948886 0.997291 0.247901 -0.066198
C42   C     C_3   0.051107 0.998102 0.750532 -0.069232
C43   C     C_R   0.243501 0.469932 0.430979 -0.021888
C44   C     C_R   0.759977 0.470788 0.568884 -0.021030
C45   C     C_R   0.724687 0.525395 0.430674 -0.019672
C46   C     C_R   0.608858 0.999073 0.748964 0.780692
C47   C     C_R   0.232310 0.471817 0.569385 -0.020289
C48   C     C_R   0.793428 0.486176 0.932031 -0.031813
C49   C     C_R   0.222556 0.525868 0.069802 -0.019334
C50   C     C_R   0.256900 0.471365 0.931439 -0.021216
C51   C     C_R   0.735127 0.471633 0.069686 -0.017271
C52   C     C_R   0.791558 0.987128 0.432584 -0.030792
C53   C     C_R   0.209186 0.984927 0.567531 -0.032576
C54   C     C_R   0.256098 0.972661 0.431253 -0.019778
C55   C     C_R   0.727863 0.973747 0.569806 -0.015919
C56   C     C_R   0.247968 0.970337 0.931361 -0.023973
C57   C     C_R   0.608795 0.000117 0.249717 0.802376
C58   C     C_R   0.746026 0.972886 0.068304 -0.023051
C59   C     C_R   0.709355 0.985173 0.932490 -0.032212
C60   C     C_R   0.232845 0.972187 0.069229 -0.020370
C61   C     C_R   0.249881 0.500136 0.840819 0.864893
C62   C     C_R   0.750097 0.500114 0.159344 0.883262
C63   C     C_R   0.749868 0.499878 0.841159 0.819125
C64   C     C_R   0.250313 0.499864 0.159260 0.852228
C65   C     C_R   0.750263 0.499903 0.340740 0.853138
C66   C     C_R   0.249951 0.500005 0.659277 0.872951
C67   C     C_R   0.250099 0.500100 0.340812 0.871684
C68   C     C_R   0.391189 0.999775 0.749342 0.803211
C69   C     C_R   0.750006 0.500103 0.659190 0.867859
C70   C     C_R   0.750528 0.999670 0.841181 0.814668
C71   C     C_R   0.249994 0.000058 0.159269 0.870636
C72   C     C_R   0.250077 0.000145 0.840847 0.859382
C73   C     C_R   0.749678 0.000281 0.159234 0.862068
C74   C     C_R   0.249855 0.000162 0.340684 0.867754
C75   C     C_R   0.750110 0.000108 0.659375 0.883765
C76   C     C_R   0.749696 0.999885 0.341180 0.818204
C77   C     C_R   0.250230 0.999941 0.658795 0.814521
C78   C     C_R   0.243742 0.469991 0.395623 -0.074854
C79   C     C_1   0.254109 0.264927 0.750571 -0.015364
C80   C     C_R   0.759536 0.470610 0.604243 -0.071202
C81   C     C_R   0.724349 0.525065 0.395321 -0.073070
C82   C     C_R   0.233377 0.471623 0.604730 -0.074079
C83   C     C_R   0.792695 0.485730 0.896679 -0.073946
C84   C     C_R   0.222482 0.525031 0.105158 -0.066279
C85   C     C_R   0.257068 0.470898 0.896083 -0.071951
C86   C     C_R   0.734501 0.471821 0.104941 -0.073605
C87   C     C_R   0.791605 0.986582 0.397231 -0.077444
C88   C     C_R   0.210628 0.983197 0.602834 -0.076412
C89   C     C_R   0.257104 0.971731 0.396007 -0.073868
C90   C     C_1   0.749514 0.264932 0.249932 -0.015844
C91   C     C_R   0.728540 0.973532 0.605054 -0.075629
C92   C     C_R   0.248242 0.970081 0.896009 -0.073304
C93   C     C_R   0.746912 0.971621 0.103539 -0.076553
C94   C     C_R   0.711333 0.982694 0.897248 -0.079944
C95   C     C_R   0.234146 0.971769 0.104562 -0.074500
C96   C     C_R   0.251002 0.500395 0.377882 -0.136302
C97   C     C_R   0.749526 0.500552 0.622130 -0.132708
C98   C     C_R   0.750786 0.499654 0.377686 -0.129913
C99   C     C_R   0.250562 0.500234 0.622360 -0.131489
C100  C     C_R   0.750101 0.499413 0.878798 -0.158223
C101  C     C_1   0.748927 0.265138 0.752473 -0.015880
C102  C     C_R   0.250180 0.499885 0.122313 -0.127836
C103  C     C_R   0.248736 0.500875 0.877885 -0.133001
C104  C     C_R   0.751187 0.500577 0.122567 -0.133484
C105  C     C_R   0.749069 0.999515 0.378860 -0.157758
C106  C     C_R   0.249908 0.000272 0.621094 -0.158865
C107  C     C_R   0.248040 0.001370 0.377472 -0.131545
C108  C     C_R   0.751093 0.000499 0.622648 -0.126263
C109  C     C_R   0.250695 0.000661 0.877973 -0.136362
C110  C     C_R   0.747323 0.001782 0.122328 -0.135784
C111  C     C_R   0.750800 0.999461 0.878853 -0.156887
C112  C     C_R   0.608897 0.500306 0.250304 0.792976
C113  C     C_1   0.247911 0.265824 0.250183 -0.012245
C114  C     C_R   0.250619 0.000475 0.122340 -0.131082
C115  C     C_R   0.258388 0.530933 0.395587 -0.094442
C116  C     C_R   0.740844 0.531033 0.604599 -0.091049
C117  C     C_R   0.779363 0.475047 0.395333 -0.083972
C118  C     C_R   0.267120 0.529182 0.604754 -0.092484
C119  C     C_R   0.708237 0.513031 0.897442 -0.083420
C120  C     C_R   0.278545 0.475480 0.104185 -0.091566
C121  C     C_R   0.240725 0.531615 0.895133 -0.090619
C122  C     C_R   0.768174 0.529599 0.105076 -0.101354
C123  C     C_R   0.706413 0.012726 0.397093 -0.081278
C124  C     C_1   0.746558 0.765996 0.749646 -0.014245
C125  C     C_R   0.287983 0.018549 0.602749 -0.079169
C126  C     C_R   0.238517 0.032253 0.394094 -0.092177
C127  C     C_R   0.773608 0.027851 0.605209 -0.097278
C128  C     C_R   0.252161 0.031699 0.895485 -0.089520
C129  C     C_R   0.746013 0.033360 0.105758 -0.092386
C130  C     C_R   0.789720 0.016985 0.897027 -0.081067
C131  C     C_R   0.265899 0.029834 0.104870 -0.092551
C132  C     C_R   0.256773 0.530731 0.431161 -0.075281
C133  C     C_R   0.742162 0.531094 0.569036 -0.072502
C134  C     C_R   0.779821 0.475714 0.430880 -0.063553
C135  C     C_1   0.248808 0.765372 0.247088 -0.015602
C136  C     C_R   0.267266 0.528847 0.569212 -0.068212
C137  C     C_R   0.709898 0.513603 0.932840 -0.070770
C138  C     C_R   0.278549 0.476603 0.068642 -0.063758
C139  C     C_R   0.241354 0.531935 0.930702 -0.072509
C140  C     C_R   0.769078 0.528988 0.069541 -0.069378
C141  C     C_R   0.707182 0.013333 0.432522 -0.070851
C142  C     C_R   0.285368 0.020425 0.567435 -0.072827
C143  C     C_R   0.237907 0.032978 0.429560 -0.071338
C144  C     C_R   0.773133 0.027661 0.569673 -0.068156
C145  C     C_R   0.250533 0.031728 0.931016 -0.075083
C146  C     C_1   0.247381 0.764920 0.750835 -0.015062
C147  C     C_R   0.745702 0.034332 0.070308 -0.073751
C148  C     C_R   0.786623 0.019668 0.932271 -0.075109
C149  C     C_R   0.265493 0.029809 0.069323 -0.068964
C150  C     C_R   0.249613 0.500287 0.448690 0.019423
C151  C     C_R   0.751410 0.500992 0.551347 0.019745
C152  C     C_R   0.752230 0.500676 0.448395 0.013630
C153  C     C_R   0.249547 0.500317 0.551658 0.018600
C154  C     C_R   0.752210 0.500103 0.949852 0.027205
C155  C     C_R   0.250488 0.501649 0.051619 0.013368
C156  C     C_R   0.249288 0.501855 0.948678 0.020116
C157  C     C_1   0.750716 0.766179 0.251146 -0.014919
C158  C     C_R   0.752492 0.500135 0.052177 0.017678
C159  C     C_R   0.749524 0.000503 0.449976 0.026873
C160  C     C_R   0.246322 0.003536 0.550109 0.028510
C161  C     C_R   0.246511 0.003226 0.447844 0.020878
C162  C     C_R   0.750118 0.000763 0.552297 0.017439
C163  C     C_R   0.248834 0.001104 0.948787 0.022085
C164  C     C_R   0.745707 0.004162 0.051891 0.023584
C165  C     C_R   0.746566 0.003866 0.949700 0.027542
C166  C     C_R   0.248827 0.001089 0.051668 0.018606
C167  C     C_1   0.249355 0.500164 0.485056 -0.009841
C168  C     C_R   0.274113 0.318300 0.723423 -0.185503
C169  C     C_1   0.751850 0.501017 0.514991 -0.007773
C170  C     C_1   0.752102 0.500907 0.484750 -0.009223
C171  C     C_1   0.249367 0.500202 0.515303 -0.008927
C172  C     C_1   0.752810 0.499983 0.985976 -0.003684
C173  C     C_1   0.249901 0.502166 0.015270 -0.009122
C174  C     C_1   0.249546 0.502197 0.985031 -0.007226
C175  C     C_1   0.752850 0.499935 0.016062 -0.008708
C176  C     C_1   0.749613 0.000688 0.486102 -0.003870
C177  C     C_1   0.245679 0.004096 0.514003 -0.003720
C178  C     C_1   0.245785 0.003979 0.483926 -0.006801
C179  C     C_R   0.733193 0.318252 0.278390 -0.187521
C180  C     C_1   0.749770 0.000735 0.516187 -0.008429
C181  C     C_1   0.248544 0.001200 0.985117 -0.007714
C182  C     C_1   0.745334 0.005107 0.015831 -0.007234
C183  C     C_1   0.745510 0.005025 0.985767 -0.005161
C184  C     C_1   0.248544 0.001179 0.015343 -0.008611
C185  C     C_R   0.249873 0.590873 0.750112 0.808729
C186  C     C_R   0.749804 0.591064 0.250123 0.806338
C187  C     C_R   0.749748 0.591042 0.749791 0.801163
C188  C     C_R   0.249554 0.591027 0.249717 0.805245
C189  C     C_R   0.749801 0.090912 0.750135 0.795356
C190  C     C_R   0.728432 0.317877 0.724521 -0.184797
C191  C     C_R   0.249890 0.090957 0.250094 0.807517
C192  C     C_R   0.250188 0.090851 0.750171 0.806337
C193  C     C_R   0.749965 0.090809 0.249961 0.803215
C194  C     C_R   0.249860 0.409004 0.749896 0.790692
C195  C     C_R   0.750037 0.409044 0.250026 0.804428
C196  C     C_R   0.749732 0.409054 0.750188 0.790823
C197  C     C_R   0.249965 0.409326 0.250010 0.809795
C198  C     C_R   0.750028 0.909336 0.750069 0.796110
C199  C     C_R   0.249774 0.909064 0.249816 0.789641
C200  C     C_R   0.250139 0.908989 0.749903 0.789607
C201  C     C_R   0.205516 0.319597 0.261366 -0.169654
C202  C     C_R   0.750051 0.909397 0.249991 0.797574
C203  C     C_R   0.299744 0.180525 0.751023 -0.031415
C204  C     C_R   0.702936 0.180911 0.247477 -0.031096
C205  C     C_R   0.740432 0.181922 0.721499 -0.031751
C206  C     C_R   0.294984 0.182012 0.253511 -0.029299
C207  C     C_R   0.796416 0.181079 0.252038 -0.031233
C208  C     C_R   0.206072 0.181739 0.751808 -0.031155
C209  C     C_R   0.201806 0.181338 0.247747 -0.029646
C210  C     C_R   0.756708 0.180928 0.781966 -0.031960
C211  C     C_R   0.792848 0.682464 0.741920 -0.033317
C212  C     C_R   0.766483 0.318242 0.221651 -0.181040
C213  C     C_R   0.230588 0.682379 0.276110 -0.032013
C214  C     C_R   0.201542 0.680876 0.747498 -0.031346
C215  C     C_R   0.762490 0.681826 0.280473 -0.033583
C216  C     C_R   0.264756 0.681292 0.218961 -0.033431
C217  C     C_R   0.701663 0.681462 0.755672 -0.033338
C218  C     C_R   0.736583 0.682399 0.221566 -0.033143
C219  C     C_R   0.294551 0.681645 0.754776 -0.030684
C220  C     C_R   0.298734 0.145181 0.751293 -0.072938
C221  C     C_R   0.702980 0.145556 0.247437 -0.074709
C222  C     C_R   0.740381 0.146602 0.720800 -0.087046
C223  C     C_R   0.608808 0.500158 0.749683 0.802007
C224  C     C_R   0.229877 0.317932 0.776824 -0.183920
C225  C     C_R   0.295697 0.146620 0.253620 -0.072463
C226  C     C_R   0.796614 0.145726 0.252138 -0.069796
C227  C     C_R   0.204846 0.146420 0.751929 -0.074923
C228  C     C_R   0.202217 0.145924 0.247898 -0.071329
C229  C     C_R   0.756489 0.145589 0.781515 -0.079294
C230  C     C_R   0.793880 0.647084 0.741701 -0.076560
C231  C     C_R   0.230101 0.647082 0.276866 -0.090361
C232  C     C_R   0.202056 0.645550 0.747456 -0.072377
C233  C     C_R   0.761876 0.646415 0.280386 -0.073708
C234  C     C_R   0.264316 0.645962 0.219366 -0.073658
C235  C     C_R   0.291965 0.319066 0.238982 -0.174222
C236  C     C_R   0.702279 0.646058 0.755462 -0.072766
C237  C     C_R   0.735936 0.647008 0.221195 -0.086524
C238  C     C_R   0.295418 0.646336 0.754619 -0.074046
C239  C     C_R   0.251225 0.127967 0.751006 -0.116279
C240  C     C_R   0.749853 0.127871 0.249843 -0.113293
C241  C     C_R   0.748949 0.128156 0.750790 -0.119257
C242  C     C_R   0.249296 0.128298 0.250503 -0.121646
C243  C     C_R   0.748697 0.628493 0.749043 -0.124060
C244  C     C_R   0.248101 0.628428 0.248707 -0.122824
C245  C     C_R   0.249146 0.628048 0.750664 -0.120491
C246  C     C_R   0.768579 0.318696 0.779248 -0.185555
C247  C     C_R   0.749238 0.628583 0.250544 -0.122391
C248  C     C_R   0.253440 0.198647 0.751067 0.020006
C249  C     C_R   0.749612 0.198555 0.249779 0.018259
C250  C     C_R   0.748833 0.198907 0.751989 0.021757
C251  C     C_R   0.248146 0.199279 0.250448 0.021620
C252  C     C_R   0.746934 0.699526 0.749105 0.022003
C253  C     C_R   0.248260 0.699254 0.247353 0.025004
C254  C     C_R   0.247737 0.698731 0.751064 0.022384
C255  C     C_R   0.750060 0.699682 0.251086 0.022481
C256  C     C_1   0.254300 0.234811 0.750774 -0.009193
C257  C     C_R   0.708884 0.819888 0.733283 -0.171244
C258  C     C_1   0.749501 0.234779 0.249860 -0.009800
C259  C     C_1   0.748965 0.235043 0.752465 -0.009920
C260  C     C_1   0.247756 0.235609 0.250274 -0.006210
C261  C     C_1   0.746367 0.735811 0.749447 -0.007758
C262  C     C_1   0.248730 0.735323 0.246944 -0.009156
C263  C     C_1   0.247236 0.734841 0.750964 -0.008615
C264  C     C_1   0.750557 0.735985 0.251246 -0.009796
C265  C     C_1   0.348406 0.198279 0.750973 0.196760
C266  C     C_1   0.654885 0.199164 0.245010 0.199010
C267  C     C_1   0.731939 0.200882 0.690770 0.194906
C268  C     C_R   0.227526 0.817921 0.275008 -0.185582
C269  C     C_1   0.342588 0.200752 0.256449 0.196302
C270  C     C_1   0.844350 0.199503 0.254443 0.199799
C271  C     C_1   0.158525 0.200748 0.752401 0.196194
C272  C     C_1   0.153606 0.199383 0.245002 0.196909
C273  C     C_1   0.764749 0.198865 0.813338 0.191947
C274  C     C_1   0.839239 0.701437 0.734793 0.194514
C275  C     C_1   0.212810 0.701486 0.305031 0.192771
C276  C     C_1   0.153422 0.698917 0.744030 0.197041
C277  C     C_1   0.775659 0.699997 0.310948 0.191902
C278  C     C_1   0.281927 0.699278 0.189190 0.190442
C279  C     C_R   0.221649 0.818081 0.725753 -0.185663
C280  C     C_1   0.654269 0.699395 0.762472 0.194602
C281  C     C_1   0.723387 0.701159 0.191439 0.196316
C282  C     C_1   0.341932 0.700480 0.758651 0.196078
C283  C     C_1   0.237085 0.438525 0.449064 0.201366
C284  C     C_1   0.769355 0.439839 0.550557 0.200504
C285  C     C_1   0.696497 0.551120 0.448795 0.203746
C286  C     C_1   0.213183 0.442701 0.551360 0.203427
C287  C     C_1   0.836796 0.472214 0.950252 0.193418
C288  C     C_1   0.193652 0.551536 0.052132 0.205198
C289  C     C_1   0.264588 0.440399 0.950072 0.200737
C290  C     C_R   0.721235 0.819751 0.274401 -0.171461
C291  C     C_1   0.717817 0.442155 0.051395 0.205450
C292  C     C_1   0.835050 0.973923 0.451255 0.192905
C293  C     C_1   0.169364 0.967366 0.548917 0.194073
C294  C     C_1   0.265195 0.942211 0.450491 0.204195
C295  C     C_1   0.704344 0.946171 0.551527 0.205906
C296  C     C_1   0.246806 0.938838 0.949774 0.200895
C297  C     C_1   0.745613 0.941970 0.048856 0.200980
C298  C     C_1   0.669033 0.968205 0.951262 0.193475
C299  C     C_1   0.214644 0.942926 0.051012 0.204862
C300  C     C_1   0.235186 0.438802 0.377484 0.208658
C301  C     C_R   0.269670 0.818861 0.220852 -0.186112
C302  C     C_1   0.771872 0.439911 0.622218 0.203002
C303  C     C_1   0.697397 0.551207 0.377028 0.194909
C304  C     C_1   0.215391 0.442309 0.623054 0.192256
C305  C     C_1   0.836396 0.471044 0.879433 0.261588
C306  C     C_1   0.193606 0.549926 0.123998 0.183924
C307  C     C_1   0.268138 0.439788 0.878448 0.203489
C308  C     C_1   0.714856 0.442871 0.123116 0.196200
C309  C     C_1   0.836345 0.972909 0.380527 0.251223
C310  C     C_1   0.171234 0.963502 0.619562 0.262572
C311  C     C_1   0.269740 0.940596 0.378858 0.202356
C312  C     C_R   0.786653 0.818966 0.766526 -0.170706
C313  C     C_1   0.705249 0.945824 0.623295 0.188117
C314  C     C_1   0.243763 0.938318 0.878281 0.212638
C315  C     C_1   0.748574 0.939205 0.120283 0.223246
C316  C     C_1   0.672990 0.962003 0.880764 0.254682
C317  C     C_1   0.216822 0.942185 0.122715 0.194389
C318  C     C_2   0.270199 0.562640 0.376987 0.936022
C319  C     C_2   0.728960 0.562497 0.623469 0.937636
C320  C     C_2   0.809937 0.449298 0.376785 0.895282
C321  C     C_2   0.285126 0.559446 0.623537 0.927387
C322  C     C_2   0.661437 0.525910 0.880746 0.966381
C323  C     C_R   0.779930 0.819515 0.227066 -0.170180
C324  C     C_2   0.308493 0.449013 0.122161 0.901463
C325  C     C_2   0.230104 0.563087 0.875970 0.939396
C326  C     C_2   0.785466 0.560204 0.123808 0.931222
C327  C     C_2   0.659951 0.025565 0.379980 0.966573
C328  C     C_2   0.332103 0.035034 0.619560 0.967207
C329  C     C_2   0.227904 0.063429 0.374409 0.939014
C330  C     C_2   0.798187 0.056135 0.624062 0.924267
C331  C     C_2   0.257417 0.063967 0.876694 0.946960
C332  C     C_2   0.742494 0.065198 0.125418 0.949283
C333  C     C_2   0.835630 0.031175 0.880124 0.971199
C334  C     C_R   0.391178 0.501085 0.250961 0.803858
C335  C     C_R   0.275995 0.817946 0.774863 -0.185712
C336  C     C_2   0.283082 0.060215 0.123790 0.929592
C337  C     C_1   0.264116 0.561652 0.449877 0.260593
C338  C     C_1   0.732293 0.561824 0.550486 0.258501
C339  C     C_1   0.807408 0.450182 0.449603 0.268442
C340  C     C_1   0.287967 0.557209 0.550729 0.254864
C341  C     C_1   0.667116 0.527145 0.952004 0.243718
C342  C     C_1   0.306021 0.451388 0.049371 0.271732
C343  C     C_1   0.231994 0.562904 0.948979 0.258532
C344  C     C_1   0.788777 0.557404 0.050568 0.268084
C345  C     C_1   0.663544 0.026292 0.451257 0.244192
C346  C     C_R   0.272746 0.353366 0.722716 -0.029333
C347  C     C_1   0.324034 0.038926 0.548638 0.239911
C348  C     C_1   0.226630 0.063941 0.447407 0.258823
C349  C     C_1   0.797904 0.054317 0.550706 0.269724
C350  C     C_1   0.252315 0.063199 0.949412 0.252067
C351  C     C_1   0.743437 0.066223 0.052618 0.254818
C352  C     C_1   0.825885 0.037684 0.950935 0.243912
C353  C     C_1   0.284268 0.058753 0.050825 0.257006
C354  C     C_1   0.346562 0.126712 0.753881 0.221699
C355  C     C_1   0.654911 0.127478 0.243848 0.218316
C356  C     C_1   0.732027 0.129596 0.688995 0.238477
C357  C     C_R   0.733282 0.353362 0.278797 -0.039998
C358  C     C_1   0.344518 0.129355 0.256400 0.235749
C359  C     C_1   0.844810 0.127831 0.255770 0.219190
C360  C     C_1   0.155689 0.129351 0.752864 0.233901
C361  C     C_1   0.153862 0.127835 0.246705 0.228608
C362  C     C_1   0.761959 0.127465 0.813016 0.220996
C363  C     C_1   0.841851 0.630283 0.733973 0.250877
C364  C     C_1   0.210350 0.630574 0.306733 0.249815
C365  C     C_1   0.153758 0.627487 0.745367 0.231824
C366  C     C_1   0.772440 0.628731 0.311565 0.238968
C367  C     C_1   0.278494 0.628149 0.188852 0.246645
C368  C     C_R   0.728080 0.352936 0.723635 -0.033055
C369  C     C_1   0.654415 0.628046 0.760472 0.234874
C370  C     C_1   0.721671 0.630014 0.190311 0.239756
C371  C     C_1   0.344249 0.629179 0.758032 0.238731
C372  C     C_1   0.293868 0.369532 0.693218 0.245126
C373  C     C_1   0.717117 0.369594 0.309550 0.263364
C374  C     C_1   0.706099 0.368521 0.694156 0.243222
C375  C     C_1   0.161344 0.372164 0.274363 0.193403
C376  C     C_1   0.784113 0.369538 0.190790 0.238479
C377  C     C_1   0.203126 0.368753 0.805291 0.247085
C378  C     C_1   0.337876 0.371119 0.226192 0.214611
C379  C     C_R   0.205775 0.354742 0.261490 -0.026519
C380  C     C_1   0.788135 0.370308 0.808865 0.236212
C381  C     C_1   0.669276 0.872671 0.715845 0.181933
C382  C     C_1   0.204793 0.868471 0.305400 0.243131
C383  C     C_1   0.195199 0.868965 0.697565 0.241757
C384  C     C_1   0.690329 0.872311 0.299069 0.179648
C385  C     C_1   0.291178 0.870396 0.191820 0.246790
C386  C     C_1   0.827832 0.870739 0.785429 0.180631
C387  C     C_1   0.811487 0.871857 0.202166 0.182535
C388  C     C_1   0.307891 0.868700 0.800819 0.246121
C389  C     C_1   0.055641 0.484145 0.813781 0.226431
C390  C     C_R   0.766913 0.353345 0.221330 -0.032570
C391  C     C_1   0.941853 0.524822 0.189465 0.187497
C392  C     C_1   0.954498 0.500030 0.813958 0.202858
C393  C     C_1   0.043067 0.541210 0.199296 0.164711
C394  C     C_1   0.558404 0.525492 0.310141 0.169151
C395  C     C_1   0.454026 0.488960 0.687382 0.216742
C396  C     C_1   0.457116 0.541799 0.300230 0.184161
C397  C     C_1   0.554739 0.472996 0.689742 0.232651
C398  C     C_1   0.555537 0.936783 0.769511 0.229300
C399  C     C_1   0.454082 0.987156 0.187797 0.218430
C400  C     C_1   0.457157 0.949696 0.787947 0.245943
C401  C     C_R   0.227985 0.352997 0.776871 -0.033510
C402  C     C_1   0.554609 0.970970 0.190626 0.232027
C403  C     C_1   0.043542 0.963136 0.300714 0.242153
C404  C     C_1   0.945553 0.969236 0.691500 0.242039
C405  C     C_1   0.945700 0.945243 0.288102 0.239689
C406  C     C_1   0.045688 0.986030 0.688180 0.221218
C407  C     C_1   0.046033 0.440406 0.775486 0.212073
C408  C     C_1   0.956604 0.467544 0.194108 0.222046
C409  C     C_1   0.945658 0.446789 0.790612 0.241581
C410  C     C_1   0.056409 0.485541 0.185304 0.202409
C411  C     C_1   0.543377 0.468185 0.306290 0.217173
C412  C     C_R   0.292839 0.354217 0.238915 -0.026134
C413  C     C_1   0.445196 0.440438 0.719470 0.225905
C414  C     C_1   0.443573 0.486290 0.314840 0.213838
C415  C     C_1   0.546126 0.436859 0.735407 0.194860
C416  C     C_1   0.541264 0.944994 0.712741 0.152216
C417  C     C_1   0.445021 0.939568 0.221258 0.224795
C418  C     C_1   0.440485 0.936917 0.731994 0.161246
C419  C     C_1   0.546008 0.936387 0.237479 0.192535
C420  C     C_1   0.058300 0.933376 0.251157 0.189714
C421  C     C_1   0.954332 0.936099 0.739320 0.187063
C422  C     C_1   0.957323 0.935754 0.231544 0.159086
C423  C     C_R   0.768728 0.353770 0.779102 -0.030175
C424  C     C_1   0.055189 0.939070 0.722567 0.230153
C425  C     C_1   0.046734 0.552269 0.786956 0.222086
C426  C     C_1   0.952333 0.564776 0.250918 0.238460
C427  C     C_1   0.942803 0.559906 0.771948 0.233821
C428  C     C_1   0.054862 0.563456 0.269201 0.264647
C429  C     C_1   0.547833 0.564721 0.248229 0.240236
C430  C     C_1   0.442067 0.555187 0.719404 0.238354
C431  C     C_1   0.445325 0.563240 0.230061 0.263161
C432  C     C_1   0.545707 0.544752 0.704604 0.211662
C433  C     C_1   0.544158 0.998579 0.811983 0.235900
C434  C     C_R   0.709561 0.855015 0.733263 -0.026354
C435  C     C_1   0.441944 0.054277 0.218013 0.237425
C436  C     C_1   0.442692 0.021197 0.809046 0.219715
C437  C     C_1   0.545478 0.043196 0.203245 0.221029
C438  C     C_1   0.057754 0.037389 0.298835 0.217080
C439  C     C_1   0.955302 0.041823 0.702069 0.209256
C440  C     C_1   0.955676 0.017719 0.308653 0.221083
C441  C     C_1   0.058511 0.053530 0.716914 0.224803
C442  C     C_1   0.045157 0.509817 0.688086 0.189594
C443  C     C_1   0.955677 0.472396 0.305469 0.148194
C444  C     C_1   0.943842 0.493365 0.686739 0.175860
C445  C     C_R   0.891105 0.500349 0.249663 0.807325
C446  C     C_R   0.227321 0.852957 0.276027 -0.033389
C447  C     C_1   0.057593 0.458827 0.295940 0.164889
C448  C     C_1   0.544312 0.471632 0.194890 0.148319
C449  C     C_1   0.443538 0.502347 0.814315 0.183350
C450  C     C_1   0.442358 0.458334 0.204605 0.169663
C451  C     C_1   0.543228 0.520688 0.809113 0.260760
C452  C     C_1   0.545062 0.055550 0.720481 0.197306
C453  C     C_1   0.443545 0.004008 0.314368 0.186279
C454  C     C_1   0.446219 0.047089 0.703310 0.261554
C455  C     C_1   0.543030 0.022482 0.308449 0.260907
C456  C     C_1   0.055004 0.029210 0.190439 0.216575
C457  C     C_R   0.222433 0.853129 0.724951 -0.031323
C458  C     C_1   0.956705 0.024095 0.807990 0.256701
C459  C     C_1   0.956071 0.043350 0.203901 0.210623
C460  C     C_1   0.056125 0.005529 0.814406 0.188503
C461  C     C_1   0.058141 0.454495 0.704460 0.164372
C462  C     C_1   0.943340 0.436810 0.260027 0.193082
C463  C     C_1   0.955333 0.444305 0.717634 0.166332
C464  C     C_1   0.044863 0.437845 0.241664 0.225027
C465  C     C_1   0.556493 0.436626 0.240795 0.193310
C466  C     C_1   0.456480 0.449427 0.791288 0.158011
C467  C     C_1   0.454970 0.437918 0.259074 0.223420
C468  C     C_R   0.720819 0.854881 0.274247 -0.028198
C469  C     C_1   0.558743 0.463338 0.803242 0.217690
C470  C     C_1   0.557279 0.010525 0.683783 0.218127
C471  C     C_1   0.456566 0.950517 0.292758 0.155654
C472  C     C_1   0.455746 0.991977 0.684611 0.233115
C473  C     C_1   0.558690 0.964994 0.304466 0.222394
C474  C     C_1   0.043986 0.971364 0.189309 0.163129
C475  C     C_1   0.941051 0.966643 0.805601 0.220375
C476  C     C_1   0.941633 0.989245 0.183813 0.197649
C477  C     C_1   0.043025 0.951574 0.793941 0.155689
C478  C     C_R   0.269995 0.853894 0.221116 -0.031302
C479  C     C_R   0.787818 0.854094 0.766755 -0.030117
C480  C     C_R   0.779931 0.854653 0.226598 -0.029471
C481  C     C_R   0.277493 0.852998 0.774811 -0.033391
C482  C     C_R   0.250046 0.371534 0.749809 -0.099596
C483  C     C_R   0.750078 0.371636 0.250050 -0.098570
C484  C     C_R   0.748878 0.371657 0.750929 -0.100115
C485  C     C_R   0.108873 0.500225 0.750372 0.801626
C486  C     C_R   0.249568 0.372363 0.250182 -0.076328
C487  C     C_R   0.749325 0.872416 0.749878 -0.072617
C488  C     C_R   0.249033 0.871713 0.249028 -0.096455
C489  C     C_R   0.250095 0.871474 0.749869 -0.103182
C490  C     C_R   0.750069 0.872558 0.250164 -0.070124
C491  C     C_R   0.253027 0.300788 0.750372 0.117430
C492  C     C_R   0.749655 0.300861 0.249980 0.119254
C493  C     C_R   0.748736 0.300968 0.752075 0.115359
C494  C     C_R   0.248436 0.301848 0.250134 0.106041
C495  C     C_R   0.747350 0.801969 0.749818 0.104402
C496  C     C_R   0.108829 0.501068 0.249043 0.789048
C497  C     C_R   0.248704 0.801123 0.247653 0.115897
C498  C     C_R   0.248085 0.800724 0.750601 0.117326
C499  C     C_R   0.750646 0.802168 0.250872 0.104615
C500  C     C_3   0.030516 0.476060 0.781037 -0.118375
C501  C     C_3   0.969427 0.499994 0.210749 -0.115018
C502  C     C_3   0.969956 0.480119 0.783873 -0.113967
C503  C     C_3   0.029919 0.506713 0.210856 -0.115899
C504  C     C_3   0.530630 0.500428 0.289238 -0.105371
C505  C     C_3   0.469719 0.474345 0.720368 -0.114094
C506  C     C_3   0.470145 0.507170 0.289067 -0.123616
C507  C     C_R   0.891222 0.499742 0.749989 0.794004
C508  C     C_3   0.530286 0.470868 0.723674 -0.110252
C509  C     C_3   0.529443 0.960266 0.745910 -0.124622
C510  C     C_3   0.469672 0.973443 0.221199 -0.113531
C511  C     C_3   0.469191 0.961377 0.753155 -0.102850
C512  C     C_3   0.530225 0.969996 0.224634 -0.109709
C513  C     C_3   0.030693 0.963514 0.264090 -0.107781
C514  C     C_3   0.969875 0.969360 0.725513 -0.115298
C515  C     C_3   0.970459 0.960605 0.258052 -0.116075
C516  C     C_3   0.030381 0.972872 0.721889 -0.111701
C517  C     C_3   0.029901 0.536063 0.755249 -0.257555
C518  C     C_R   0.891211 0.000108 0.749728 0.803050
C519  C     C_3   0.969546 0.533081 0.267101 -0.242672
C520  C     C_3   0.970593 0.536006 0.749776 -0.238523
C521  C     C_3   0.028676 0.530323 0.271749 -0.243715
C522  C     C_3   0.530521 0.532826 0.232471 -0.242090
C523  C     C_3   0.470292 0.535069 0.744800 -0.242732
C524  C     C_3   0.471388 0.530054 0.227889 -0.246248
C525  C     C_3   0.529550 0.534358 0.738826 -0.262693
C526  C     C_3   0.530058 0.016078 0.780416 -0.245100
C527  C     C_3   0.470261 0.034837 0.243889 -0.244553
C528  C     C_3   0.471175 0.022364 0.776690 -0.259821
H1    H     H_    0.046577 0.552600 0.735525 0.176766
H2    H     H_    0.463861 0.049613 0.267263 0.169619
H3    H     H_    0.466294 0.048910 0.768567 0.157358
H4    H     H_    0.546608 0.054204 0.253429 0.169446
H5    H     H_    0.034498 0.051563 0.251809 0.165825
H6    H     H_    0.953337 0.054335 0.751949 0.155925
H7    H     H_    0.952082 0.049140 0.267867 0.155193
H8    H     H_    0.036077 0.050050 0.766238 0.167944
H9    H     H_    0.291394 0.304522 0.702756 0.151363
H10   H     H_    0.720482 0.304366 0.300372 0.150175
H11   H     H_    0.712824 0.303628 0.703619 0.154622
H12   H     H_    0.952874 0.534776 0.292800 0.171766
H13   H     H_    0.171990 0.306032 0.270186 0.155702
H14   H     H_    0.779201 0.304348 0.199683 0.152125
H15   H     H_    0.213165 0.303860 0.797507 0.152143
H16   H     H_    0.325089 0.305085 0.230200 0.155706
H17   H     H_    0.783738 0.305095 0.800712 0.154317
H18   H     H_    0.678439 0.806482 0.720415 0.155239
H19   H     H_    0.211192 0.803607 0.295657 0.155384
H20   H     H_    0.200566 0.804178 0.706773 0.152580
H21   H     H_    0.698721 0.806082 0.292850 0.154564
H22   H     H_    0.285660 0.805290 0.199604 0.154632
H23   H     H_    0.963766 0.546270 0.724148 0.172518
H24   H     H_    0.816171 0.804835 0.779531 0.155017
H25   H     H_    0.802837 0.805658 0.208984 0.154973
H26   H     H_    0.296804 0.803932 0.793887 0.152797
H27   H     H_    0.307961 0.584999 0.338654 0.341721
H28   H     H_    0.689668 0.584539 0.661282 0.342514
H29   H     H_    0.876671 0.423968 0.372578 0.356101
H30   H     H_    0.325881 0.578117 0.662377 0.347792
H31   H     H_    0.613946 0.565333 0.873588 0.360262
H32   H     H_    0.373382 0.421487 0.124534 0.362624
H33   H     H_    0.191998 0.585376 0.837833 0.343058
H34   H     H_    0.035477 0.522868 0.298329 0.163034
H35   H     H_    0.820494 0.579619 0.164692 0.343313
H36   H     H_    0.612191 0.064882 0.372925 0.360234
H37   H     H_    0.369492 0.078164 0.629889 0.354675
H38   H     H_    0.191122 0.084925 0.335272 0.340811
H39   H     H_    0.838778 0.071180 0.664559 0.340445
H40   H     H_    0.293263 0.089757 0.839780 0.342078
H41   H     H_    0.708768 0.090525 0.163474 0.342977
H42   H     H_    0.878453 0.072274 0.870300 0.358270
H43   H     H_    0.323589 0.079174 0.162610 0.347263
H44   H     H_    0.547166 0.534182 0.206742 0.171700
H45   H     H_    0.463785 0.549204 0.768556 0.169562
H46   H     H_    0.464522 0.522299 0.201404 0.164631
H47   H     H_    0.546556 0.554133 0.755110 0.169117
H48   H     H_    0.548711 0.041092 0.783001 0.136092
N1    N     N_1   0.387182 0.212441 0.750931 -0.169636
N2    N     N_1   0.198668 0.716715 0.328037 -0.168414
N3    N     N_1   0.053348 0.567953 0.189974 -0.159224
N4    N     N_1   0.579989 0.544900 0.326549 -0.167216
N5    N     N_1   0.441774 0.500031 0.661682 -0.142368
N6    N     N_1   0.446916 0.568651 0.309247 -0.156557
N7    N     N_1   0.573717 0.474426 0.663430 -0.145821
N8    N     N_1   0.575685 0.918336 0.787742 -0.142195
N9    N     N_1   0.441913 0.997526 0.161789 -0.143850
N10   N     N_1   0.447734 0.940375 0.814850 -0.149693
N11   N     N_1   0.573517 0.971509 0.164258 -0.151158
N12   N     N_1   0.053565 0.962579 0.329076 -0.149778
N13   N     N_1   0.115095 0.713304 0.741266 -0.166036
N14   N     N_1   0.926713 0.968938 0.665138 -0.140162
N15   N     N_1   0.926824 0.932690 0.311273 -0.140961
N16   N     N_1   0.057420 0.996080 0.661943 -0.166346
N17   N     N_1   0.058112 0.412671 0.771596 -0.157276
N18   N     N_1   0.946626 0.442490 0.180812 -0.146305
N19   N     N_1   0.926861 0.420978 0.796091 -0.145349
N20   N     N_1   0.076920 0.469260 0.165243 -0.141105
N21   N     N_1   0.553294 0.443295 0.319906 -0.148981
N22   N     N_1   0.426144 0.414157 0.718492 -0.156826
N23   N     N_1   0.422996 0.470232 0.335067 -0.139175
N24   N     N_1   0.786144 0.714490 0.335220 -0.166961
N25   N     N_1   0.558494 0.410314 0.744155 -0.164889
N26   N     N_1   0.550098 0.932793 0.686941 -0.141029
N27   N     N_1   0.425857 0.913304 0.221022 -0.157456
N28   N     N_1   0.418031 0.917787 0.715737 -0.174894
N29   N     N_1   0.558341 0.910143 0.247113 -0.161666
N30   N     N_1   0.079869 0.909907 0.241339 -0.169407
N31   N     N_1   0.942335 0.910049 0.749648 -0.155884
N32   N     N_1   0.947108 0.916008 0.211233 -0.151843
N33   N     N_1   0.074444 0.912851 0.722839 -0.154785
N34   N     N_1   0.059931 0.565171 0.811561 -0.147723
N35   N     N_1   0.295597 0.713624 0.165493 -0.171618
N36   N     N_1   0.938854 0.589585 0.238561 -0.171193
N37   N     N_1   0.921172 0.578517 0.789258 -0.179687
N38   N     N_1   0.075276 0.589238 0.267389 -0.165750
N39   N     N_1   0.561383 0.589682 0.260250 -0.167718
N40   N     N_1   0.420120 0.570924 0.699626 -0.164700
N41   N     N_1   0.425016 0.589062 0.231583 -0.164447
N42   N     N_1   0.558382 0.553145 0.677985 -0.141793
N43   N     N_1   0.554995 0.985166 0.836793 -0.158698
N44   N     N_1   0.419917 0.069488 0.197866 -0.160610
N45   N     N_1   0.420415 0.020402 0.834233 -0.139319
N46   N     N_1   0.616517 0.713699 0.767887 -0.166692
N47   N     N_1   0.558016 0.050718 0.176339 -0.142288
N48   N     N_1   0.080034 0.044167 0.323061 -0.132137
N49   N     N_1   0.943458 0.048489 0.674831 -0.145079
N50   N     N_1   0.944403 0.012832 0.336378 -0.164715
N51   N     N_1   0.080832 0.068153 0.696416 -0.177339
N52   N     N_1   0.056240 0.528614 0.667062 -0.156858
N53   N     N_1   0.944679 0.475290 0.333539 -0.151162
N54   N     N_1   0.923516 0.503421 0.662901 -0.157005
N55   N     N_1   0.078662 0.453006 0.320882 -0.171432
N56   N     N_1   0.555366 0.474128 0.166788 -0.169722
N57   N     N_1   0.712886 0.716115 0.167451 -0.160893
N58   N     N_1   0.423047 0.515566 0.836521 -0.149001
N59   N     N_1   0.421282 0.452282 0.179736 -0.156591
N60   N     N_1   0.552427 0.543543 0.826054 -0.165871
N61   N     N_1   0.556108 0.083514 0.724029 -0.177597
N62   N     N_1   0.423087 0.017781 0.336247 -0.147994
N63   N     N_1   0.427780 0.072409 0.695611 -0.157005
N64   N     N_1   0.552106 0.045905 0.324620 -0.173044
N65   N     N_1   0.074267 0.050822 0.175541 -0.138965
N66   N     N_1   0.947351 0.047806 0.823701 -0.167732
N67   N     N_1   0.945901 0.071123 0.198336 -0.147047
N68   N     N_1   0.379655 0.715497 0.761738 -0.167553
N69   N     N_1   0.076487 0.019767 0.835999 -0.145158
N70   N     N_1   0.079462 0.430445 0.695901 -0.168327
N71   N     N_1   0.922732 0.411989 0.253052 -0.156397
N72   N     N_1   0.943872 0.416187 0.717433 -0.163109
N73   N     N_1   0.055949 0.415420 0.224583 -0.146768
N74   N     N_1   0.577007 0.411876 0.248096 -0.160151
N75   N     N_1   0.445917 0.421551 0.796006 -0.163551
N76   N     N_1   0.443777 0.415675 0.276378 -0.150284
N77   N     N_1   0.580703 0.441532 0.816036 -0.155951
N78   N     N_1   0.577918 0.003924 0.658839 -0.161655
N79   N     N_1   0.232064 0.413380 0.463312 -0.154022
N80   N     N_1   0.446088 0.922768 0.298247 -0.162790
N81   N     N_1   0.444666 0.974629 0.662396 -0.116558
N82   N     N_1   0.580591 0.943638 0.318022 -0.137093
N83   N     N_1   0.055008 0.948195 0.173235 -0.159300
N84   N     N_1   0.919099 0.945833 0.819986 -0.140021
N85   N     N_1   0.920017 0.975328 0.162540 -0.169113
N86   N     N_1   0.053352 0.923932 0.800012 -0.163498
N87   N     N_1   0.776760 0.415120 0.536015 -0.159051
N88   N     N_1   0.673932 0.571630 0.463180 -0.155969
N89   N     N_1   0.616594 0.213723 0.243046 -0.164962
N90   N     N_1   0.197767 0.419424 0.537157 -0.153868
N91   N     N_1   0.871296 0.461107 0.964770 -0.163767
N92   N     N_1   0.170566 0.571998 0.038066 -0.156562
N93   N     N_1   0.270628 0.415662 0.964849 -0.158490
N94   N     N_1   0.704030 0.418673 0.036801 -0.163293
N95   N     N_1   0.869639 0.963424 0.466130 -0.161648
N96   N     N_1   0.137699 0.953396 0.534083 -0.160442
N97   N     N_1   0.272427 0.917962 0.465842 -0.163160
N98   N     N_1   0.685606 0.924206 0.536942 -0.162435
N99   N     N_1   0.245996 0.913656 0.964324 -0.155078
N100  N     N_1   0.725175 0.216004 0.666309 -0.167754
N101  N     N_1   0.745267 0.917366 0.033339 -0.162548
N102  N     N_1   0.636978 0.954705 0.966226 -0.161482
N103  N     N_1   0.199983 0.919556 0.036615 -0.154658
N104  N     N_1   0.228346 0.413971 0.363003 -0.172305
N105  N     N_1   0.782009 0.415477 0.636521 -0.179998
N106  N     N_1   0.676108 0.572157 0.362476 -0.167274
N107  N     N_1   0.201033 0.418979 0.637691 -0.177299
N108  N     N_1   0.871232 0.459111 0.865898 -0.156875
N109  N     N_1   0.170612 0.569740 0.139061 -0.180266
N110  N     N_1   0.277210 0.415015 0.864414 -0.180023
N111  N     N_1   0.380501 0.215700 0.258786 -0.168542
N112  N     N_1   0.699016 0.419864 0.137602 -0.182965
N113  N     N_1   0.872253 0.961782 0.367606 -0.138484
N114  N     N_1   0.139791 0.947656 0.632671 -0.147205
N115  N     N_1   0.280040 0.915814 0.365209 -0.178272
N116  N     N_1   0.686688 0.923747 0.637835 -0.167736
N117  N     N_1   0.240003 0.912996 0.864184 -0.176845
N118  N     N_1   0.749760 0.913342 0.133573 -0.162697
N119  N     N_1   0.642523 0.945262 0.867836 -0.138815
N120  N     N_1   0.202925 0.918646 0.137204 -0.178747
N121  N     N_1   0.269844 0.586440 0.464612 -0.132354
N122  N     N_1   0.882546 0.214199 0.256356 -0.164533
N123  N     N_1   0.724471 0.586350 0.535714 -0.138284
N124  N     N_1   0.829464 0.429828 0.464511 -0.142710
N125  N     N_1   0.304756 0.579893 0.536208 -0.138406
N126  N     N_1   0.633082 0.537911 0.967287 -0.150310
N127  N     N_1   0.327989 0.431298 0.034022 -0.141100
N128  N     N_1   0.224548 0.587593 0.963570 -0.139181
N129  N     N_1   0.804478 0.579995 0.035371 -0.143795
N130  N     N_1   0.628828 0.036593 0.466198 -0.149502
N131  N     N_1   0.354787 0.053644 0.533648 -0.148123
N132  N     N_1   0.217638 0.088589 0.461691 -0.144691
N133  N     N_1   0.120662 0.215906 0.752875 -0.169000
N134  N     N_1   0.817640 0.075511 0.535512 -0.144939
N135  N     N_1   0.253639 0.088349 0.963994 -0.135802
N136  N     N_1   0.741628 0.091611 0.038462 -0.144053
N137  N     N_1   0.857106 0.052017 0.965827 -0.146756
N138  N     N_1   0.299405 0.081847 0.036163 -0.140067
N139  N     N_1   0.384700 0.112030 0.756158 -0.184762
N140  N     N_1   0.616604 0.113062 0.240971 -0.189201
N141  N     N_1   0.725033 0.116125 0.663627 -0.118856
N142  N     N_1   0.383523 0.115709 0.258779 -0.176145
N143  N     N_1   0.883215 0.113561 0.258703 -0.187353
N144  N     N_1   0.115201 0.213782 0.242817 -0.166977
N145  N     N_1   0.116378 0.115891 0.753841 -0.178640
N146  N     N_1   0.115318 0.113419 0.245782 -0.179529
N147  N     N_1   0.766277 0.113054 0.838144 -0.136241
N148  N     N_1   0.880151 0.617071 0.727537 -0.166191
N149  N     N_1   0.194063 0.617578 0.330487 -0.108616
N150  N     N_1   0.115222 0.613142 0.743698 -0.185275
N151  N     N_1   0.780887 0.614710 0.336458 -0.159857
N152  N     N_1   0.289751 0.614030 0.164485 -0.158333
N153  N     N_1   0.616220 0.613736 0.764438 -0.183534
N154  N     N_1   0.709890 0.616592 0.165692 -0.118165
N155  N     N_1   0.771157 0.213175 0.838321 -0.169945
N156  N     N_1   0.383254 0.615636 0.760936 -0.175490
N157  N     N_1   0.310818 0.382385 0.669566 -0.155542
N158  N     N_1   0.704080 0.382490 0.334209 -0.122345
N159  N     N_1   0.688202 0.380852 0.670564 -0.153661
N160  N     N_1   0.125771 0.386056 0.284811 -0.176485
N161  N     N_1   0.798071 0.382395 0.166320 -0.152365
N162  N     N_1   0.182975 0.381229 0.828037 -0.152202
N163  N     N_1   0.373930 0.384611 0.215887 -0.172849
N164  N     N_1   0.803677 0.383477 0.832728 -0.158053
N165  N     N_1   0.636935 0.886753 0.701850 -0.165601
N166  N     N_1   0.876173 0.716563 0.729123 -0.165726
N167  N     N_1   0.186519 0.880759 0.328916 -0.151585
N168  N     N_1   0.173364 0.881495 0.675561 -0.153061
N169  N     N_1   0.665965 0.886270 0.318992 -0.160203
N170  N     N_1   0.308227 0.883503 0.168339 -0.154334
N171  N     N_1   0.859840 0.883942 0.800594 -0.156325
N172  N     N_1   0.836859 0.885642 0.182647 -0.163754
N173  N     N_1   0.332436 0.881126 0.821630 -0.147468
N174  N     N_1   0.075199 0.490198 0.839205 -0.143505
N175  N     N_1   0.920561 0.544064 0.172712 -0.138364
N176  N     N_1   0.942619 0.515354 0.837466 -0.170821
O1    O     O_3   0.250000 0.500050 0.750000 -0.504741
O2    O     O_R   0.633170 0.480430 0.269560 -0.640741
O3    O     O_R   0.866830 0.019670 0.230330 -0.638829
O4    O     O_R   0.366830 0.019670 0.269670 -0.636414
O5    O     O_R   0.633170 0.019670 0.730330 -0.641815
O6    O     O_R   0.633170 0.019670 0.269670 -0.625929
O7    O     O_R   0.366830 0.019670 0.730330 -0.632155
O8    O     O_2   0.251531 0.589303 0.386123 -0.598817
O9    O     O_R   0.303203 0.562011 0.349220 -0.813353
O10   O     O_2   0.749663 0.588959 0.615649 -0.597719
O11   O     O_R   0.694156 0.561748 0.650265 -0.808329
O12   O     O_2   0.791585 0.434707 0.352565 -0.627855
O13   O     O_R   0.633170 0.480430 0.730440 -0.638661
O14   O     O_R   0.859889 0.441796 0.387102 -0.775834
O15   O     O_2   0.271806 0.587524 0.614591 -0.595300
O16   O     O_R   0.317064 0.555796 0.651533 -0.805238
O17   O     O_2   0.635034 0.507039 0.863769 -0.616265
O18   O     O_R   0.647066 0.559428 0.885441 -0.779998
O19   O     O_2   0.290139 0.434564 0.146510 -0.616947
O20   O     O_R   0.357604 0.440388 0.110941 -0.776345
O21   O     O_2   0.251551 0.589316 0.883668 -0.597452
O22   O     O_R   0.195605 0.562616 0.849053 -0.806971
O23   O     O_2   0.776742 0.588220 0.112543 -0.597476
O24   O     O_R   0.366830 0.480430 0.269560 -0.633440
O25   O     O_R   0.811624 0.557075 0.154324 -0.810222
O26   O     O_2   0.634104 0.006774 0.362555 -0.615610
O27   O     O_R   0.645210 0.058986 0.384877 -0.781953
O28   O     O_2   0.363922 0.017998 0.634290 -0.614025
O29   O     O_R   0.337752 0.069917 0.617716 -0.780708
O30   O     O_2   0.248217 0.089986 0.382302 -0.597290
O31   O     O_R   0.194797 0.062311 0.346777 -0.806199
O32   O     O_2   0.795118 0.084920 0.613476 -0.596912
O33   O     O_R   0.824884 0.049898 0.653906 -0.810797
O34   O     O_2   0.230039 0.087913 0.883715 -0.596258
O35   O     O_R   0.866830 0.480430 0.230440 -0.631616
O36   O     O_R   0.293700 0.066825 0.850902 -0.808139
O37   O     O_2   0.770337 0.088966 0.118514 -0.595506
O38   O     O_R   0.707232 0.067877 0.151829 -0.805623
O39   O     O_2   0.864841 0.012610 0.864839 -0.613937
O40   O     O_R   0.845891 0.065576 0.882505 -0.776144
O41   O     O_2   0.268754 0.088162 0.115110 -0.594734
O42   O     O_R   0.315396 0.056815 0.151632 -0.804956
O43   O     O_R   0.133170 0.480430 0.769560 -0.638310
O44   O     O_R   0.133170 0.480430 0.230440 -0.640483
O45   O     O_R   0.866830 0.480430 0.769560 -0.643380
O46   O     O_R   0.866830 0.980430 0.730440 -0.634741
O47   O     O_R   0.133170 0.980430 0.269560 -0.634118
O48   O     O_R   0.133170 0.980430 0.730440 -0.642863
O49   O     O_3   0.750000 0.500050 0.250000 -0.504527
O50   O     O_R   0.866830 0.980430 0.269560 -0.638576
O51   O     O_R   0.366830 0.980430 0.230440 -0.638314
O52   O     O_R   0.633170 0.980430 0.769560 -0.634641
O53   O     O_R   0.633170 0.980430 0.230440 -0.639775
O54   O     O_R   0.366830 0.980430 0.769560 -0.632653
O55   O     O_R   0.280630 0.519680 0.824880 -0.627308
O56   O     O_R   0.719370 0.519680 0.175120 -0.628911
O57   O     O_R   0.719370 0.519680 0.824880 -0.615918
O58   O     O_R   0.280630 0.519680 0.175120 -0.636695
O59   O     O_R   0.780630 0.519680 0.324880 -0.636703
O60   O     O_3   0.750000 0.500050 0.750000 -0.503683
O61   O     O_R   0.219370 0.519680 0.675120 -0.631177
O62   O     O_R   0.219370 0.519680 0.324880 -0.627699
O63   O     O_R   0.780630 0.519680 0.675120 -0.626875
O64   O     O_R   0.780630 0.019680 0.824880 -0.616096
O65   O     O_R   0.219370 0.019680 0.175120 -0.632965
O66   O     O_R   0.219370 0.019680 0.824880 -0.624969
O67   O     O_R   0.780630 0.019680 0.175120 -0.625190
O68   O     O_R   0.280630 0.019680 0.324880 -0.627950
O69   O     O_R   0.719370 0.019680 0.675120 -0.631260
O70   O     O_R   0.719370 0.019680 0.324880 -0.617752
O71   O     O_3   0.250000 0.500050 0.250000 -0.507307
O72   O     O_R   0.280630 0.019680 0.675120 -0.617058
O73   O     O_R   0.280620 0.574880 0.769680 -0.624200
O74   O     O_R   0.719380 0.574880 0.230320 -0.629243
O75   O     O_R   0.719380 0.574880 0.769680 -0.630107
O76   O     O_R   0.280620 0.574880 0.230320 -0.631630
O77   O     O_R   0.780620 0.574880 0.269680 -0.631963
O78   O     O_R   0.219380 0.574880 0.730320 -0.624485
O79   O     O_R   0.219380 0.574880 0.269680 -0.630424
O80   O     O_R   0.780620 0.574880 0.730320 -0.625723
O81   O     O_R   0.780620 0.074880 0.769680 -0.633849
O82   O     O_3   0.750000 0.000050 0.750000 -0.503263
O83   O     O_R   0.219380 0.074880 0.230320 -0.620664
O84   O     O_R   0.219380 0.074880 0.769680 -0.624452
O85   O     O_R   0.780620 0.074880 0.230320 -0.621142
O86   O     O_R   0.280620 0.074880 0.269680 -0.622817
O87   O     O_R   0.719380 0.074880 0.730320 -0.629369
O88   O     O_R   0.719380 0.074880 0.269680 -0.630746
O89   O     O_R   0.280620 0.074880 0.730320 -0.626506
O90   O     O_R   0.280640 0.425230 0.730430 -0.634822
O91   O     O_R   0.719360 0.425230 0.269570 -0.619760
O92   O     O_R   0.719360 0.425230 0.730430 -0.634149
O93   O     O_3   0.250000 0.000050 0.250000 -0.505102
O94   O     O_R   0.280640 0.425230 0.269570 -0.632058
O95   O     O_R   0.780640 0.425230 0.230430 -0.632952
O96   O     O_R   0.219360 0.425230 0.769570 -0.633903
O97   O     O_R   0.219360 0.425230 0.230430 -0.610449
O98   O     O_R   0.780640 0.425230 0.769570 -0.630117
O99   O     O_R   0.780640 0.925230 0.730430 -0.631848
O100  O     O_R   0.219360 0.925230 0.269570 -0.635591
O101  O     O_R   0.219360 0.925230 0.730430 -0.632205
O102  O     O_R   0.780640 0.925230 0.269570 -0.631499
O103  O     O_R   0.280640 0.925230 0.230430 -0.635863
O104  O     O_3   0.250000 0.000050 0.750000 -0.504237
O105  O     O_R   0.719360 0.925230 0.769570 -0.628185
O106  O     O_R   0.719360 0.925230 0.230430 -0.628243
O107  O     O_R   0.280640 0.925230 0.769570 -0.634436
O108  O     O_R   0.219380 0.480450 0.824880 -0.620711
O109  O     O_R   0.780620 0.480450 0.175120 -0.619544
O110  O     O_R   0.780620 0.480450 0.824880 -0.635375
O111  O     O_R   0.219380 0.480450 0.175120 -0.598650
O112  O     O_R   0.719380 0.480450 0.324880 -0.600750
O113  O     O_R   0.280620 0.480450 0.675120 -0.614936
O114  O     O_R   0.280620 0.480450 0.324880 -0.622926
O115  O     O_3   0.750000 0.000050 0.250000 -0.504893
O116  O     O_R   0.719380 0.480450 0.675120 -0.619088
O117  O     O_R   0.719380 0.980450 0.824880 -0.636602
O118  O     O_R   0.280620 0.980450 0.175120 -0.615296
O119  O     O_R   0.280620 0.980450 0.824880 -0.621910
O120  O     O_R   0.719380 0.980450 0.175120 -0.626647
O121  O     O_R   0.219380 0.980450 0.324880 -0.618530
O122  O     O_R   0.780620 0.980450 0.675120 -0.612783
O123  O     O_R   0.780620 0.980450 0.324880 -0.633431
O124  O     O_R   0.219380 0.980450 0.675120 -0.635395
O125  O     O_R   0.366830 0.519670 0.769670 -0.636088
O126  O     O_R   0.366830 0.480430 0.730440 -0.638369
O127  O     O_R   0.633170 0.519670 0.230330 -0.647175
O128  O     O_R   0.633170 0.519670 0.769670 -0.627318
O129  O     O_R   0.366830 0.519670 0.230330 -0.637571
O130  O     O_R   0.866830 0.519670 0.269670 -0.642964
O131  O     O_R   0.133170 0.519670 0.730330 -0.639840
O132  O     O_R   0.133170 0.519670 0.269670 -0.641912
O133  O     O_R   0.866830 0.519670 0.730330 -0.635310
O134  O     O_R   0.866830 0.019670 0.769670 -0.631547
O135  O     O_R   0.133170 0.019670 0.230330 -0.640157
O136  O     O_R   0.133170 0.019670 0.769670 -0.636023
Zn1   Zn    Zn3+2 0.206240 0.472030 0.778080 1.021686
Zn2   Zn    Zn3+2 0.293760 0.972030 0.221920 1.022611
Zn3   Zn    Zn3+2 0.293760 0.972030 0.778080 1.023965
Zn4   Zn    Zn3+2 0.706240 0.972030 0.221920 1.025388
Zn5   Zn    Zn3+2 0.206240 0.972030 0.278080 1.023036
Zn6   Zn    Zn3+2 0.793760 0.972030 0.721920 1.030015
Zn7   Zn    Zn3+2 0.793760 0.972030 0.278080 1.007806
Zn8   Zn    Zn3+2 0.206240 0.972030 0.721920 1.006089
Zn9   Zn    Zn3+2 0.293760 0.528090 0.778080 1.029344
Zn10  Zn    Zn3+2 0.706240 0.528090 0.221920 1.012405
Zn11  Zn    Zn3+2 0.706240 0.528090 0.778080 1.032220
Zn12  Zn    Zn3+2 0.793760 0.472030 0.221920 1.035541
Zn13  Zn    Zn3+2 0.293760 0.528090 0.221920 1.019763
Zn14  Zn    Zn3+2 0.793760 0.528090 0.278080 1.018635
Zn15  Zn    Zn3+2 0.206240 0.528090 0.721920 1.027268
Zn16  Zn    Zn3+2 0.206240 0.528090 0.278080 1.013952
Zn17  Zn    Zn3+2 0.793760 0.528090 0.721920 1.021975
Zn18  Zn    Zn3+2 0.793760 0.028090 0.778080 1.024475
Zn19  Zn    Zn3+2 0.206240 0.028090 0.221920 1.028485
Zn20  Zn    Zn3+2 0.206240 0.028090 0.778080 1.023449
Zn21  Zn    Zn3+2 0.793760 0.028090 0.221920 1.023068
Zn22  Zn    Zn3+2 0.293760 0.028090 0.278080 1.030907
Zn23  Zn    Zn3+2 0.793760 0.472030 0.778080 1.008549
Zn24  Zn    Zn3+2 0.706240 0.028090 0.721920 1.012526
Zn25  Zn    Zn3+2 0.706240 0.028090 0.278080 1.031776
Zn26  Zn    Zn3+2 0.293760 0.028090 0.721920 1.032820
Zn27  Zn    Zn3+2 0.206240 0.472030 0.221920 1.040667
Zn28  Zn    Zn3+2 0.706240 0.472030 0.278080 1.034547
Zn29  Zn    Zn3+2 0.293760 0.472030 0.721920 1.024796
Zn30  Zn    Zn3+2 0.293760 0.472030 0.278080 1.033516
Zn31  Zn    Zn3+2 0.706240 0.472030 0.721920 1.025463
Zn32  Zn    Zn3+2 0.706240 0.972030 0.778080 1.007493

loop_
_geom_bond_atom_site_label_1
_geom_bond_atom_site_label_2
_ccdc_geom_bond_type
C95   C317  S    
C199  C488  S    
O46   Zn6   S    
C66   O61   A    
C295  N98   T    
C76   C105  S    
C219  C254  A    
C471  N80   T    
C186  O74   A    
C132  C150  A    
C312  C495  A    
C213  C253  A    
C133  C151  A    
C331  O36   S    
C388  N173  T    
C27   C519  S    
C202  O106  A    
C235  H16   S    
O43   Zn1   S    
C118  C136  A    
C340  N125  T    
C49   C288  S    
C257  C495  A    
C218  C281  S    
C133  C338  S    
C3    C437  S    
O75   Zn11  S    
C216  C253  A    
C168  C491  A    
C348  N132  T    
O73   Zn9   S    
C113  C494  S    
C415  C508  S    
C26   C485  S    
C147  C164  A    
C208  C227  A    
C465  N74   T    
C235  C494  A    
O66   Zn20  S    
C92   C109  A    
C207  C270  S    
C517  H1    S    
C83   C305  S    
O85   Zn21  S    
O88   Zn25  S    
C304  N107  T    
C37   C68   S    
O1    Zn29  S    
C94   C111  A    
C424  N33   T    
C210  C273  S    
C282  N68   T    
C421  C514  S    
C105  C123  A    
C24   O3    A    
C114  C131  A    
C7    C42   S    
C469  N77   T    
C480  C490  A    
C182  C183  T    
O104  Zn20  S    
C317  N120  T    
O93   Zn2   S    
C19   C37   S    
O117  Zn32  S    
C407  C500  S    
C33   C508  S    
O49   Zn14  S    
C7    C441  S    
H32   O20   S    
C203  C248  A    
C213  C275  S    
C78   C96   A    
O50   Zn7   S    
O44   Zn27  S    
C215  C233  A    
C454  N63   T    
C305  N108  T    
C2    O135  A    
C325  O22   S    
C217  C252  A    
C299  N103  T    
C52   C87   A    
C330  O33   S    
C85   C103  A    
C172  C175  T    
C338  N123  T    
C85   C307  S    
C402  C512  S    
C86   C308  S    
O115  Zn25  S    
C58   C164  A    
C35   O4    A    
C420  C513  S    
C24   C41   S    
C146  C498  S    
C187  O80   A    
C55   C91   A    
C362  N147  T    
C89   C311  S    
C335  H26   S    
H30   O16   S    
C13   C42   S    
C116  C319  S    
C479  C487  A    
C32   C524  S    
C92   C314  S    
C417  N27   T    
C91   C313  S    
O24   Zn30  S    
C485  O131  A    
O61   Zn15  S    
C67   O62   A    
C80   C302  S    
C165  C183  S    
C15   C32   S    
C166  C184  S    
C411  N21   T    
C323  C499  A    
O98   Zn23  S    
C167  C171  T    
C116  C133  A    
C47   C153  A    
C225  C242  A    
C416  N26   T    
C266  N89   T    
C125  C328  S    
C4    H5    S    
C415  N25   T    
C431  C524  S    
C522  H44   S    
C460  N69   T    
C268  C497  A    
C51   C291  S    
O49   Zn28  S    
C251  C260  S    
C517  C520  S    
O53   Zn4   S    
C152  C170  S    
C13   O48   A    
C10   C444  S    
C18   C471  S    
C525  H47   S    
C119  C322  S    
C189  O87   A    
C425  C517  S    
C148  C352  S    
C201  C494  A    
O124  Zn8   S    
C279  C498  A    
C7    H8    S    
C63   O110  A    
C276  N13   T    
C54   C89   A    
C306  N109  T    
C43   C283  S    
C293  N96   T    
C375  C379  S    
C234  C367  S    
O65   Zn19  S    
C126  C329  S    
C189  C241  S    
C26   C500  S    
C131  C149  A    
C120  C138  A    
C17   C34   S    
C485  O43   A    
C90   C258  T    
C386  N171  T    
O93   Zn5   S    
O71   Zn30  S    
O57   Zn11  S    
C19   C472  S    
C300  N104  T    
C476  N85   T    
C53   C293  S    
C200  O107  A    
C475  N84   T    
C42   C516  S    
C501  C503  S    
C397  N7    T    
C292  N95   T    
C1    O125  A    
C70   O64   A    
C49   C155  A    
C73   O120  A    
C45   C81   A    
C414  C506  S    
C351  N136  T    
C17   C452  S    
C273  N155  T    
C236  C369  S    
C413  N22   T    
H33   O22   S    
O3    Zn21  S    
C25   C477  S    
O120  Zn4   S    
C37   C528  S    
O91   Zn28  S    
C268  C446  A    
C308  N112  T    
C29   C496  S    
C185  O73   A    
C96   C115  A    
C23   C41   S    
C222  C356  S    
O89   Zn26  S    
C357  C373  S    
O79   Zn16  S    
C405  N15   T    
C424  C516  S    
C481  C489  A    
C230  C363  S    
C389  C500  S    
C384  C468  S    
O7    Zn26  S    
C368  C374  S    
C463  N72   T    
C339  N124  T    
C120  C324  S    
C179  C492  A    
O131  Zn15  S    
O74   Zn10  S    
C528  H3    S    
C199  O103  A    
C6    H7    S    
H35   O25   S    
C238  C245  A    
C210  C229  A    
C453  N62   T    
C321  O15   D    
C323  C480  A    
C128  C145  A    
C455  N64   T    
C129  C147  A    
C195  O91   A    
O71   Zn16  S    
C22   C458  S    
O62   Zn16  S    
C75   O69   A    
C60   C95   A    
C298  N102  T    
C280  N46   T    
C367  N152  T    
C8    C10   S    
C81   C98   A    
C30   C112  S    
C397  C508  S    
O113  Zn29  S    
C435  N44   T    
O127  Zn10  S    
C363  N148  T    
C95   C114  A    
C201  C379  A    
O134  Zn18  S    
C115  C318  S    
O76   Zn13  S    
C143  C161  A    
C122  C326  S    
C361  N146  T    
C234  C244  A    
O115  Zn4   S    
C87   C309  S    
C527  H2    S    
C371  N156  T    
C10   C463  S    
C395  N5    T    
C368  C484  A    
C211  C230  A    
C394  N4    T    
C80   C97   A    
C163  C181  S    
C193  O88   A    
C347  N131  T    
C462  N71   T    
C126  C143  A    
C448  N56   T    
C14   C31   S    
O126  Zn29  S    
C86   C104  A    
C128  C331  S    
C45   C285  S    
C73   C110  S    
C411  C504  S    
O60   Zn11  S    
C64   C102  S    
C106  C125  A    
O118  Zn2   S    
C428  C521  S    
C398  C509  S    
C436  N45   T    
C279  C457  A    
O58   Zn13  S    
O110  Zn23  S    
C49   C84   A    
C77   C106  S    
C40   C514  S    
C14   C449  S    
C459  N67   T    
C327  O26   D    
C392  N176  T    
C473  N82   T    
C48   C287  S    
C426  N36   T    
C335  C498  A    
C197  O97   A    
C11   C464  S    
C150  C167  S    
H31   O18   S    
O45   Zn23  S    
C420  N30   T    
C134  C152  A    
C1    C31   S    
O5    Zn24  S    
O1    Zn1   S    
C232  C365  S    
C237  C247  A    
C110  C129  A    
C20   C473  S    
C422  N32   T    
C409  N19   T    
H27   O9    S    
C23   C476  S    
C510  C512  S    
C205  C250  A    
C207  C226  A    
C406  C516  S    
C374  N159  T    
C425  N34   T    
C141  C159  A    
C217  C280  S    
C205  C267  S    
C64   O111  A    
C500  C502  S    
C322  O18   S    
C22   C25   S    
C309  N113  T    
H40   O36   S    
C313  N116  T    
C287  N91   T    
O90   Zn29  S    
C402  N11   T    
C145  C350  S    
C113  C260  T    
C346  C372  S    
C387  N172  T    
O109  Zn12  S    
C162  C180  S    
C213  C231  A    
C72   O66   A    
C57   O6    A    
C451  N60   T    
C56   C296  S    
C78   C300  S    
C200  O101  A    
C157  C499  S    
C433  N43   T    
C323  H25   S    
C74   O121  A    
C326  O23   D    
C145  C163  A    
C334  O24   A    
C188  O79   A    
C400  N10   T    
C81   C303  S    
C36   C527  S    
C82   C304  S    
C432  C525  S    
C62   C104  S    
C115  C132  A    
C77   O124  A    
C16   C469  S    
C400  C511  S    
H39   O33   S    
O60   Zn31  S    
C286  N90   T    
O111  Zn27  S    
C279  H20   S    
C496  O44   A    
C507  O133  A    
C408  N18   T    
C296  N99   T    
O52   Zn32  S    
O115  Zn7   S    
C27   C445  S    
C137  C341  S    
O71   Zn13  S    
C403  N12   T    
C5    C439  S    
C132  C337  S    
C214  C276  S    
C426  C519  S    
C513  C515  S    
C416  C509  S    
C208  C248  A    
C179  H10   S    
C336  O42   S    
C204  C266  S    
C59   C298  S    
C223  O13   A    
H28   O11   S    
O108  Zn1   S    
C225  C358  S    
C87   C105  A    
C356  N141  T    
C25   C460  S    
C409  C502  S    
C437  N47   T    
C320  O14   S    
C215  C255  A    
C342  N127  T    
C70   O117  A    
O2    Zn28  S    
C26   C517  S    
C46   O52   A    
C197  C486  S    
C200  C489  S    
C50   C289  S    
C38   C57   S    
C383  C457  S    
C408  C501  S    
C436  C528  S    
C43   C150  A    
C54   C294  S    
C314  N117  T    
C204  C249  A    
C332  O37   D    
C66   O113  A    
C72   O119  A    
C359  N143  T    
C159  C176  S    
C34   C509  S    
O125  Zn9   S    
C526  C528  S    
C168  H9    S    
C5    C40   S    
C131  C336  S    
C17   C19   S    
C321  O16   S    
C301  C497  A    
C250  C259  S    
C290  C468  A    
C333  O40   S    
C275  N2    T    
C350  N135  T    
O114  Zn30  S    
C519  C521  S    
O56   Zn10  S    
C72   C109  S    
C212  H14   S    
C320  O12   D    
C191  C242  S    
C40   C518  S    
C346  C482  A    
C138  C342  S    
C521  H34   S    
C37   C511  S    
C47   C286  S    
C12   C465  S    
O103  Zn2   S    
C468  C490  A    
C393  N3    T    
C134  C339  S    
O13   Zn31  S    
C93   C110  A    
C381  N165  T    
C151  C169  S    
C48   C83   A    
O64   Zn18  S    
C526  H48   S    
C329  O30   D    
C112  O127  A    
C8    C442  S    
C390  C483  A    
C121  C139  A    
C4    C438  S    
C231  C244  A    
C161  C178  S    
C277  N24   T    
O123  Zn7   S    
C456  N65   T    
C188  O76   A    
C136  C340  S    
C388  C481  S    
C84   C306  S    
C29   C503  S    
C423  C484  A    
C190  C493  A    
C124  C261  T    
C65   O59   A    
C93   C315  S    
C337  N121  T    
C380  N164  T    
C335  C481  A    
C257  H18   S    
C446  C488  A    
C447  N55   T    
C54   C161  A    
O72   Zn26  S    
C419  C512  S    
C36   C510  S    
C358  N142  T    
C198  O105  A    
C394  C504  S    
C14   C466  S    
C79   C491  S    
O96   Zn1   S    
C158  C175  S    
C185  O78   A    
C31   C523  S    
C219  C282  S    
C199  O100  A    
C229  C362  S    
C330  O32   D    
C325  O21   D    
C129  C332  S    
C398  N8    T    
C210  C250  A    
C23   C459  S    
C430  C523  S    
C69   C97   S    
C138  C155  A    
O49   Zn10  S    
C307  N110  T    
C472  N81   T    
C20   C455  S    
O60   Zn17  S    
C148  C165  A    
C32   C506  S    
C332  O38   S    
C214  C254  A    
C211  C274  S    
C216  C234  A    
C82   C99   A    
C318  O8    D    
C35   C36   S    
C404  N14   T    
O119  Zn3   S    
C433  C526  S    
C71   O65   A    
C18   C453  S    
C406  N16   T    
C130  C333  S    
C43   C78   A    
C156  C174  S    
C477  N86   T    
C203  C220  A    
C74   O68   A    
C193  O85   A    
C101  C259  T    
C236  C243  A    
C386  C479  S    
C61   C103  S    
C71   O118  A    
C65   C98   S    
C21   C474  S    
O1    Zn15  S    
C204  C221  A    
C142  C347  S    
C196  O92   A    
C389  N174  T    
C117  C134  A    
C21   C456  S    
C100  C119  A    
C44   C284  S    
C205  C222  A    
C303  N106  T    
C190  C368  A    
C246  C493  A    
C301  H22   S    
C384  N169  T    
C294  N97   T    
C440  N50   T    
C450  N59   T    
C383  N168  T    
C19   C454  S    
C48   C154  A    
C50   C85   A    
C311  N115  T    
C452  N61   T    
C209  C272  S    
C35   O51   A    
C5    H6    S    
C504  C506  S    
C61   O55   A    
C68   O54   A    
C136  C153  A    
C324  O19   D    
C15   C467  S    
C79   C256  T    
C474  N83   T    
C59   C94   A    
C211  C252  A    
C439  N49   T    
C249  C258  S    
C3    H4    S    
C385  N170  T    
C20   C38   S    
C458  N66   T    
C349  N134  T    
C344  N129  T    
C28   C507  S    
C75   C108  S    
C441  N51   T    
C16   C451  S    
C288  N92   T    
C285  N88   T    
C395  C505  S    
O106  Zn4   S    
O104  Zn3   S    
C378  N163  T    
C192  O84   A    
C51   C86   A    
C267  N100  T    
C222  C241  A    
C391  N175  T    
O77   Zn14  S    
C223  O128  A    
C318  O9    S    
C68   O7    A    
C8    C461  S    
O133  Zn17  S    
C226  C240  A    
C461  N70   T    
C32   C334  S    
C226  C359  S    
C194  O90   A    
C44   C80   A    
C387  C480  S    
C421  N31   T    
C284  N87   T    
C187  C243  S    
C62   O109  A    
C142  C160  A    
C5    C7    S    
C34   C526  S    
C507  O45   A    
O92   Zn31  S    
C523  H45   S    
C60   C299  S    
C376  N161  T    
C518  O134  A    
C432  N42   T    
C519  H12   S    
O82   Zn6   S    
C71   C114  S    
C297  N101  T    
O135  Zn19  S    
C431  N41   T    
C235  C412  A    
O78   Zn15  S    
O59   Zn14  S    
C38   C512  S    
C192  O89   A    
C196  C484  S    
C193  C240  S    
C444  N54   T    
C231  C364  S    
C33   C525  S    
C355  N140  T    
C524  H46   S    
C221  C355  S    
C109  C128  A    
O82   Zn18  S    
C12   C15   S    
C496  O132  A    
C353  N138  T    
C227  C239  A    
O63   Zn17  S    
C206  C225  A    
C248  C256  S    
C227  C360  S    
O130  Zn14  S    
C392  C502  S    
C324  O20   S    
C135  C262  T    
C97   C116  A    
C430  N40   T    
C206  C251  A    
C207  C249  A    
C30   C504  S    
C76   O70   A    
C33   C223  S    
C4    C6    S    
O107  Zn3   S    
H43   O42   S    
C197  O94   A    
C77   O72   A    
C435  C527  S    
C27   C501  S    
C64   O58   A    
C271  N133  T    
C127  C330  S    
C188  C244  S    
C135  C497  S    
C328  O28   D    
C102  C120  A    
C190  H11   S    
C9    C27   S    
C509  C511  S    
C181  C184  T    
C10   C28   S    
C445  O130  A    
C41   C515  S    
C428  N38   T    
C467  N76   T    
C53   C160  A    
C69   O63   A    
C12   C30   S    
C290  C499  A    
O81   Zn18  S    
C216  C278  S    
C91   C108  A    
O51   Zn2   S    
O93   Zn19  S    
C46   O5    A    
C404  C514  S    
C385  C478  S    
C413  C505  S    
C25   C42   S    
C312  C479  A    
C283  N79   T    
O94   Zn30  S    
C147  C351  S    
C117  C320  S    
O121  Zn5   S    
O55   Zn9   S    
C51   C158  A    
C364  N149  T    
C61   O108  A    
C357  C483  A    
C45   C152  A    
C422  C515  S    
O48   Zn8   S    
C316  N119  T    
C445  O35   A    
C438  N48   T    
O104  Zn8   S    
C449  N58   T    
C202  O102  A    
C233  C247  A    
C198  O99   A    
C523  C525  S    
C121  C325  S    
C229  C241  A    
C379  C486  A    
C327  O27   S    
O95   Zn12  S    
O115  Zn21  S    
C3    C527  S    
C123  C327  S    
C399  N9    T    
C289  N93   T    
C137  C154  A    
C179  C357  A    
C186  C247  S    
C127  C144  A    
C427  C520  S    
C12   C448  S    
C60   C166  A    
C160  C177  S    
C164  C182  S    
C70   C111  S    
C101  C493  S    
C412  C486  A    
C246  C423  A    
C434  C487  A    
C157  C264  T    
C104  C122  A    
C410  C503  S    
C343  N128  T    
C177  C178  T    
C274  N166  T    
C206  C269  S    
C139  C343  S    
C124  C495  S    
O104  Zn26  S    
C198  C487  S    
C58   C93   A    
C407  N17   T    
C218  C237  A    
C141  C345  S    
C341  N126  T    
C28   C520  S    
C18   C36   S    
C24   O50   A    
C377  N162  T    
C310  N114  T    
C6    C440  S    
C301  C478  A    
C253  C262  S    
C315  N118  T    
C73   O67   A    
C319  O10   D    
C189  O81   A    
C1    O126  A    
C202  C490  S    
C194  O96   A    
C169  C170  T    
C391  C501  S    
C319  O11   S    
C196  O98   A    
C13   O136  A    
C373  N158  T    
C246  H17   S    
C28   C502  S    
C173  C174  T    
O82   Zn32  S    
C56   C163  A    
C90   C492  S    
C237  C370  S    
C219  C238  A    
C255  C264  S    
C518  O46   A    
C370  N154  T    
O100  Zn5   S    
C76   O123  A    
C331  O34   D    
C328  O29   S    
C393  C503  S    
C418  N28   T    
O82   Zn24  S    
C17   C470  S    
C290  H21   S    
C201  H13   S    
C29   C521  S    
C326  O25   S    
C382  C446  S    
C232  C245  A    
C47   C82   A    
C369  N153  T    
C269  N111  T    
O93   Zn22  S    
C405  C515  S    
C230  C243  A    
C111  C130  A    
C228  C242  A    
C168  C346  A    
O71   Zn27  S    
C2    C39   S    
C57   O53   A    
C214  C232  A    
C3    C38   S    
C94   C316  S    
O97   Zn27  S    
C6    C41   S    
C62   O56   A    
C218  C255  A    
C220  C239  A    
C187  O75   A    
C372  N157  T    
C520  H23   S    
O105  Zn32  S    
C429  N39   T    
O83   Zn19  S    
C376  C390  S    
O54   Zn3   S    
O102  Zn7   S    
C195  C483  S    
C84   C102  A    
C140  C158  A    
H41   O38   S    
C155  C173  S    
C52   C159  A    
C112  O2    A    
C366  N151  T    
C414  N23   T    
C291  N94   T    
C478  C488  A    
O128  Zn11  S    
O129  Zn13  S    
C89   C107  A    
C228  C361  S    
C52   C292  S    
O4    Zn22  S    
C345  N130  T    
C238  C371  S    
C217  C236  A    
C360  N145  T    
C375  N160  T    
C11   C447  S    
O80   Zn17  S    
O67   Zn21  S    
O116  Zn31  S    
C8    C26   S    
O112  Zn28  S    
C265  N1    T    
C58   C297  S    
C63   O57   A    
C44   C151  A    
C272  N144  T    
C221  C240  A    
C130  C148  A    
C119  C137  A    
C69   O116  A    
C146  C263  T    
C224  H15   S    
C396  C506  S    
C470  N78   T    
C75   O122  A    
C203  C265  S    
C50   C156  A    
C118  C321  S    
C192  C239  S    
C9    C443  S    
C143  C348  S    
C281  N57   T    
C399  C510  S    
O6    Zn25  S    
O68   Zn22  S    
C464  N73   T    
C212  C390  A    
C66   C99   S    
C403  C513  S    
C514  C516  S    
C22   C475  S    
C63   C100  S    
C429  C522  S    
C30   C522  S    
C16   C33   S    
C380  C423  S    
C88   C106  A    
C257  C434  A    
C354  N139  T    
C457  C489  A    
C21   C39   S    
C4    C39   S    
C176  C180  T    
C125  C142  A    
C233  C366  S    
C322  O17   D    
C22   C40   S    
C153  C171  S    
C186  O77   A    
H38   O31   S    
C154  C172  S    
C352  N137  T    
C443  N53   T    
C442  N52   T    
C9    C11   S    
C466  N75   T    
C522  C524  S    
C252  C261  S    
C209  C251  A    
O70   Zn25  S    
O136  Zn20  S    
C74   C107  S    
O49   Zn12  S    
C209  C228  A    
C254  C263  S    
C278  N35   T    
H37   O29   S    
C9    C462  S    
C419  N29   T    
C329  O31   S    
C67   C96   S    
C270  N122  T    
C191  O83   A    
C334  O129  A    
C55   C162  A    
O99   Zn6   S    
C268  H19   S    
H29   O14   S    
C195  O95   A    
C31   C505  S    
C98   C117  A    
C185  C245  S    
O122  Zn6   S    
O35   Zn12  S    
C417  C510  S    
C505  C508  S    
C396  N6    T    
C39   C513  S    
C67   O114  A    
C144  C162  A    
C14   C16   S    
C15   C450  S    
C378  C412  S    
C224  C491  A    
C65   O112  A    
C149  C166  A    
C107  C126  A    
H42   O40   S    
C418  C511  S    
C122  C140  A    
C59   C165  A    
O86   Zn22  S    
C427  N37   T    
C18   C20   S    
O132  Zn16  S    
C55   C295  S    
O47   Zn5   S    
C149  C353  S    
C401  C482  A    
C88   C310  S    
C191  O86   A    
C83   C100  A    
O69   Zn24  S    
C302  N105  T    
C21   C23   S    
C336  O41   D    
C333  O39   D    
C99   C118  A    
C312  H24   S    
O1    Zn9   S    
C139  C156  A    
O60   Zn23  S    
C34   C46   S    
C194  C482  S    
C212  C492  A    
C382  N167  T    
C53   C88   A    
C377  C401  S    
C108  C127  A    
O84   Zn20  S    
C220  C354  S    
C56   C92   A    
H36   O27   S    
C123  C141  A    
C11   C29   S    
C365  N150  T    
C215  C277  S    
C381  C434  S    
C208  C271  S    
C140  C344  S    
O87   Zn24  S    
O101  Zn8   S    
C410  N20   T    
C144  C349  S    
C224  C401  A    
C2    O47   A    
C103  C121  A    
