data_mof_unit_pretest_409.cif
_audit_creation_date              2012-12-11T15:22:37-0500
_audit_creation_method            fapswitch 2.2
_symmetry_space_group_name_H-M    P1
_symmetry_Int_Tables_number       1
_space_group_crystal_system       triclinic
_cell_length_a                    22.86151
_cell_length_b                    7.234838
_cell_length_c                    20.775917
_cell_angle_alpha                 90.000866
_cell_angle_beta                  93.248065
_cell_angle_gamma                 90.000639
_cell_volume                      3430.80240883

loop_
_atom_site_label
_atom_site_type_symbol
_atom_type_description
_atom_site_fract_x
_atom_site_fract_y
_atom_site_fract_z
_atom_type_partial_charge
O1    O     O_R   0.438030 0.494310 0.439340 -0.521022
O2    O     O_R   0.561970 0.994310 0.560660 -0.520997
O3    O     O_R   0.556900 0.822900 0.435960 -0.541781
O4    O     O_R   0.443100 0.322900 0.564040 -0.541777
C1    C     C_R   0.575756 0.655862 0.421112 0.726233
C2    C     C_R   0.424244 0.155863 0.578888 0.726174
O5    O     O_R   0.438170 0.823950 0.431660 -0.538895
O6    O     O_R   0.561830 0.323950 0.568340 -0.538893
O7    O     O_R   0.442390 0.995390 0.556340 -0.525166
O8    O     O_R   0.557610 0.495390 0.443660 -0.525163
C3    C     C_R   0.419461 0.655158 0.414804 0.744488
C4    C     C_R   0.580535 0.155159 0.585202 0.744457
O9    O     O_3   0.501520 0.661170 0.540910 -0.362609
O10   O     O_3   0.498480 0.161170 0.459090 -0.362651
V1    V     V_3+5 0.499720 0.935580 0.492410 1.517560
V2    V     V_3+5 0.500280 0.435580 0.507590 1.517574
C5    C     C_R   0.819501 0.966816 0.871769 0.190220
C6    C     C_R   0.180516 0.466933 0.128202 0.190212
C7    C     C_R   0.869155 0.081666 0.865617 -0.167370
C8    C     C_R   0.130843 0.581679 0.134382 -0.167386
C9    C     C_R   0.870925 0.204348 0.812378 0.166072
C10   C     C_R   0.129053 0.704261 0.187649 0.166089
C11   C     C_R   0.822222 0.218179 0.767553 0.063693
C12   C     C_R   0.177742 0.718014 0.232498 0.063730
C13   C     C_R   0.772027 0.107364 0.774842 -0.025475
C14   C     C_R   0.227963 0.607350 0.225170 -0.025487
C15   C     C_R   0.770409 0.982398 0.827062 0.039381
C16   C     C_R   0.229612 0.482551 0.172903 0.039381
C17   C     C_R   0.822642 0.342380 0.715309 -0.144912
C18   C     C_R   0.177283 0.841998 0.284803 -0.144873
C19   C     C_R   0.774759 0.355888 0.670893 -0.191612
C20   C     C_R   0.225157 0.855459 0.329235 -0.191642
C21   C     C_R   0.725126 0.245655 0.677209 0.107798
C22   C     C_R   0.274825 0.745428 0.322866 0.107844
C23   C     C_R   0.723333 0.120863 0.729273 0.046308
C24   C     C_R   0.276655 0.620845 0.270743 0.046316
C25   C     C_R   0.672993 0.009802 0.735742 0.047091
C26   C     C_R   0.327032 0.509991 0.264220 0.047120
C27   C     C_R   0.671979 0.888528 0.788459 -0.129109
C28   C     C_R   0.328080 0.388914 0.211450 -0.129104
C29   C     C_R   0.719520 0.875606 0.833253 -0.172139
C30   C     C_R   0.280534 0.375960 0.166667 -0.172123
C31   C     C_R   0.677630 0.257459 0.631693 -0.254169
C32   C     C_R   0.322320 0.757232 0.368382 -0.254264
C33   C     C_R   0.628118 0.145015 0.636562 -0.114045
C34   C     C_R   0.371872 0.645010 0.363451 -0.113975
C35   C     C_R   0.625097 0.022707 0.689447 0.199919
C36   C     C_R   0.374928 0.522906 0.310514 0.199934
H1    H     H_    0.860032 0.430553 0.708389 0.168380
H2    H     H_    0.139868 0.930023 0.291765 0.168397
H3    H     H_    0.776715 0.452577 0.631221 0.125396
H4    H     H_    0.223168 0.951966 0.368957 0.125383
H5    H     H_    0.679683 0.351743 0.591276 0.129723
H6    H     H_    0.320240 0.851348 0.408844 0.129653
H7    H     H_    0.634617 0.801138 0.795837 0.182678
H8    H     H_    0.365473 0.301705 0.204028 0.182680
H9    H     H_    0.715533 0.780239 0.872776 0.147996
H10   H     H_    0.284546 0.280742 0.127099 0.147999
C37   C     C_3   0.239943 0.296747 0.798823 0.112760
C38   C     C_3   0.760057 0.796747 0.201178 0.112758
C39   C     C_3   0.255470 0.952867 0.806920 0.023304
C40   C     C_3   0.744527 0.452868 0.193077 0.023298
C41   C     C_3   0.305055 0.966524 0.757820 0.146896
C42   C     C_3   0.694942 0.466522 0.242178 0.146884
H11   H     H_    0.326671 0.373442 0.766551 0.159749
H12   H     H_    0.673329 0.873441 0.233452 0.159746
H13   H     H_    0.265841 0.300233 0.845785 0.187806
H14   H     H_    0.734158 0.800234 0.154216 0.187809
H15   H     H_    0.234318 0.816579 0.799221 0.178459
H16   H     H_    0.765678 0.316580 0.200774 0.178455
H17   H     H_    0.301029 0.838307 0.728528 0.096761
H18   H     H_    0.698968 0.338305 0.271468 0.096767
C43   C     C_1   0.378754 0.149146 0.624680 -0.149434
C44   C     C_1   0.621246 0.649145 0.375320 -0.149400
C45   C     C_3   0.207907 0.104816 0.792412 0.040968
C46   C     C_3   0.792092 0.604817 0.207587 0.040970
C47   C     C_3   0.284902 0.317277 0.745452 -0.443813
C48   C     C_3   0.715098 0.817276 0.254550 -0.443816
C49   C     C_3   0.292948 0.130569 0.709016 0.085356
C50   C     C_3   0.707051 0.630567 0.290984 0.085352
C51   C     C_3   0.232401 0.094575 0.671824 0.071427
C52   C     C_3   0.767598 0.594573 0.328174 0.071426
C53   C     C_3   0.182518 0.077766 0.721065 0.041048
C54   C     C_3   0.817481 0.577767 0.278933 0.041051
C55   C     C_1   0.340333 0.143485 0.662685 0.043310
C56   C     C_1   0.659667 0.643483 0.337315 0.043312
C57   C     C_1   0.160100 0.090597 0.838267 0.103211
C58   C     C_1   0.839898 0.590599 0.161731 0.103206
C59   C     C_1   0.121333 0.081653 0.875777 -0.154596
C60   C     C_1   0.878665 0.581654 0.124221 -0.154582
H19   H     H_    0.150382 0.189562 0.709512 0.122939
H20   H     H_    0.849617 0.689564 0.290487 0.122936
H21   H     H_    0.222436 0.219995 0.641872 0.119749
H22   H     H_    0.777564 0.719992 0.358128 0.119746
H23   H     H_    0.269598 0.425273 0.710191 0.165720
H24   H     H_    0.730403 0.925272 0.289812 0.165722
O11   O     O_R   0.942420 0.735670 0.056390 -0.529978
O12   O     O_R   0.057580 0.235670 0.943610 -0.529982
O13   O     O_R   0.061840 0.404850 0.068350 -0.523095
O14   O     O_R   0.938160 0.904850 0.931650 -0.523086
C61   C     C_R   0.081288 0.573407 0.084590 0.764198
C62   C     C_R   0.918712 0.073403 0.915409 0.764153
O15   O     O_R   0.943100 0.406010 0.064050 -0.533954
O16   O     O_R   0.056900 0.906010 0.935950 -0.533952
O17   O     O_R   0.938020 0.234710 0.939330 -0.550494
O18   O     O_R   0.061980 0.734710 0.060670 -0.550480
C63   C     C_R   0.924331 0.574152 0.078763 0.705105
C64   C     C_R   0.075668 0.074151 0.921236 0.705114
O19   O     O_3   0.998500 0.567790 0.959120 -0.381790
O20   O     O_3   0.001500 0.067790 0.040880 -0.381776
V3    V     V_3+5 0.000280 0.293330 0.007580 1.416289
V4    V     V_3+5 0.999720 0.793330 0.992420 1.416293
N1    N     N_2   0.818963 0.840425 0.924492 -0.521603
H25   H     H_    0.783188 0.852705 0.952249 0.262024
C65   C     C_3   0.832888 0.650735 0.908834 -0.437401
H26   H     H_    0.838132 0.568433 0.953894 0.189659
H27   H     H_    0.874450 0.643574 0.883809 0.201960
H28   H     H_    0.797499 0.587951 0.877242 0.175333
N2    N     N_2   0.181071 0.340631 0.075451 -0.521620
H29   H     H_    0.216832 0.353070 0.047680 0.262010
C66   C     C_3   0.167207 0.150867 0.091071 -0.437428
H30   H     H_    0.161988 0.068615 0.045996 0.189661
H31   H     H_    0.125647 0.143528 0.116093 0.201950
H32   H     H_    0.202617 0.088138 0.122648 0.175382
Br1   Br    Br    0.283063 0.945425 0.898250 -0.628035
Br2   Br    Br    0.716933 0.445429 0.101748 -0.627993
N3    N     N_2   0.364676 0.954649 0.787281 -0.484684
H33   H     H_    0.373575 0.832728 0.811698 0.290609
C67   C     C_3   0.395249 0.113992 0.814654 -0.374582
H34   H     H_    0.435741 0.067939 0.842122 0.200405
H35   H     H_    0.367916 0.189402 0.848317 0.209356
H36   H     H_    0.409244 0.206064 0.775761 0.186403
N4    N     N_2   0.635321 0.454646 0.212718 -0.484668
H37   H     H_    0.626421 0.332726 0.188299 0.290610
C68   C     C_3   0.604748 0.613989 0.185347 -0.374493
H38   H     H_    0.564256 0.567936 0.157879 0.200425
H39   H     H_    0.632081 0.689401 0.151685 0.209332
H40   H     H_    0.590754 0.706060 0.224241 0.186425
Br3   Br    Br    0.133874 0.854257 0.711356 -0.643914
Br4   Br    Br    0.866124 0.354260 0.288639 -0.643922
N5    N     N_2   0.199487 0.453152 0.796670 -0.522318
H41   H     H_    0.166772 0.453458 0.760540 0.290410
C69   C     C_3   0.183283 0.530431 0.857596 -0.474484
H42   H     H_    0.157582 0.658920 0.848724 0.227940
H43   H     H_    0.223017 0.564725 0.888465 0.228116
H44   H     H_    0.155741 0.433494 0.883657 0.194876
N6    N     N_2   0.800513 0.953154 0.203332 -0.522319
H45   H     H_    0.833229 0.953459 0.239461 0.290411
C70   C     C_3   0.816716 0.030436 0.142406 -0.474477
H46   H     H_    0.842418 0.158926 0.151280 0.227943
H47   H     H_    0.776981 0.064733 0.111540 0.228122
H48   H     H_    0.844255 0.933499 0.116343 0.194875
N7    N     N_2   0.922335 0.309050 0.801551 -0.543008
H49   H     H_    0.937302 0.392566 0.839021 0.274721
C71   C     C_3   0.968118 0.207310 0.771828 -0.484129
H50   H     H_    0.985756 0.096863 0.804596 0.177211
H51   H     H_    0.004381 0.302788 0.761273 0.206115
H52   H     H_    0.950881 0.144641 0.725744 0.213315
N8    N     N_2   0.077649 0.809011 0.198459 -0.542986
H53   H     H_    0.062716 0.892591 0.160993 0.274728
C72   C     C_3   0.031834 0.707315 0.228141 -0.484130
H54   H     H_    0.014194 0.596921 0.195350 0.177201
H55   H     H_    0.995579 0.802834 0.238684 0.206107
H56   H     H_    0.049035 0.644579 0.274227 0.213309
N9    N     N_2   0.235367 0.936516 0.628278 -0.497683
H57   H     H_    0.235541 0.806570 0.648537 0.289869
C73   C     C_3   0.202479 0.950557 0.566852 -0.481884
H58   H     H_    0.210259 0.825567 0.537510 0.186852
H59   H     H_    0.217097 0.073131 0.539852 0.179841
H60   H     H_    0.154890 0.962010 0.574186 0.236164
N10   N     N_2   0.764632 0.436513 0.371718 -0.497690
H61   H     H_    0.764457 0.306568 0.351457 0.289868
C74   C     C_3   0.797521 0.450553 0.433144 -0.481849
H62   H     H_    0.789743 0.325558 0.462484 0.186864
H63   H     H_    0.782903 0.573122 0.460147 0.179837
H64   H     H_    0.845109 0.462015 0.425809 0.236159
Br5   Br    Br    0.554024 0.882932 0.699971 -0.560041
Br6   Br    Br    0.446045 0.383412 0.299936 -0.560127

loop_
_geom_bond_atom_site_label_1
_geom_bond_atom_site_label_2
_ccdc_geom_bond_type
C69   H44   S    
C18   C20   A    
N10   H61   S    
N9    H57   S    
C52   H22   S    
C71   H51   S    
N6    H45   S    
O1    C3    A    
C49   C55   S    
O2    C4    A    
C46   C54   S    
C2    O7    A    
C36   Br6   S    
C72   H54   S    
C5    N1    S    
C68   H38   S    
C73   H59   S    
C41   C49   S    
C74   H62   S    
C39   C45   S    
O5    C3    A    
N10   C74   S    
C38   C48   S    
C72   H55   S    
C11   C17   A    
C23   C25   A    
C12   C14   A    
C60   C63   S    
C67   H34   S    
C70   H47   S    
C7    C62   S    
C48   C50   S    
C10   N8    S    
C65   H26   S    
O5    V1    S    
C14   C24   A    
O12   C64   A    
C40   H16   S    
C62   O17   A    
O15   V3    S    
O6    V2    S    
C33   C35   A    
C1    C44   S    
C39   C41   S    
O20   V3    S    
C20   H4    S    
C66   H32   S    
C50   C56   S    
C37   H13   S    
C42   N4    S    
C31   H5    S    
C27   H7    S    
C48   H24   S    
C65   H27   S    
C40   C42   S    
C19   C21   A    
C38   N6    S    
N7    C71   S    
C46   C58   S    
C26   C36   A    
C67   H36   S    
N2    C66   S    
O17   V3    S    
N9    C73   S    
C68   H39   S    
C71   H52   S    
C42   C50   S    
C30   H10   S    
C53   Br3   S    
C51   C53   S    
C32   C34   A    
C73   H60   S    
C74   H63   S    
H12   C48   S    
C34   C36   A    
H11   C47   S    
C5    C15   A    
C6    C16   A    
C27   C29   A    
O19   V4    S    
C19   H3    S    
C73   H58   S    
O16   V4    S    
O11   V4    S    
C4    C33   S    
O18   V4    S    
C8    C61   S    
C28   H8    S    
C47   H23   S    
C44   C56   T    
C20   C22   A    
O4    V2    S    
N3    C67   S    
C7    C9    A    
C51   H21   S    
C15   C29   A    
N8    H53   S    
O6    C4    A    
C65   H28   S    
O13   V3    S    
O14   C62   A    
C47   C49   S    
C22   C32   A    
O1    V2    S    
C17   H1    S    
O2    V1    S    
C31   C33   A    
C43   C55   T    
C66   H30   S    
C68   H40   S    
C22   C24   A    
C13   C23   A    
C45   C57   S    
O13   C61   A    
C41   H17   S    
O14   V4    S    
C52   C54   S    
C9    C11   A    
N4    H37   S    
C10   C12   A    
C70   H48   S    
O4    C2    A    
C25   C35   A    
C8    C10   A    
C5    C7    A    
N3    H33   S    
C37   C45   S    
O16   C64   A    
C72   H56   S    
O3    V1    S    
C2    C43   S    
C40   Br2   S    
N1    H25   S    
C74   H64   S    
C39   H15   S    
C61   O18   A    
C69   H43   S    
C52   N10   S    
C9    N7    S    
O12   V3    S    
C40   C46   S    
N6    C70   S    
C14   C16   A    
C58   C60   T    
C28   C30   A    
O3    C1    A    
C39   Br1   S    
N2    H29   S    
C13   C15   A    
C53   H19   S    
C49   C51   S    
C38   H14   S    
C37   C47   S    
N5    C69   S    
N8    C72   S    
O7    V1    S    
C29   H9    S    
C1    O8    A    
C35   Br5   S    
O8    V2    S    
C70   H46   S    
C24   C26   A    
C26   C28   A    
C45   C53   S    
C59   C64   S    
C16   C30   A    
C21   C23   A    
C50   C52   S    
C38   C46   S    
C6    C8    A    
C42   H18   S    
C18   H2    S    
C37   N5    S    
C12   C18   A    
C66   H31   S    
O11   C63   A    
C32   H6    S    
C25   C27   A    
C11   C13   A    
C54   Br4   S    
C17   C19   A    
O9    V2    S    
C71   H50   S    
N4    C68   S    
C57   C59   T    
C51   N9    S    
O10   V1    S    
C3    C34   S    
O15   C63   A    
C54   H20   S    
C67   H35   S    
N7    H49   S    
N5    H41   S    
C21   C31   A    
C6    N2    S    
C41   N3    S    
C69   H42   S    
N1    C65   S    
