data_mof_unit_pretest_1262.cif
_audit_creation_date              2012-12-10T19:07:01-0500
_audit_creation_method            fapswitch 2.2
_symmetry_space_group_name_H-M    P1
_symmetry_Int_Tables_number       1
_space_group_crystal_system       triclinic
_cell_length_a                    27.811136
_cell_length_b                    10.815473
_cell_length_c                    9.561085
_cell_angle_alpha                 89.930704
_cell_angle_beta                  89.955399
_cell_angle_gamma                 89.921109
_cell_volume                      2875.87870592

loop_
_atom_site_label
_atom_site_type_symbol
_atom_type_description
_atom_site_fract_x
_atom_site_fract_y
_atom_site_fract_z
_atom_type_partial_charge
C1    C     C_R   0.499349 0.262447 0.500070 0.808552
C2    C     C_R   0.277976 0.466175 0.617012 -0.168192
C3    C     C_R   0.253496 0.499586 0.494847 0.265516
C4    C     C_R   0.101764 0.499405 0.490971 -0.048965
C5    C     C_R   0.127476 0.387154 0.492796 -0.027837
C6    C     C_R   0.102411 0.275440 0.494541 -0.143358
C7    C     C_R   0.127313 0.611735 0.489440 -0.025589
C8    C     C_R   0.354443 0.499197 0.499618 -0.162681
C9    C     C_R   0.645097 0.500632 0.499500 -0.026711
C10   C     C_R   0.974379 0.385471 0.480988 -0.045227
C11   C     C_R   0.974241 0.612936 0.502195 0.061790
C12   C     C_R   0.407467 0.499508 0.500057 0.848007
C13   C     C_R   0.949015 0.499063 0.492062 0.068179
C14   C     C_R   0.947591 0.275670 0.462601 -0.284549
C15   C     C_R   0.897643 0.276251 0.461240 0.663567
C16   C     C_R   0.872150 0.387251 0.477986 -0.154171
C17   C     C_R   0.897846 0.498853 0.493163 -0.121874
C18   C     C_R   0.872284 0.610454 0.509575 0.004713
C19   C     C_R   0.821854 0.608774 0.511843 0.542132
C20   C     C_R   0.821501 0.390285 0.478793 0.581340
C21   C     C_R   0.720823 0.438777 0.603985 -0.092118
C22   C     C_R   0.670686 0.438500 0.604670 -0.219166
C23   C     C_R   0.499170 0.737440 0.499856 0.801630
C24   C     C_R   0.670251 0.562643 0.393323 -0.236129
C25   C     C_R   0.720380 0.562392 0.392263 -0.086701
C26   C     C_R   0.745912 0.500526 0.497627 0.330961
C27   C     C_R   0.025455 0.385157 0.487539 0.078817
C28   C     C_R   0.050632 0.499326 0.490925 0.073207
C29   C     C_R   0.025292 0.613417 0.494513 0.041917
C30   C     C_R   0.052482 0.274172 0.492212 -0.198633
C31   C     C_R   0.102075 0.723372 0.487178 -0.138517
C32   C     C_R   0.947318 0.722747 0.521173 -0.197873
C33   C     C_R   0.897435 0.721255 0.524689 -0.116286
C34   C     C_R   0.592383 0.500193 0.499934 0.789392
C35   C     C_R   0.052138 0.724480 0.489429 -0.203052
C36   C     C_R   0.497060 0.063350 0.625345 0.051654
C37   C     C_R   0.495050 0.129447 0.500216 -0.073565
C38   C     C_R   0.486554 0.064686 0.375020 -0.199668
C39   C     C_R   0.486439 0.935606 0.374842 -0.206952
C40   C     C_R   0.495224 0.870402 0.499625 -0.097582
C41   C     C_R   0.498100 0.936480 0.624297 0.016711
C42   C     C_3   0.531064 0.932021 0.749136 0.350187
C43   C     C_3   0.529543 0.073399 0.749800 -0.511376
C44   C     C_R   0.540642 0.471674 0.073688 0.262021
C45   C     C_R   0.177950 0.389299 0.493830 0.552529
C46   C     C_R   0.458996 0.523130 0.074148 -0.073763
C47   C     C_R   0.459011 0.523191 0.925891 -0.041488
C48   C     C_R   0.540684 0.471889 0.926214 0.236411
C49   C     C_3   0.587000 0.541225 0.921261 -0.464701
C50   C     C_3   0.587038 0.540256 0.079337 -0.502315
C51   C     C_R   0.177798 0.609735 0.489912 0.548801
C52   C     C_R   0.279381 0.532607 0.375021 -0.091895
C53   C     C_R   0.329500 0.532081 0.377147 -0.290208
C54   C     C_R   0.328126 0.465985 0.620016 0.577027
Cu1   Cu    Cu3+1 0.500000 0.499980 0.640670 0.981463
Cu2   Cu    Cu3+1 0.500000 0.500020 0.359330 0.944499
H1    H     H_    0.260600 0.558304 0.280148 0.161670
H2    H     H_    0.120862 0.811028 0.483759 0.188596
H3    H     H_    0.963656 0.811828 0.536884 0.146665
H4    H     H_    0.651178 0.612644 0.312442 0.147703
H5    H     H_    0.878610 0.808059 0.539427 0.209494
H6    H     H_    0.739437 0.610189 0.309557 0.152895
H7    H     H_    0.035706 0.814551 0.484240 0.139946
H8    H     H_    0.481924 0.113066 0.276689 0.169283
H9    H     H_    0.481577 0.887602 0.276520 0.167542
H10   H     H_    0.512508 0.891826 0.841631 0.101838
H11   H     H_    0.257992 0.440287 0.709770 0.168714
H12   H     H_    0.510350 0.111569 0.842224 0.177013
H13   H     H_    0.564220 0.119906 0.726204 0.201081
H14   H     H_    0.425945 0.544051 0.128486 0.149647
H15   H     H_    0.426001 0.544399 0.871604 0.196051
H16   H     H_    0.616672 0.485241 0.876553 0.194733
H17   H     H_    0.582998 0.635342 0.875663 0.247117
H18   H     H_    0.616440 0.482738 0.123851 0.205001
H19   H     H_    0.583194 0.633915 0.125996 0.213420
H20   H     H_    0.121328 0.187839 0.498020 0.189682
H21   H     H_    0.651947 0.387622 0.685463 0.139496
H22   H     H_    0.740231 0.390556 0.685693 0.150634
H23   H     H_    0.964182 0.186939 0.445779 0.166497
H24   H     H_    0.036217 0.184019 0.497380 0.140418
H25   H     H_    0.348693 0.558362 0.283154 0.179770
N1    N     N_R   0.201958 0.499551 0.492486 -0.456047
N2    N     N_R   0.797562 0.499847 0.496165 -0.480020
N3    N     N_R   0.500300 0.500930 0.147930 -0.190335
N4    N     N_R   0.500310 0.500890 0.852020 -0.194977
O1    O     O_R   0.500000 0.319640 0.618810 -0.566894
O2    O     O_2   0.796234 0.285033 0.461261 -0.449800
O3    O     O_2   0.202573 0.716954 0.489112 -0.525531
O4    O     O_2   0.797235 0.715120 0.530700 -0.521555
O5    O     O_R   0.500010 0.319680 0.381230 -0.583928
O6    O     O_R   0.430260 0.500000 0.618780 -0.537777
O7    O     O_R   0.430270 0.500040 0.381190 -0.600374
O8    O     O_R   0.499990 0.680320 0.618770 -0.570110
O9    O     O_R   0.500000 0.680360 0.381190 -0.590621
O10   O     O_R   0.569730 0.499960 0.618810 -0.580997
O11   O     O_R   0.569740 0.500000 0.381220 -0.585358
O12   O     O_2   0.202879 0.282143 0.495327 -0.521706
F1    F     F_    0.350594 0.431063 0.739694 -0.669557
O13   O     O_3   0.577923 0.879625 0.732801 -0.566944
C55   C     C_3   0.600531 0.902689 0.602567 -0.221817
H26   H     H_    0.590662 0.992243 0.553599 0.147887
H27   H     H_    0.592950 0.825822 0.529209 0.149186
H28   H     H_    0.639976 0.904206 0.619396 0.196438
F2    F     F_    0.874657 0.166667 0.443433 -0.613947

loop_
_geom_bond_atom_site_label_1
_geom_bond_atom_site_label_2
_ccdc_geom_bond_type
C10   C27   A    
C21   C26   A    
C40   C41   A    
C1    O5    A    
C41   C42   S    
C12   O6    A    
C45   N1    A    
Cu1   Cu2   S    
C8    C53   A    
Cu2   O9    S    
C26   N2    S    
C47   N4    A    
C31   H2    S    
C36   C37   A    
C34   O11   A    
C50   H18   S    
C5    C6    A    
C9    C22   A    
C23   C40   S    
C20   O2    S    
C53   H25   S    
C18   C19   A    
Cu1   O6    S    
C43   H12   S    
C49   H16   S    
C21   H22   S    
C15   F2    S    
C16   C20   A    
C30   H24   S    
Cu2   O5    S    
C43   H13   S    
C21   C22   A    
C27   C30   A    
C39   H9    S    
C36   C41   A    
C4    C7    A    
C19   N2    A    
C4    C28   A    
Cu2   N3    S    
C38   H8    S    
C7    C31   A    
C24   C25   A    
Cu1   O10   S    
C2    H11   S    
C2    C54   A    
C8    C54   A    
C39   C40   A    
C16   C17   A    
C25   C26   A    
C5    C45   A    
C55   H28   S    
C23   O8    A    
Cu1   N4    S    
C37   C38   A    
C19   O4    S    
O13   C55   S    
C8    C12   S    
C3    N1    S    
C55   H27   S    
C17   C18   A    
C14   H23   S    
C34   O10   A    
C51   N1    A    
C47   H15   S    
C46   N3    A    
C48   C49   S    
C6    C30   A    
C11   C32   A    
C10   C14   A    
C9    C34   S    
C31   C35   A    
C42   C43   S    
C52   C53   A    
C44   C50   S    
C1    O1    A    
Cu2   O11   S    
C46   C47   A    
C28   C29   A    
C14   C15   A    
C12   O7    A    
C22   H21   S    
C4    C5    A    
C44   N3    A    
C10   C13   A    
C51   O3    S    
C3    C52   A    
C9    C24   A    
C6    H20   S    
C1    C37   S    
C29   C35   A    
C23   O9    A    
C13   C17   A    
C32   C33   A    
Cu1   O1    S    
C2    C3    A    
C7    C51   A    
C45   O12   S    
C50   H19   S    
C11   C13   A    
C38   C39   A    
C55   H26   S    
C49   H17   S    
C25   H6    S    
C18   C33   A    
C46   H14   S    
C52   H1    S    
C44   C48   A    
Cu2   O7    S    
C11   C29   A    
C33   H5    S    
C49   C50   S    
C20   N2    A    
C27   C28   A    
C42   H10   S    
C48   N4    A    
C54   F1    S    
C36   C43   S    
C35   H7    S    
C24   H4    S    
C32   H3    S    
C42   O13   S    
Cu1   O8    S    
C15   C16   A    
