data_mof_unit_pretest_48.cif
_audit_creation_date              2012-12-10T20:49:46-0500
_audit_creation_method            fapswitch 2.2
_symmetry_space_group_name_H-M    P1
_symmetry_Int_Tables_number       1
_space_group_crystal_system       triclinic
_cell_length_a                    8.091808
_cell_length_b                    8.921912
_cell_length_c                    17.257964
_cell_angle_alpha                 90.277158
_cell_angle_beta                  85.65366
_cell_angle_gamma                 90.008717
_cell_volume                      1242.33068975

loop_
_atom_site_label
_atom_site_type_symbol
_atom_type_description
_atom_site_fract_x
_atom_site_fract_y
_atom_site_fract_z
_atom_type_partial_charge
C1    C     C_R   0.500004 0.782054 0.500078 0.937314
C2    C     C_R   0.402045 0.573384 0.224981 -0.013144
C3    C     C_R   0.599276 0.448680 0.854321 -0.199828
C4    C     C_R   0.398397 0.547652 0.145948 -0.200079
C5    C     C_R   0.472244 0.530429 0.894626 0.193565
C6    C     C_R   0.524975 0.465289 0.105680 0.193584
C7    C     C_R   0.343113 0.591427 0.855974 -0.176668
C8    C     C_R   0.654852 0.405329 0.144221 -0.176342
C9    C     C_R   0.340797 0.571459 0.776582 -0.241347
C10   C     C_R   0.658361 0.426998 0.223463 -0.241085
C11   C     C_2   0.472178 0.551871 0.977660 -0.235815
C12   C     C_R   0.499998 0.217946 0.499905 0.937142
C13   C     C_2   0.524387 0.443207 0.022693 -0.236081
C14   C     C_R   0.728283 0.328966 0.735451 0.131209
C15   C     C_R   0.896697 0.362477 0.741510 -0.150633
C16   C     C_R   0.019824 0.273056 0.703463 -0.120142
C17   C     C_R   0.976101 0.149580 0.659289 -0.117112
C18   C     C_R   0.809113 0.114586 0.653524 -0.113843
C19   C     C_R   0.685498 0.203470 0.691575 -0.121697
C20   C     C_R   0.271332 0.670173 0.264450 0.131475
C21   C     C_R   0.314958 0.796174 0.307748 -0.122502
C22   C     C_R   0.191963 0.885907 0.345672 -0.113942
C23   C     C_1   0.500027 0.934802 0.500022 -0.233994
C24   C     C_R   0.024749 0.851257 0.340364 -0.117122
C25   C     C_R   0.980177 0.727249 0.296790 -0.120086
C26   C     C_R   0.102682 0.636975 0.258876 -0.150335
C27   C     C_1   0.499971 0.065198 0.499950 -0.234348
C28   C     C_R   0.478355 0.494889 0.652125 0.853544
C29   C     C_R   0.521622 0.505094 0.347870 0.853414
C30   C     C_R   0.468715 0.491580 0.735789 -0.080761
C31   C     C_R   0.530940 0.507606 0.264197 -0.081019
C32   C     C_R   0.596957 0.424857 0.775063 -0.013708
H1    H     H_    0.244821 0.654718 0.887227 0.131678
H2    H     H_    0.149188 0.299463 0.708192 0.145362
H3    H     H_    0.071639 0.080822 0.629701 0.134359
H4    H     H_    0.775425 0.018575 0.619528 0.140032
H5    H     H_    0.556567 0.174933 0.686661 0.096893
H6    H     H_    0.444066 0.824467 0.312307 0.096899
H7    H     H_    0.226310 0.982319 0.379208 0.139893
H8    H     H_    0.929698 0.920689 0.369845 0.134203
H9    H     H_    0.850636 0.701085 0.292423 0.145080
H10   H     H_    0.066160 0.540431 0.225927 0.125724
H11   H     H_    0.752856 0.341648 0.112994 0.131647
H12   H     H_    0.296393 0.592263 0.115984 0.129888
H13   H     H_    0.700741 0.403311 0.884388 0.129980
H14   H     H_    0.756795 0.375807 0.253391 0.159414
H15   H     H_    0.242812 0.623319 0.746627 0.159631
H16   H     H_    0.571725 0.337698 0.998419 0.150671
H17   H     H_    0.425006 0.657434 0.001937 0.150749
H18   H     H_    0.932551 0.458606 0.774949 0.125930
N1    N     N_1   0.926360 0.500000 0.499990 -0.031033
N2    N     N_1   0.073640 0.500000 0.500010 -0.031040
O1    O     O_R   0.363150 0.714660 0.500000 -0.612029
O2    O     O_R   0.636850 0.285340 0.500000 -0.612139
O3    O     O_R   0.636850 0.714660 0.500000 -0.624284
O4    O     O_R   0.363150 0.285340 0.500000 -0.624256
O5    O     O_R   0.346950 0.500000 0.615800 -0.634551
O6    O     O_R   0.653050 0.500000 0.384200 -0.634629
O7    O     O_R   0.620700 0.500000 0.615800 -0.605300
O8    O     O_R   0.379300 0.500000 0.384200 -0.605264
Zn1   Zn    Zn3+2 0.317220 0.500000 0.500010 0.983483
Zn2   Zn    Zn3+2 0.682780 0.500000 0.499990 0.983395

loop_
_geom_bond_atom_site_label_1
_geom_bond_atom_site_label_2
_ccdc_geom_bond_type
C10   H14   S    
C13   H16   S    
C2    C4    A    
C24   C25   A    
C8    H11   S    
O6    Zn2   S    
C11   H17   S    
C23   C27   T    
C11   C13   D    
C29   O8    A    
C21   C22   A    
C28   C30   S    
C17   C18   A    
C1    O3    A    
C29   C31   S    
C28   O5    A    
C29   O6    A    
C6    C13   S    
C30   C32   A    
C7    H1    S    
C12   O4    A    
N1    Zn2   S    
C20   C26   A    
C9    C30   A    
C22   H7    S    
C10   C31   A    
C4    C6    A    
O2    Zn2   S    
C24   H8    S    
C1    C23   S    
N2    Zn1   S    
C2    C31   A    
C5    C11   S    
C3    C32   A    
C22   C24   A    
C28   O7    A    
C9    H15   S    
C19   H5    S    
C12   C27   S    
C2    C20   S    
N1    N2    T    
O3    Zn2   S    
C7    C9    A    
C17   H3    S    
C20   C21   A    
C26   H10   S    
O1    Zn1   S    
C8    C10   A    
C18   C19   A    
C15   H18   S    
C25   H9    S    
O5    Zn1   S    
C5    C7    A    
C1    O1    A    
O4    Zn1   S    
C16   C17   A    
O7    Zn2   S    
C6    C8    A    
C4    H12   S    
C16   H2    S    
C25   C26   A    
C14   C15   A    
C18   H4    S    
C14   C19   A    
C3    H13   S    
C12   O2    A    
C21   H6    S    
C15   C16   A    
C14   C32   S    
O8    Zn1   S    
C3    C5    A    
