data_mof_unit_pretest_69.cif
_audit_creation_date              2012-12-10T17:04:27-0500
_audit_creation_method            fapswitch 2.2
_symmetry_space_group_name_H-M    P1
_symmetry_Int_Tables_number       1
_space_group_crystal_system       triclinic
_cell_length_a                    14.935039
_cell_length_b                    10.821591
_cell_length_c                    10.018927
_cell_angle_alpha                 89.398239
_cell_angle_beta                  90.566891
_cell_angle_gamma                 89.052415
_cell_volume                      1618.87501228

loop_
_atom_site_label
_atom_site_type_symbol
_atom_type_description
_atom_site_fract_x
_atom_site_fract_y
_atom_site_fract_z
_atom_type_partial_charge
C1    C     C_R   0.500038 0.261845 0.500913 0.883357
C2    C     C_R   0.189175 0.389035 0.489073 0.328200
C3    C     C_R   0.232076 0.501886 0.496873 -0.247869
C4    C     C_R   0.327276 0.501673 0.499272 1.016009
C5    C     C_R   0.185279 0.614749 0.500888 0.308788
C6    C     C_2   0.486960 0.931603 0.393162 -0.116795
C7    C     C_2   0.518328 0.863927 0.494993 -0.304712
C8    C     C_2   0.504618 0.062397 0.389696 -0.072318
C9    C     C_2   0.493205 0.128218 0.503723 0.245229
C10   C     C_2   0.554746 0.566838 0.923106 0.517481
C11   C     C_2   0.565171 0.540329 0.072589 -0.179434
C12   C     C_R   0.903877 0.608809 0.490190 0.084556
C13   C     C_R   0.502664 0.736179 0.499071 0.912208
C14   C     C_R   0.672810 0.498794 0.500530 0.953010
C15   C     C_R   0.811447 0.606448 0.492068 -0.308800
C16   C     C_R   0.768193 0.494357 0.501097 -0.075215
C17   C     C_R   0.815277 0.380944 0.509503 -0.040230
C18   C     C_R   0.909249 0.382272 0.507779 0.031037
C19   C     C_R   0.953440 0.497182 0.497680 0.113799
C20   C     C_2   0.538502 0.110857 0.260337 0.373036
C21   C     C_3   0.498439 0.095626 0.741238 0.144356
C22   C     C_3   0.602188 0.092833 0.743181 -0.430463
C23   C     C_R   0.960115 0.271913 0.511348 -0.225461
C24   C     C_3   0.639448 0.160947 0.863571 -0.897597
C25   C     C_3   0.669059 0.716626 0.927717 0.025779
C26   C     C_3   0.634473 0.818091 0.021188 -0.345845
C27   C     C_3   0.711866 0.880227 0.093223 -0.898620
C28   C     C_3   0.371896 0.604264 0.107166 0.185299
C29   C     C_3   0.271398 0.579706 0.101276 -0.344318
C30   C     C_3   0.216516 0.695664 0.132720 -0.999949
C31   C     C_2   0.766674 0.262496 0.518434 0.324336
C32   C     C_3   0.247811 0.243419 0.349931 0.058594
C33   C     C_3   0.259733 0.103149 0.345284 -0.336182
C34   C     C_R   0.052390 0.274755 0.506010 -0.124043
C35   C     C_3   0.275786 0.058569 0.203394 -0.930578
C36   C     C_3   0.232899 0.754401 0.653405 0.042417
C37   C     C_3   0.275808 0.880703 0.668472 -0.273817
C38   C     C_3   0.280834 0.919258 0.814345 -0.931525
C39   C     C_2   0.079047 0.847997 0.435793 0.395439
C40   C     C_R   0.096367 0.387544 0.496725 0.006902
C41   C     C_R   0.047076 0.500409 0.493796 -0.061762
C42   C     C_R   0.091289 0.615860 0.486740 -0.089196
C43   C     C_R   0.039699 0.726905 0.470441 0.025073
C44   C     C_R   0.946554 0.721556 0.476149 -0.217221
H1    H     H_    0.772497 0.692016 0.485321 0.138081
H2    H     H_    0.477198 0.023121 0.812945 0.163861
H3    H     H_    0.469792 0.181867 0.783244 0.183884
H4    H     H_    0.627264 0.995720 0.747429 0.206079
H5    H     H_    0.630042 0.136503 0.652955 0.240627
H6    H     H_    0.618526 0.259916 0.859399 0.263773
H7    H     H_    0.713752 0.155205 0.863317 0.253728
H8    H     H_    0.615436 0.118694 0.957477 0.301728
H9    H     H_    0.712632 0.761526 0.852842 0.174354
H10   H     H_    0.713395 0.647201 0.978943 0.125067
H11   H     H_    0.596050 0.888448 0.961866 0.247640
H12   H     H_    0.558875 0.901587 0.574062 0.177151
H13   H     H_    0.588567 0.779887 0.096902 0.223927
H14   H     H_    0.750642 0.811183 0.154075 0.256869
H15   H     H_    0.685390 0.952497 0.160668 0.284992
H16   H     H_    0.756938 0.924426 0.019940 0.259349
H17   H     H_    0.389069 0.669075 0.024821 0.103272
H18   H     H_    0.388333 0.649696 0.203009 0.184071
H19   H     H_    0.252932 0.547040 0.999992 0.216579
H20   H     H_    0.254804 0.506091 0.174720 0.232066
H21   H     H_    0.234574 0.729707 0.233363 0.282669
H22   H     H_    0.144106 0.674009 0.131091 0.271816
H23   H     H_    0.478313 0.420861 0.894608 0.178202
H24   H     H_    0.228999 0.769242 0.057615 0.267460
H25   H     H_    0.787935 0.191596 0.589793 0.066909
H26   H     H_    0.308026 0.287281 0.307194 0.190753
H27   H     H_    0.188429 0.269410 0.286233 0.133592
H28   H     H_    0.316909 0.073872 0.410171 0.251882
H29   H     H_    0.198651 0.059362 0.384442 0.233105
H30   H     H_    0.216207 0.079380 0.139314 0.264459
H31   H     H_    0.288193 0.957158 0.204851 0.263084
H32   H     H_    0.335020 0.104252 0.160213 0.302037
H33   H     H_    0.272225 0.684975 0.713393 0.169985
H34   H     H_    0.627189 0.561911 0.123067 0.124648
H35   H     H_    0.163440 0.760319 0.692974 0.154086
H36   H     H_    0.344447 0.877172 0.627119 0.258459
H37   H     H_    0.235821 0.951002 0.611119 0.233645
H38   H     H_    0.213026 0.920370 0.858900 0.259543
H39   H     H_    0.308388 0.013652 0.820936 0.281237
H40   H     H_    0.325344 0.854499 0.871869 0.255035
H41   H     H_    0.140660 0.852662 0.380228 0.118982
H42   H     H_    0.929665 0.182092 0.516424 0.174418
H43   H     H_    0.089193 0.187791 0.509770 0.216157
H44   H     H_    0.906530 0.805702 0.464744 0.184043
H45   H     H_    0.451073 0.890410 0.310163 0.184290
H46   H     H_    0.586601 0.184584 0.256563 0.154027
N1    N     N_2   0.500970 0.501330 0.852150 -0.214664
N2    N     N_2   0.500990 0.501360 0.147810 0.063208
O1    O     O_R   0.499990 0.319060 0.613040 -0.622343
O2    O     O_3   0.457227 0.068706 0.616020 -0.664273
O3    O     O_3   0.598228 0.662227 0.856033 -0.611023
O4    O     O_3   0.419218 0.491401 0.090466 -0.590649
O5    O     O_2   0.704039 0.241980 0.443362 -0.635718
O6    O     O_3   0.238625 0.279594 0.484600 -0.644447
O7    O     O_3   0.232981 0.722317 0.516990 -0.685937
O8    O     O_2   0.041335 0.944599 0.465876 -0.631735
O9    O     O_R   0.500010 0.319100 0.386900 -0.633564
O10   O     O_R   0.367830 0.499950 0.613080 -0.624010
O11   O     O_R   0.367860 0.499990 0.386940 -0.634309
O12   O     O_R   0.499990 0.680900 0.613100 -0.568647
O13   O     O_R   0.500010 0.680940 0.386960 -0.658142
O14   O     O_R   0.632140 0.500010 0.613060 -0.604949
O15   O     O_R   0.632170 0.500050 0.386920 -0.610798
O16   O     O_2   0.514483 0.065098 0.155315 -0.635243
Zn1   Zn    Zn3+2 0.499980 0.499970 0.650990 0.988796
Zn2   Zn    Zn3+2 0.500020 0.500030 0.349010 0.983871

loop_
_geom_bond_atom_site_label_1
_geom_bond_atom_site_label_2
_ccdc_geom_bond_type
C24   H8    S    
C22   H4    S    
O13   Zn2   S    
C29   H19   S    
C35   H30   S    
C38   H39   S    
C41   C42   A    
C5    C42   A    
C26   H11   S    
C36   H33   S    
C35   H31   S    
C26   C27   S    
C29   C30   S    
O11   Zn2   S    
C34   C40   A    
C36   C37   S    
C25   H9    S    
C27   H16   S    
O12   Zn1   S    
C21   O2    S    
C15   C16   A    
C4    O11   A    
N2    O4    S    
C18   C19   A    
C33   H28   S    
C11   N2    D    
C5    O7    S    
C8    C9    D    
C23   H42   S    
C4    O10   A    
C14   O15   A    
C28   H17   S    
C24   H7    S    
C29   H20   S    
C21   C22   S    
C38   H38   S    
C37   H37   S    
C7    H12   S    
C32   H27   S    
C24   H6    S    
C37   H36   S    
C35   H32   S    
C18   C23   A    
C1    C9    S    
C25   H10   S    
C13   O13   A    
C32   H26   S    
C16   C17   A    
C6    C8    S    
O9    Zn2   S    
C20   H46   S    
C36   H35   S    
C43   C44   A    
C37   C38   S    
C11   H34   S    
C12   C15   A    
C7    C13   S    
C23   C34   A    
H23   N1    S    
C17   C18   A    
C8    C20   S    
C13   O12   A    
C30   H22   S    
C22   H5    S    
C33   H29   S    
C40   C41   A    
C10   N1    D    
C25   O3    S    
C17   C31   S    
O15   Zn2   S    
C14   C16   S    
C42   C43   A    
C15   H1    S    
C3    C4    S    
C1    O9    A    
C21   H2    S    
C28   C29   S    
C38   H40   S    
C3    C5    A    
C27   H14   S    
C39   C43   S    
C6    C7    D    
C6    H45   S    
C28   O4    S    
C32   C33   S    
N1    Zn1   S    
C2    C3    A    
C25   C26   S    
C12   C44   A    
C27   H15   S    
N2    Zn2   S    
C39   O8    D    
C10   O3    S    
C12   C19   A    
C33   C35   S    
C32   O6    S    
C36   O7    S    
C22   C24   S    
C34   H43   S    
C31   O5    D    
C26   H13   S    
C30   H21   S    
C10   C11   S    
C2    C40   A    
C31   H25   S    
C2    O6    S    
C1    O1    A    
C14   O14   A    
C39   H41   S    
O10   Zn1   S    
C21   H3    S    
C44   H44   S    
C9    O2    S    
C30   H24   S    
C19   C41   A    
O1    Zn1   S    
C20   O16   D    
O14   Zn1   S    
C28   H18   S    
