data_mof_unit_pretest_1435.cif
_audit_creation_date              2012-12-10T16:50:11-0500
_audit_creation_method            fapswitch 2.2
_symmetry_space_group_name_H-M    P1
_symmetry_Int_Tables_number       1
_space_group_crystal_system       triclinic
_cell_length_a                    7.770976
_cell_length_b                    8.580875
_cell_length_c                    10.668309
_cell_angle_alpha                 92.086722
_cell_angle_beta                  85.124026
_cell_angle_gamma                 93.555887
_cell_volume                      707.09575655

loop_
_atom_site_label
_atom_site_type_symbol
_atom_type_description
_atom_site_fract_x
_atom_site_fract_y
_atom_site_fract_z
_atom_type_partial_charge
C1    C     C_R   0.545623 0.793739 0.486168 0.924322
C2    C     C_R   0.455091 0.205366 0.492605 0.962857
C3    C     C_R   0.499752 0.503964 0.260295 0.900877
C4    C     C_R   0.339518 0.762631 0.888556 -0.150280
C5    C     C_R   0.256209 0.876072 0.963495 -0.152344
C6    C     C_R   0.257537 0.874657 0.093585 -0.175525
C7    C     C_R   0.340114 0.758834 0.149308 -0.156593
C8    C     C_R   0.418940 0.638179 0.075186 0.032037
C9    C     C_3   0.594388 0.135804 0.069133 0.087012
C10   C     C_3   0.727113 0.045030 0.987057 -0.837515
C11   C     C_3   0.740070 0.007805 0.376771 -0.362324
C12   C     C_R   0.419925 0.641357 0.943647 0.100173
C13   C     C_3   0.807678 0.890456 0.275260 -0.849715
C14   C     C_R   0.507370 0.525551 0.871145 -0.193517
C15   C     C_R   0.597175 0.414286 0.924555 -0.298603
C16   C     C_R   0.587962 0.403083 0.052869 0.492996
C17   C     C_R   0.500994 0.515910 0.127788 -0.235025
C18   C     C_2   0.569317 0.952232 0.449849 -0.032155
C19   C     C_2   0.433923 0.040893 0.483429 -0.475921
C20   C     C_R   0.502839 0.511612 0.739076 0.904230
H1    H     H_    0.667684 0.330327 0.865774 0.181483
H2    H     H_    0.556083 0.069842 0.155385 0.173467
H3    H     H_    0.857716 0.066062 0.021155 0.264906
H4    H     H_    0.689834 0.918075 0.989268 0.229612
H5    H     H_    0.732920 0.080578 0.887891 0.228230
H6    H     H_    0.878321 0.798628 0.315905 0.285353
H7    H     H_    0.700492 0.835884 0.223302 0.249391
H8    H     H_    0.901676 0.951961 0.207624 0.240907
H9    H     H_    0.724172 0.115116 0.325316 0.257030
H10   H     H_    0.840575 0.034039 0.443892 0.212959
H11   H     H_    0.986281 0.618991 0.594982 0.192519
H12   H     H_    0.343277 0.773632 0.787763 0.145237
H13   H     H_    0.195352 0.968330 0.920361 0.135404
H14   H     H_    0.200090 0.967047 0.151381 0.130796
H15   H     H_    0.344164 0.768095 0.250140 0.161770
H16   H     H_    0.309297 0.992450 0.523127 0.168376
H17   H     H_    0.013680 0.381051 0.404949 0.196036
H18   H     H_    0.474130 0.139788 0.019449 0.129878
N1    N     N_2   0.950330 0.457950 0.466250 -0.176729
N2    N     N_2   0.049670 0.542050 0.533750 -0.175394
O1    O     O_R   0.389250 0.738570 0.508280 -0.652913
O2    O     O_R   0.678390 0.711630 0.486650 -0.624371
O3    O     O_R   0.355400 0.513470 0.694050 -0.614243
O4    O     O_R   0.644540 0.486530 0.672420 -0.621297
O5    O     O_R   0.321610 0.288370 0.513350 -0.620435
O6    O     O_R   0.610750 0.261430 0.491720 -0.618239
O7    O     O_R   0.355460 0.513470 0.327580 -0.641508
O8    O     O_R   0.644600 0.486530 0.305950 -0.579844
O9    O     O_3   0.667376 0.284226 0.106430 -0.614320
Zn1   Zn    Zn3+2 0.306930 0.517990 0.514440 0.928246
Zn2   Zn    Zn3+2 0.693070 0.482010 0.485560 0.942709

loop_
_geom_bond_atom_site_label_1
_geom_bond_atom_site_label_2
_ccdc_geom_bond_type
O1    Zn1   S    
N1    Zn2   S    
C13   H8    S    
C6    C7    A    
C10   H3    S    
C4    C12   A    
C9    C10   S    
C1    O2    A    
C8    C17   A    
O2    Zn2   S    
C8    C12   A    
C2    C19   S    
C7    C8    A    
C11   C18   S    
C2    O6    A    
C11   C13   S    
C11   H9    S    
C1    C18   S    
C4    H12   S    
O5    Zn1   S    
N2    Zn1   S    
C10   H5    S    
C3    O7    A    
C9    H18   S    
C20   O4    A    
C12   C14   A    
C3    C17   S    
O7    Zn1   S    
C19   H16   S    
C2    O5    A    
C5    C6    A    
C13   H6    S    
C9    H2    S    
C16   C17   A    
C15   C16   A    
O3    Zn1   S    
C14   C20   S    
C3    O8    A    
C15   H1    S    
C20   O3    A    
C9    O9    S    
C16   O9    S    
O4    Zn2   S    
H17   N1    S    
C18   C19   D    
C1    O1    A    
N1    N2    D    
C14   C15   A    
C13   H7    S    
C10   H4    S    
H11   N2    S    
C7    H15   S    
O6    Zn2   S    
O8    Zn2   S    
C6    H14   S    
C11   H10   S    
C4    C5    A    
C5    H13   S    
