data_mof_unit_pretest_504.cif
_audit_creation_date              2012-10-26T19:52:24-0400
_audit_creation_method            fapswitch 2.2
_symmetry_space_group_name_H-M    P1
_symmetry_Int_Tables_number       1
_space_group_crystal_system       triclinic
_cell_length_a                    9.55402
_cell_length_b                    10.821822
_cell_length_c                    13.396547
_cell_angle_alpha                 90.427986
_cell_angle_beta                  72.282386
_cell_angle_gamma                 90.162708
_cell_volume                      1319.3596121

loop_
_atom_site_label
_atom_site_type_symbol
_atom_type_description
_atom_site_fract_x
_atom_site_fract_y
_atom_site_fract_z
_atom_type_partial_charge
C1    C     C_R   0.499535 0.737639 0.501723 0.547875
C2    C     C_R   0.373269 0.496496 0.815804 0.001851
C3    C     C_R   0.367118 0.935891 0.521402 -0.002916
C4    C     C_R   0.421054 0.495992 0.700387 0.537866
C5    C     C_R   0.496249 0.870753 0.512049 -0.011667
C6    C     C_R   0.620780 0.936132 0.518174 -0.154774
C7    C     C_R   0.620364 0.064909 0.518302 -0.163306
C8    C     C_R   0.495286 0.129250 0.512540 -0.024500
C9    C     C_R   0.366092 0.063064 0.522368 0.087136
C10   C     C_3   0.260572 0.068157 0.459901 0.104695
C11   C     C_3   0.262665 0.927606 0.458369 -0.222767
C12   C     C_R   0.438868 0.495882 0.978563 0.031219
C13   C     C_R   0.965533 0.491035 0.408209 0.155584
C14   C     C_R   0.888003 0.520787 0.589643 0.004669
C15   C     C_R   0.036337 0.520564 0.589649 0.018490
C16   C     C_R   0.499102 0.262316 0.501925 0.543855
C17   C     C_R   0.112754 0.490802 0.408296 0.152895
C18   C     C_3   0.151390 0.387070 0.331091 -0.260538
C19   C     C_3   0.992905 0.387755 0.330384 -0.268124
C20   C     C_R   0.578707 0.498370 0.300058 0.539640
C21   C     C_R   0.759551 0.356046 0.038644 -0.142168
C22   C     C_R   0.624436 0.480595 0.186637 0.020630
C23   C     C_R   0.468914 0.458723 0.872480 0.024618
C24   C     C_R   0.235420 0.546349 0.870109 -0.125356
C25   C     C_R   0.195427 0.563299 0.978076 -0.141150
C26   C     C_R   0.296219 0.539698 0.031862 -0.133772
C27   C     C_3   0.476446 0.663485 0.157044 -0.287226
C28   C     C_3   0.587014 0.757116 0.174991 -0.433654
C29   C     C_R   0.547836 0.477322 0.029643 0.035926
C30   C     C_R   0.665161 0.394310 0.983086 0.033535
C31   C     C_R   0.684388 0.346800 0.882850 -0.146339
C32   C     C_R   0.589622 0.380364 0.827411 -0.131580
C33   C     C_R   0.544543 0.535659 0.125822 -0.001206
C34   C     C_R   0.733788 0.393525 0.141832 -0.157665
Cl1   Cl    Cl    0.087229 0.130056 0.535544 -0.653841
Cu1   Cu    Cu3+1 0.359330 0.500020 0.500010 0.963307
Cu2   Cu    Cu3+1 0.640670 0.499980 0.499990 0.936766
H1    H     H_    0.795892 0.351093 0.187755 0.117023
H2    H     H_    0.982121 0.418326 0.254152 0.114581
H3    H     H_    0.773152 0.283073 0.847059 0.133965
H4    H     H_    0.931458 0.302275 0.362826 0.171396
H5    H     H_    0.846710 0.290225 0.004803 0.119824
H6    H     H_    0.158913 0.573498 0.828975 0.123489
H7    H     H_    0.259693 0.553242 0.115697 0.099727
H8    H     H_    0.087249 0.598308 0.019939 0.120796
H9    H     H_    0.607191 0.337628 0.751397 0.154072
H10   H     H_    0.720684 0.888547 0.517419 0.156723
H11   H     H_    0.617061 0.735532 0.246633 0.156943
H12   H     H_    0.720140 0.113249 0.517498 0.179101
H13   H     H_    0.687902 0.758351 0.106376 0.156623
H14   H     H_    0.537484 0.850939 0.185390 0.131169
H15   H     H_    0.438985 0.703787 0.093796 0.150981
H16   H     H_    0.380250 0.657603 0.228609 0.157462
H17   H     H_    0.308157 0.110396 0.381433 0.105777
H18   H     H_    0.156837 0.883996 0.503002 0.181225
H19   H     H_    0.314451 0.887805 0.378903 0.098006
H20   H     H_    0.803262 0.536966 0.662861 0.127834
H21   H     H_    0.060111 0.535863 0.662590 0.114005
H22   H     H_    0.230573 0.415426 0.255411 0.118817
H23   H     H_    0.182441 0.301889 0.364590 0.191668
N1    N     N_R   0.852320 0.499070 0.499340 -0.226461
N2    N     N_R   0.148230 0.499110 0.499340 -0.216797
O1    O     O_R   0.381190 0.680360 0.500000 -0.502337
O2    O     O_R   0.618780 0.680320 0.499990 -0.503226
O3    O     O_R   0.323230 0.500000 0.650990 -0.504354
O4    O     O_R   0.560820 0.499960 0.650980 -0.517950
O5    O     O_R   0.381220 0.319680 0.500010 -0.460742
O6    O     O_R   0.618810 0.319640 0.500000 -0.508852
O7    O     O_R   0.439180 0.500040 0.349020 -0.510532
O8    O     O_R   0.676770 0.500000 0.349010 -0.507966

loop_
_geom_bond_atom_site_label_1
_geom_bond_atom_site_label_2
_ccdc_geom_bond_type
C2    C4    S    
C24   C25   A    
C27   H16   S    
C6    C7    A    
C3    C9    A    
C25   H8    S    
C12   C29   A    
Cu1   O1    S    
C21   C30   A    
Cu2   N1    S    
C31   C32   A    
C13   C17   A    
C11   H18   S    
C23   C32   A    
Cu1   O3    S    
C17   C18   S    
C25   C26   A    
Cu1   O5    S    
C26   H7    S    
C7    C8    A    
C8    C16   S    
C16   O5    A    
Cu2   O8    S    
C27   H15   S    
C22   C34   A    
C4    O4    A    
C12   C23   A    
C20   O8    A    
C4    O3    A    
C19   H2    S    
C22   C33   A    
C16   O6    A    
C5    C6    A    
C1    O1    A    
C9    C10   S    
C18   H23   S    
Cu1   Cu2   S    
C28   H14   S    
C15   N2    A    
C20   C22   S    
C17   N2    A    
Cu2   O4    S    
C2    C24   A    
C30   C31   A    
C10   H17   S    
C15   H21   S    
C1    C5    S    
C20   O7    A    
C3    C11   S    
C6    H10   S    
C13   C19   S    
C29   C30   A    
C21   H5    S    
C10   Cl1   S    
Cu2   O6    S    
C29   C33   A    
C18   H22   S    
C27   C28   S    
Cu2   O2    S    
C13   N1    A    
Cu1   O7    S    
C7    H12   S    
C18   C19   S    
C10   C11   S    
C2    C23   A    
C14   H20   S    
C24   H6    S    
C28   H13   S    
C14   C15   A    
C28   H11   S    
C21   C34   A    
C3    C5    A    
C31   H3    S    
C34   H1    S    
C14   N1    A    
C32   H9    S    
C1    O2    A    
C27   C33   S    
C11   H19   S    
C19   H4    S    
C12   C26   A    
C8    C9    A    
Cu1   N2    S    
