data_mof_unit_pretest_1809.cif
_audit_creation_date              2012-12-11T15:51:12-0500
_audit_creation_method            fapswitch 2.2
_symmetry_space_group_name_H-M    P1
_symmetry_Int_Tables_number       1
_space_group_crystal_system       triclinic
_cell_length_a                    27.915452
_cell_length_b                    22.218667
_cell_length_c                    20.707233
_cell_angle_alpha                 90.083178
_cell_angle_beta                  52.56606
_cell_angle_gamma                 90.254191
_cell_volume                      10198.3601248

loop_
_atom_site_label
_atom_site_type_symbol
_atom_type_description
_atom_site_fract_x
_atom_site_fract_y
_atom_site_fract_z
_atom_type_partial_charge
Br1   Br    Br    0.196501 0.812027 0.165859 -0.402815
Br2   Br    Br    0.172886 0.163363 0.498562 -0.441502
Br3   Br    Br    0.794442 0.262944 0.318848 -0.434346
Br4   Br    Br    0.672917 0.663381 0.498508 -0.439938
Br5   Br    Br    0.881516 0.719524 0.560925 -0.544595
Br6   Br    Br    0.933533 0.269248 0.502763 -0.526824
Br7   Br    Br    0.381519 0.219525 0.560919 -0.545199
Br8   Br    Br    0.433527 0.769247 0.502769 -0.525230
Br9   Br    Br    0.081094 0.856780 0.171164 -0.429986
Br10  Br    Br    0.276582 0.419527 0.957309 -0.426281
Br11  Br    Br    0.586811 0.358607 0.173947 -0.431070
Br12  Br    Br    0.168927 0.315471 0.043310 -0.423228
Br13  Br    Br    0.779461 0.920777 0.956864 -0.431912
Br14  Br    Br    0.703168 0.305949 0.161203 -0.402007
Br15  Br    Br    0.670206 0.818519 0.040768 -0.423313
Br16  Br    Br    0.695048 0.243238 0.852689 -0.422891
Br17  Br    Br    0.934933 0.730025 0.943203 -0.407184
Br18  Br    Br    0.202021 0.737871 0.848984 -0.424308
Br19  Br    Br    0.436627 0.233024 0.940744 -0.406211
Br20  Br    Br    0.294365 0.762996 0.318944 -0.438672
C1    C     C_R   0.927085 0.581302 0.729179 -0.130431
C2    C     C_R   0.146467 0.613342 0.489074 0.067598
C3    C     C_R   0.425432 0.152780 0.656394 -0.053190
C4    C     C_R   0.914158 0.640516 0.729341 0.058403
C5    C     C_R   0.860752 0.392694 0.739207 0.055163
C6    C     C_R   0.414161 0.140520 0.729336 0.058511
C7    C     C_R   0.360746 0.892699 0.739200 0.054893
C8    C     C_R   0.889921 0.360004 0.448399 0.010429
C9    C     C_R   0.855151 0.615618 0.501764 0.001088
C10   C     C_R   0.389916 0.860006 0.448406 0.010220
C11   C     C_R   0.355150 0.115617 0.501767 0.001004
C12   C     C_R   0.094342 0.419794 0.575903 -0.136531
C13   C     C_R   0.611173 0.862136 0.547083 0.075147
C14   C     C_R   0.115732 0.565512 0.541291 -0.110109
C15   C     C_R   0.594342 0.919794 0.575903 -0.136578
C16   C     C_R   0.615730 0.065514 0.541295 -0.110223
C17   C     C_R   0.070892 0.579031 0.271032 -0.134324
C18   C     C_R   0.101621 0.439333 0.264230 -0.074993
C19   C     C_R   0.570898 0.079037 0.271029 -0.136064
C20   C     C_R   0.601619 0.939329 0.264229 -0.074861
C21   C     C_R   0.111752 0.635646 0.467519 -0.088864
C22   C     C_R   0.089778 0.349576 0.503590 -0.086334
C23   C     C_R   0.611750 0.135648 0.467523 -0.088411
C24   C     C_R   0.646464 0.113346 0.489080 0.067613
C25   C     C_R   0.589778 0.849576 0.503589 -0.086167
C26   C     C_2   0.560039 0.282730 0.095108 0.576126
C27   C     C_2   0.854740 0.897960 0.997412 0.564038
C28   C     C_2   0.061024 0.776358 0.089164 0.577108
C29   C     C_2   0.353573 0.399453 0.995667 0.564757
C30   C     C_2   0.208757 0.651642 0.999672 0.626397
C31   C     C_2   0.277302 0.234385 0.136110 0.617864
C32   C     C_2   0.703290 0.151028 0.998136 0.626478
C33   C     C_2   0.774823 0.732964 0.136800 0.617781
C34   C     C_R   0.084941 0.638846 0.269547 0.078603
C35   C     C_R   0.135330 0.391669 0.259861 0.056113
C36   C     C_R   0.584954 0.138851 0.269548 0.078968
C37   C     C_R   0.635326 0.891662 0.259859 0.055735
C38   C     C_3   0.659433 0.342447 0.000398 -0.354931
C39   C     C_3   0.861812 0.821294 0.898298 -0.349797
C40   C     C_3   0.158320 0.839679 0.997521 -0.354274
C41   C     C_R   0.895916 0.438206 0.735463 -0.120456
C42   C     C_3   0.360631 0.321516 0.897795 -0.349993
C43   C     C_3   0.247016 0.817829 0.995985 -0.536902
C44   C     C_3   0.277991 0.245293 0.951367 -0.529092
C45   C     C_3   0.749443 0.314401 0.993190 -0.536491
C46   C     C_3   0.778161 0.746639 0.950121 -0.528834
C47   C     C_3   0.211028 0.775395 0.069341 0.310792
C48   C     C_3   0.236035 0.276784 0.033520 0.303208
C49   C     C_3   0.713221 0.271874 0.066374 0.310109
C50   C     C_3   0.736075 0.778076 0.032292 0.303487
C51   C     C_1   0.101096 0.679929 0.207496 0.061191
C52   C     C_R   0.427087 0.081305 0.729177 -0.130674
C53   C     C_1   0.189035 0.370453 0.187690 0.068556
C54   C     C_1   0.601107 0.179959 0.207520 0.062211
C55   C     C_1   0.689036 0.870444 0.187694 0.067991
C56   C     C_3   0.723134 0.314096 0.945519 0.102829
C57   C     C_3   0.844605 0.753779 0.917360 0.097438
C58   C     C_3   0.223176 0.813946 0.945383 0.102512
C59   C     C_3   0.344596 0.253825 0.917316 0.097405
C60   C     C_3   0.617252 0.305085 0.081470 0.202047
C61   C     C_3   0.819625 0.860297 0.977292 0.205968
C62   C     C_3   0.116072 0.802254 0.078537 0.201479
C63   C     C_R   0.395911 0.938208 0.735462 -0.121164
C64   C     C_3   0.318420 0.360506 0.976777 0.205375
C65   C     C_3   0.154635 0.749954 0.078576 -0.066546
C66   C     C_3   0.273693 0.316698 0.050671 -0.065353
C67   C     C_3   0.654606 0.250121 0.078730 -0.066250
C68   C     C_3   0.773709 0.816656 0.050714 -0.064750
C69   C     C_R   0.904742 0.418508 0.422777 -0.168826
C70   C     C_R   0.884402 0.566185 0.454519 -0.163597
C71   C     C_R   0.404739 0.918509 0.422781 -0.169130
C72   C     C_R   0.384400 0.066185 0.454521 -0.163645
C73   C     C_3   0.178802 0.709347 0.002070 -0.436763
C74   C     C_R   0.105876 0.364889 0.335487 -0.078599
C75   C     C_3   0.313404 0.272945 0.059996 -0.425714
C76   C     C_3   0.675105 0.210683 0.002665 -0.437137
C77   C     C_3   0.812146 0.771644 0.060907 -0.426077
C78   C     C_3   0.719153 0.247977 0.923746 0.174321
C79   C     C_3   0.850923 0.731566 0.983248 0.168662
C80   C     C_3   0.222742 0.746888 0.923420 0.174480
C81   C     C_3   0.352222 0.232792 0.982398 0.168795
C82   C     C_1   0.120681 0.713077 0.151514 0.018052
C83   C     C_1   0.230631 0.348919 0.125777 0.014637
C84   C     C_1   0.620684 0.213164 0.151594 0.017414
C85   C     C_R   0.074897 0.653492 0.341474 -0.086198
C86   C     C_1   0.730640 0.848902 0.125796 0.014781
C87   C     C_1   0.765087 0.347991 0.871680 0.043495
C88   C     C_1   0.879320 0.716917 0.844905 0.052005
C89   C     C_1   0.265097 0.847926 0.871619 0.043051
C90   C     C_1   0.379315 0.216941 0.844882 0.052140
C91   C     C_1   0.806627 0.370751 0.810569 0.011289
C92   C     C_1   0.898932 0.682979 0.789707 0.010337
C93   C     C_1   0.306628 0.870737 0.810549 0.011875
C94   C     C_1   0.398931 0.182989 0.789697 0.010204
C95   C     C_1   0.203576 0.635553 0.462551 0.013418
C96   C     C_R   0.605873 0.864885 0.335487 -0.079171
C97   C     C_1   0.132871 0.319172 0.573856 0.011463
C98   C     C_1   0.703570 0.135561 0.462563 0.013778
C99   C     C_1   0.632870 0.819171 0.573856 0.011466
C100  C     C_2   0.302648 0.686626 0.423728 -0.271293
C101  C     C_2   0.183600 0.237113 0.603671 -0.278958
C102  C     C_2   0.802640 0.186630 0.423756 -0.271498
C103  C     C_2   0.683595 0.737105 0.603669 -0.279235
C104  C     C_2   0.821669 0.237420 0.380241 0.348217
C105  C     C_2   0.701602 0.687119 0.558974 0.351312
C106  C     C_2   0.321647 0.737436 0.380259 0.347856
C107  C     C_R   0.574906 0.153491 0.341477 -0.084539
C108  C     C_2   0.201595 0.187117 0.558995 0.351124
C109  C     C_1   0.850956 0.280682 0.396456 0.016137
C110  C     C_1   0.753812 0.658252 0.540621 0.011280
C111  C     C_1   0.350938 0.780689 0.396475 0.016250
C112  C     C_1   0.253807 0.158250 0.540635 0.011192
C113  C     C_1   0.250328 0.656509 0.442565 0.155866
C114  C     C_1   0.153512 0.282097 0.592057 0.156685
C115  C     C_1   0.750321 0.156517 0.442583 0.155827
C116  C     C_1   0.653509 0.782093 0.592057 0.156602
C117  C     C_R   0.889350 0.638759 0.523924 0.321294
C118  C     C_R   0.111172 0.362136 0.547084 0.075169
C119  C     C_R   0.911804 0.348083 0.491493 0.292473
C120  C     C_R   0.389350 0.138759 0.523925 0.321008
C121  C     C_R   0.411801 0.848084 0.491497 0.292289
C122  C     C_1   0.870436 0.316917 0.417915 0.083099
C123  C     C_1   0.799913 0.638173 0.522996 0.076345
C124  C     C_1   0.370424 0.816920 0.417931 0.082708
C125  C     C_1   0.299910 0.138171 0.523004 0.076086
C126  C     C_R   0.890925 0.367550 0.663035 -0.072019
C127  C     C_R   0.925431 0.652779 0.656398 -0.053513
C128  C     C_R   0.390924 0.867553 0.663030 -0.071053
H1    H     H_    0.932376 0.559744 0.771299 0.119145
H2    H     H_    0.265934 0.196554 0.959193 0.168045
H3    H     H_    0.797530 0.299911 0.953453 0.170264
H4    H     H_    0.765350 0.698136 0.957519 0.168028
H5    H     H_    0.748565 0.360999 0.013715 0.238764
H6    H     H_    0.772447 0.765888 0.905567 0.244612
H7    H     H_    0.243549 0.865009 0.016566 0.238696
H8    H     H_    0.271305 0.263684 0.907372 0.244470
H9    H     H_    0.241024 0.737337 0.057525 0.071613
H10   H     H_    0.212268 0.241264 0.080938 0.074459
H11   H     H_    0.741992 0.232178 0.052762 0.071421
H12   H     H_    0.885615 0.466724 0.784666 0.115233
H13   H     H_    0.711380 0.742518 0.079485 0.074172
H14   H     H_    0.765325 0.228397 0.887901 0.096478
H15   H     H_    0.835089 0.683937 0.998165 0.090720
H16   H     H_    0.269579 0.729344 0.889632 0.096415
H17   H     H_    0.337188 0.184958 0.997717 0.090656
H18   H     H_    0.139676 0.695066 0.004124 0.229970
H19   H     H_    0.344154 0.300633 0.065236 0.230418
H20   H     H_    0.634439 0.199130 0.007017 0.230377
H21   H     H_    0.842919 0.798379 0.067064 0.230257
H22   H     H_    0.641383 0.345904 0.965372 0.231667
H23   H     H_    0.432376 0.059749 0.771299 0.118749
H24   H     H_    0.910384 0.826705 0.870159 0.229932
H25   H     H_    0.141906 0.840614 0.960375 0.231683
H26   H     H_    0.409264 0.327879 0.868754 0.230006
H27   H     H_    0.904179 0.439345 0.376066 0.140353
H28   H     H_    0.871378 0.538182 0.424810 0.142453
H29   H     H_    0.404174 0.939346 0.376072 0.140373
H30   H     H_    0.371376 0.038181 0.424814 0.142421
H31   H     H_    0.817576 0.174982 0.459922 0.161697
H32   H     H_    0.702546 0.749976 0.634623 0.159365
H33   H     H_    0.317612 0.674956 0.459856 0.161917
H34   H     H_    0.385608 0.966726 0.784667 0.115177
H35   H     H_    0.202564 0.249991 0.634606 0.159422
H36   H     H_    0.874872 0.331148 0.646393 0.164029
H37   H     H_    0.932813 0.697373 0.631642 0.165077
H38   H     H_    0.374874 0.831148 0.646388 0.164751
H39   H     H_    0.432815 0.197373 0.631636 0.165112
H40   H     H_    0.095093 0.440237 0.622723 0.115785
H41   H     H_    0.129920 0.538153 0.569912 0.117094
H42   H     H_    0.595093 0.940237 0.622723 0.115634
H43   H     H_    0.629917 0.038156 0.569918 0.117018
H44   H     H_    0.065144 0.557558 0.229213 0.134155
H45   H     H_    0.663552 0.389729 0.014243 0.196042
H46   H     H_    0.112725 0.467645 0.214493 0.139152
H47   H     H_    0.565150 0.057570 0.229207 0.134952
H48   H     H_    0.612723 0.967643 0.214492 0.138860
H49   H     H_    0.122295 0.673169 0.427633 0.135887
H50   H     H_    0.086235 0.305488 0.484546 0.147024
H51   H     H_    0.622292 0.173173 0.427640 0.136272
H52   H     H_    0.586235 0.805488 0.484545 0.147186
H53   H     H_    0.120848 0.326771 0.351170 0.130713
H54   H     H_    0.073656 0.698247 0.363100 0.146965
H55   H     H_    0.620844 0.826766 0.351171 0.131271
H56   H     H_    0.857623 0.835808 0.850536 0.201982
H57   H     H_    0.573667 0.198244 0.363107 0.146701
H58   H     H_    0.526959 0.257736 0.150169 0.041038
H59   H     H_    0.830230 0.927892 0.049493 0.034789
H60   H     H_    0.028015 0.751010 0.143896 0.040659
H61   H     H_    0.329012 0.429497 0.047624 0.034603
H62   H     H_    0.251679 0.652837 0.989610 0.002421
H63   H     H_    0.248115 0.198671 0.142405 0.005719
H64   H     H_    0.747048 0.149545 0.985627 0.004528
H65   H     H_    0.745301 0.697998 0.142314 0.005804
H66   H     H_    0.159917 0.887653 0.011560 0.196442
H67   H     H_    0.355520 0.335184 0.850615 0.202017
H68   H     H_    0.295637 0.805373 0.958284 0.170028
N1    N     N_R   0.945170 0.558260 0.657960 -0.050408
N2    N     N_R   0.935930 0.399220 0.495700 -0.077313
N3    N     N_R   0.435930 0.100780 0.495700 -0.077634
N4    N     N_R   0.435930 0.899220 0.495700 -0.077464
N5    N     N_R   0.942620 0.398370 0.613240 -0.045259
N6    N     N_R   0.942620 0.601630 0.613240 -0.052963
N7    N     N_R   0.442620 0.898370 0.613240 -0.045450
N8    N     N_R   0.442620 0.101630 0.613240 -0.052995
N9    N     N_R   0.064810 0.441760 0.549020 -0.048181
N10   N     N_R   0.064810 0.558240 0.549020 -0.048526
N11   N     N_R   0.564810 0.941760 0.549020 -0.048136
N12   N     N_R   0.945170 0.441740 0.657960 -0.048871
N13   N     N_R   0.564810 0.058240 0.549020 -0.048502
N14   N     N_R   0.053030 0.555470 0.342040 -0.050590
N15   N     N_R   0.053030 0.444530 0.342040 -0.054102
N16   N     N_R   0.553030 0.055470 0.342040 -0.050404
N17   N     N_R   0.553030 0.944530 0.342040 -0.054017
N18   N     N_R   0.062260 0.600860 0.504300 -0.053086
N19   N     N_R   0.062260 0.399140 0.504300 -0.050499
N20   N     N_R   0.562260 0.100860 0.504300 -0.053185
N21   N     N_R   0.562260 0.899140 0.504300 -0.050503
N22   N     N_R   0.055570 0.396370 0.386760 -0.043766
N23   N     N_R   0.445170 0.058260 0.657960 -0.050327
N24   N     N_R   0.055570 0.603630 0.386760 -0.055297
N25   N     N_R   0.555570 0.896370 0.386760 -0.043795
N26   N     N_R   0.555570 0.103630 0.386760 -0.055451
N27   N     N_R   0.445170 0.941740 0.657960 -0.048813
N28   N     N_R   0.933380 0.440900 0.450980 -0.061454
N29   N     N_R   0.933380 0.559100 0.450980 -0.061767
N30   N     N_R   0.433380 0.940900 0.450980 -0.061427
N31   N     N_R   0.433380 0.059100 0.450980 -0.061719
N32   N     N_R   0.935930 0.600780 0.495700 -0.077576
Ni1   Ni    Ni4+2 0.004930 0.500000 0.602560 0.221558
Ni2   Ni    Ni4+2 0.504930 1.000000 0.602560 0.221433
Ni3   Ni    Ni4+2 0.993260 0.500000 0.397440 0.227130
Ni4   Ni    Ni4+2 0.493260 1.000000 0.397440 0.227186
Ni5   Ni    Ni4+2 0.999100 0.599910 0.500000 0.247583
Ni6   Ni    Ni4+2 0.999100 0.400090 0.500000 0.271171
Ni7   Ni    Ni4+2 0.499100 0.099910 0.500000 0.247485
Ni8   Ni    Ni4+2 0.499100 0.900090 0.500000 0.271188
O1    O     O_2   0.549815 0.291879 0.046391 -0.507922
O2    O     O_2   0.909615 0.895860 0.957093 -0.523180
O3    O     O_2   0.052458 0.783044 0.038378 -0.506614
O4    O     O_2   0.408533 0.398263 0.954498 -0.522963
O5    O     O_2   0.185190 0.602921 0.007971 -0.514160
O6    O     O_2   0.281336 0.242561 0.190968 -0.522523
O7    O     O_2   0.677297 0.103745 0.007469 -0.514727
O8    O     O_2   0.778223 0.740188 0.192366 -0.522359

loop_
_geom_bond_atom_site_label_1
_geom_bond_atom_site_label_2
_ccdc_geom_bond_type
N10   Ni1   S    
C26   C60   S    
C28   O3    D    
N26   Ni7   S    
N28   Ni3   S    
C70   H28   S    
C22   C118  A    
C16   H43   S    
C13   C25   A    
C42   H67   S    
N21   Ni8   S    
N14   N24   A    
C97   C118  S    
C4    C92   S    
C50   C68   S    
C39   C57   S    
C49   C67   S    
C38   C56   S    
N30   Ni4   S    
N31   Ni4   S    
C127  H37   S    
C25   H52   S    
C46   H4    S    
Br12  C48   S    
N5    N12   A    
C40   C58   S    
N24   Ni5   S    
C10   C121  A    
N3    Ni7   S    
Br4   C105  S    
N22   Ni6   S    
N15   N22   A    
N16   N26   A    
C112  C125  T    
C44   C48   S    
C29   C64   S    
C38   H22   S    
C128  N7    A    
C64   C66   S    
C60   C67   S    
C23   N20   A    
C121  N4    A    
Br7   C120  S    
C49   H11   S    
C29   O4    D    
C100  C106  D    
C103  C105  D    
C2    C21   A    
C21   N18   A    
C66   C83   S    
C27   O2    D    
C128  H38   S    
C9    C123  S    
C70   N29   A    
Br13  C61   S    
C48   C66   S    
C42   C64   S    
C100  C113  S    
C3    C6    A    
C33   O8    D    
Br6   C119  S    
Br15  C50   S    
C40   H66   S    
C45   H5    S    
N11   N21   A    
C78   H14   S    
C17   H44   S    
N5    Ni6   S    
C40   C62   S    
C105  C110  S    
C74   N22   A    
C18   C35   A    
N7    N27   A    
C7    C128  A    
C76   C78   S    
C53   C83   T    
C33   H65   S    
C31   C75   S    
C76   H20   S    
C57   C79   S    
Br8   C121  S    
N16   Ni4   S    
C1    H1    S    
C101  C114  S    
C77   H21   S    
C100  H33   S    
C90   C94   T    
N13   Ni2   S    
C59   C90   S    
N29   N32   A    
C38   C60   S    
Br9   C62   S    
C101  H35   S    
C26   O1    D    
C27   C61   S    
N29   Ni3   S    
C71   N30   A    
N15   Ni3   S    
N27   Ni2   S    
C1    N1    A    
N23   Ni2   S    
C40   H25   S    
C102  H31   S    
C107  N26   A    
C65   C73   S    
C35   C74   A    
C48   H10   S    
C97   C114  T    
C39   H56   S    
C9    C70   A    
C77   C79   S    
C72   N31   A    
C126  H36   S    
C68   C86   S    
C37   C96   A    
C14   H41   S    
C17   N14   A    
C2    C14   A    
C31   O6    D    
C43   C47   S    
C47   C65   S    
C41   N12   A    
C36   C54   S    
C34   C51   S    
N9    N19   A    
C52   H23   S    
C42   C59   S    
C22   H50   S    
C63   N27   A    
C101  C108  D    
C21   H49   S    
Br11  C60   S    
C41   H12   S    
N25   Ni8   S    
C117  N32   A    
C12   H40   S    
N32   Ni5   S    
C16   N13   A    
C109  C122  T    
C95   C113  T    
C33   C77   S    
C19   H47   S    
Br16  C78   S    
Br18  C80   S    
C8    C119  A    
Br1   C47   S    
C88   C92   T    
C63   H34   S    
C44   H2    S    
C44   C59   S    
C35   C53   S    
C45   H3    S    
C46   H6    S    
C23   C24   A    
C6    C94   S    
C12   C118  A    
C31   H63   S    
Br17  C79   S    
C22   N19   A    
C120  N3    A    
C19   C36   A    
N18   Ni5   S    
C24   C98   S    
C67   C76   S    
C28   H60   S    
N2    Ni6   S    
C69   N28   A    
C47   H9    S    
C74   H53   S    
C5    C41   A    
C6    C52   A    
C12   N9    A    
C81   H17   S    
C110  C123  T    
C45   C56   S    
C73   C80   S    
C8    C69   A    
C127  N6    A    
C72   H30   S    
N11   Ni2   S    
C79   H15   S    
C17   C34   A    
C7    C93   S    
N17   N25   A    
C2    C95   S    
C51   C82   T    
C73   H18   S    
C13   C99   S    
C15   H42   S    
N2    N28   A    
C111  C124  T    
C58   C80   S    
C43   H68   S    
Br14  C49   S    
C15   N11   A    
C16   C24   A    
C8    C122  S    
C69   H27   S    
C10   C124  S    
C102  C104  D    
N14   Ni3   S    
N1    Ni1   S    
C50   H13   S    
C96   H55   S    
Br3   C104  S    
C54   C84   T    
N12   Ni1   S    
C20   H48   S    
N6    Ni5   S    
N1    N6    A    
C26   H58   S    
C32   O7    D    
N4    N30   A    
C96   N25   A    
C108  C112  S    
N9    Ni1   S    
C20   C37   A    
C34   C85   A    
C14   N10   A    
C87   C91   T    
C57   C88   S    
C39   C61   S    
N19   Ni6   S    
C10   C71   A    
C4    C127  A    
C75   H19   S    
N7    Ni8   S    
N4    Ni8   S    
C98   C115  T    
C30   C73   S    
Br5   C117  S    
C18   N15   A    
C103  H32   S    
C89   C93   T    
C56   C87   S    
C62   C65   S    
C9    C117  A    
C44   H8    S    
C38   H45   S    
C75   C81   S    
C99   C116  T    
N10   N18   A    
C126  N5    A    
C27   H59   S    
C103  C116  S    
C52   N23   A    
C37   C55   S    
N13   N20   A    
C7    C63   A    
C107  H57   S    
C68   C77   S    
C43   H7    S    
C19   N16   A    
C36   C107  A    
C3    H39   S    
Br19  C81   S    
C119  N2    A    
C80   H16   S    
C85   H54   S    
C46   C50   S    
C106  C111  S    
C45   C49   S    
C71   H29   S    
Br10  C64   S    
C13   C15   A    
C85   N24   A    
C28   C62   S    
C104  C109  S    
C32   C76   S    
C58   C89   S    
N3    N31   A    
C46   C57   S    
N20   Ni7   S    
N8    Ni7   S    
N8    N23   A    
C25   N21   A    
C102  C115  S    
C61   C68   S    
C66   C75   S    
C5    C91   S    
C67   C84   S    
C11   C125  S    
C18   H46   S    
C20   N17   A    
C5    C126  A    
C3    N8    A    
C30   H62   S    
C55   C86   T    
C11   C72   A    
C1    C4    A    
C29   H61   S    
C32   H64   S    
Br20  C106  S    
C59   C81   S    
C23   H51   S    
C11   C120  A    
C56   C78   S    
C43   C58   S    
C65   C82   S    
C39   H24   S    
N17   Ni4   S    
Br2   C108  S    
C30   O5    D    
C42   H26   S    
