data_mof_unit_pretest_1040.cif
_audit_creation_date              2012-12-10T20:34:50-0500
_audit_creation_method            fapswitch 2.2
_symmetry_space_group_name_H-M    P1
_symmetry_Int_Tables_number       1
_space_group_crystal_system       triclinic
_cell_length_a                    10.637985
_cell_length_b                    10.672076
_cell_length_c                    9.858282
_cell_angle_alpha                 89.763561
_cell_angle_beta                  90.407161
_cell_angle_gamma                 90.162001
_cell_volume                      1119.1625164

loop_
_atom_site_label
_atom_site_type_symbol
_atom_type_description
_atom_site_fract_x
_atom_site_fract_y
_atom_site_fract_z
_atom_type_partial_charge
C1    C     C_R   0.504933 0.259891 0.500272 0.879022
C2    C     C_3   0.878663 0.505108 0.499468 0.105914
C3    C     C_3   0.928212 0.612886 0.590603 -0.395710
C4    C     C_3   0.926516 0.526659 0.352600 -0.401565
C5    C     C_R   0.538739 0.063160 0.622459 0.136473
C6    C     C_R   0.527763 0.128717 0.500363 -0.171431
C7    C     C_R   0.542891 0.065434 0.376958 -0.186388
C8    C     C_R   0.542216 0.935917 0.376446 -0.185813
C9    C     C_R   0.526001 0.871356 0.499260 -0.112222
C10   C     C_R   0.536413 0.935267 0.621541 0.053143
C11   C     C_3   0.458829 0.926986 0.746995 -0.489143
C12   C     C_R   0.257724 0.503989 0.499424 0.874618
C13   C     C_3   0.462856 0.069207 0.749508 0.221803
C14   C     C_R   0.433370 0.411572 0.070981 0.264238
C15   C     C_R   0.574619 0.580014 0.072248 -0.111250
C16   C     C_R   0.574626 0.580024 0.928175 -0.129937
C17   C     C_R   0.433476 0.411597 0.928428 0.334089
C18   C     C_3   0.295309 0.390389 0.920536 -0.527214
C19   C     C_3   0.294637 0.392189 0.074310 -0.524563
C20   C     C_R   0.504165 0.740101 0.499702 0.902842
C21   C     C_R   0.742324 0.502579 0.500129 0.841704
C22   C     C_3   0.072739 0.378187 0.549346 -0.495578
C23   C     C_3   0.928637 0.378169 0.553127 -0.388866
C24   C     C_3   0.072615 0.611050 0.593954 -0.357789
C25   C     C_3   0.069570 0.530599 0.351533 0.235918
C26   C     C_3   0.121229 0.507026 0.498081 0.091544
H1    H     H_    0.110158 0.357698 0.652850 0.197656
H2    H     H_    0.886593 0.615249 0.310779 0.213046
H3    H     H_    0.110142 0.704368 0.563705 0.202594
H4    H     H_    0.894826 0.704770 0.550657 0.178580
H5    H     H_    0.545294 0.114710 0.280692 0.202680
H6    H     H_    0.544545 0.887690 0.280004 0.185149
H7    H     H_    0.363102 0.888784 0.727057 0.177941
H8    H     H_    0.510481 0.880934 0.831946 0.237136
H9    H     H_    0.369613 0.114425 0.735292 0.100135
H10   H     H_    0.632912 0.646287 0.126845 0.148900
H11   H     H_    0.105622 0.302175 0.481270 0.167980
H12   H     H_    0.632899 0.646328 0.873900 0.150669
H13   H     H_    0.244000 0.470597 0.874178 0.216406
H14   H     H_    0.271559 0.297166 0.877408 0.210840
H15   H     H_    0.245017 0.475037 0.114876 0.248742
H16   H     H_    0.268382 0.300718 0.120557 0.212480
H17   H     H_    0.891447 0.299909 0.490007 0.172775
H18   H     H_    0.896774 0.361942 0.659122 0.204073
H19   H     H_    0.105007 0.593099 0.699854 0.177572
H20   H     H_    0.892354 0.602655 0.695900 0.187565
H21   H     H_    0.102028 0.454198 0.284135 0.108723
H22   H     H_    0.893937 0.449258 0.285274 0.164997
N1    N     N_R   0.499150 0.499140 0.142800 -0.113482
N2    N     N_R   0.499150 0.499180 0.857150 -0.117057
O1    O     O_R   0.500020 0.316790 0.614690 -0.593417
O2    O     O_R   0.500000 0.316760 0.385350 -0.620698
O3    O     O_R   0.314800 0.500000 0.614670 -0.640267
O4    O     O_R   0.314790 0.499960 0.385330 -0.594002
O5    O     O_R   0.500000 0.683240 0.614650 -0.624557
O6    O     O_R   0.499980 0.683210 0.385310 -0.608689
O7    O     O_R   0.685210 0.500040 0.614670 -0.619376
O8    O     O_R   0.685200 0.500000 0.385330 -0.633439
Zn1   Zn    Zn3+2 0.500010 0.500020 0.653130 0.963140
Zn2   Zn    Zn3+2 0.499990 0.499980 0.346870 0.974872
Cl1   Cl    Cl    0.554074 0.128024 0.888075 -0.647505
Cl2   Cl    Cl    0.122881 0.676929 0.280039 -0.656002

loop_
_geom_bond_atom_site_label_1
_geom_bond_atom_site_label_2
_ccdc_geom_bond_type
C17   N2    A    
C3    H4    S    
C2    C4    S    
C18   H13   S    
C21   O7    A    
C6    C7    A    
O5    Zn1   S    
C11   C13   S    
C9    C10   A    
C25   H21   S    
C9    C20   S    
C5    C13   S    
C12   O3    A    
C11   H8    S    
C19   H16   S    
C20   O6    A    
C2    C21   S    
C17   C18   S    
O3    Zn1   S    
C13   Cl1   S    
C21   O8    A    
O4    Zn2   S    
C1    O1    A    
C14   C17   A    
C3    C24   S    
C5    C6    A    
N1    Zn2   S    
C20   O5    A    
N2    Zn1   S    
C5    C10   A    
C4    H2    S    
C24   C26   S    
C4    C25   S    
O1    Zn1   S    
C2    C3    S    
C25   Cl2   S    
C15   N1    A    
C22   C26   S    
C22   H1    S    
C1    O2    A    
O7    Zn1   S    
C14   N1    A    
C7    H5    S    
C10   C11   S    
C24   H19   S    
O8    Zn2   S    
C15   C16   A    
C8    H6    S    
C19   H15   S    
C15   H10   S    
C11   H7    S    
C23   H17   S    
O2    Zn2   S    
C18   C19   S    
C4    H22   S    
C12   C26   S    
C2    C23   S    
C7    C8    A    
C18   H14   S    
C22   C23   S    
C3    H20   S    
C16   H12   S    
C25   C26   S    
C24   H3    S    
C22   H11   S    
C14   C19   S    
C13   H9    S    
C12   O4    A    
C23   H18   S    
O6    Zn2   S    
C16   N2    A    
C8    C9    A    
C1    C6    S    
