data_mof_unit_pretest_471.cif
_audit_creation_date              2012-10-26T18:33:53-0400
_audit_creation_method            fapswitch 2.2
_symmetry_space_group_name_H-M    P1
_symmetry_Int_Tables_number       1
_space_group_crystal_system       triclinic
_cell_length_a                    11.065961
_cell_length_b                    10.975479
_cell_length_c                    9.643987
_cell_angle_alpha                 91.865246
_cell_angle_beta                  103.900641
_cell_angle_gamma                 95.671685
_cell_volume                      1129.51099269

loop_
_atom_site_label
_atom_site_type_symbol
_atom_type_description
_atom_site_fract_x
_atom_site_fract_y
_atom_site_fract_z
_atom_type_partial_charge
C1    C     C_R   0.501686 0.262265 0.497731 0.535567
C2    C     C_2   0.874187 0.508191 0.591790 -0.132552
C3    C     C_2   0.068384 0.507539 0.514517 -0.166401
C4    C     C_2   0.932257 0.499258 0.485217 -0.164053
C5    C     C_R   0.497396 0.053605 0.368491 -0.031055
C6    C     C_R   0.495399 0.944105 0.627776 -0.039128
C7    C     C_R   0.499154 0.928017 0.378495 -0.152528
C8    C     C_R   0.511924 0.071122 0.623677 -0.153807
C9    C     C_R   0.496910 0.871274 0.504930 -0.013534
C10   C     C_R   0.506068 0.128174 0.494523 -0.008615
C11   C     C_R   0.267675 0.405945 0.060187 0.050550
C12   C     C_R   0.498093 0.737357 0.501928 0.536672
C13   C     C_R   0.157246 0.440504 0.969833 -0.137455
C14   C     C_R   0.040209 0.375753 0.963445 -0.125892
C15   C     C_R   0.029388 0.280562 0.052916 -0.122315
C16   C     C_R   0.136466 0.246198 0.144175 -0.137165
C17   C     C_R   0.253779 0.306106 0.143867 -0.045209
C18   C     C_R   0.727661 0.601616 0.937134 0.054883
C19   C     C_R   0.839844 0.564613 0.020367 -0.133686
C20   C     C_R   0.955413 0.632500 0.027236 -0.126938
C21   C     C_R   0.962228 0.734079 0.945544 -0.120897
C22   C     C_R   0.852772 0.771214 0.861689 -0.137880
C23   C     C_R   0.262570 0.499621 0.441065 0.555486
C24   C     C_R   0.736990 0.707456 0.861194 -0.061380
C25   C     C_R   0.472006 0.095181 0.221172 0.028364
C26   C     C_R   0.358788 0.048841 0.123971 -0.115822
C27   C     C_R   0.331505 0.084904 0.983581 -0.104544
C28   C     C_R   0.417400 0.166100 0.938778 -0.111477
C29   C     C_R   0.533876 0.206001 0.031441 -0.115168
C30   C     C_R   0.561812 0.169912 0.172372 -0.064392
C31   C     C_R   0.464770 0.892649 0.756346 0.043946
C32   C     C_R   0.349019 0.822671 0.745012 -0.048350
C33   C     C_R   0.322979 0.767215 0.864283 -0.106249
C34   C     C_R   0.737586 0.502041 0.558969 0.560414
C35   C     C_R   0.412438 0.780333 0.994909 -0.102721
C36   C     C_R   0.526240 0.853121 0.007683 -0.105639
C37   C     C_R   0.550230 0.913246 0.890277 -0.104168
C38   C     C_R   0.393386 0.455879 0.039166 0.100684
C39   C     C_R   0.604994 0.547315 0.960253 0.098167
C40   C     C_R   0.397137 0.454875 0.892844 -0.000064
C41   C     C_R   0.602127 0.547298 0.106782 -0.009240
C42   C     C_2   0.126300 0.497432 0.407992 -0.134714
Cu1   Cu    Cu3+1 0.500000 0.500020 0.640660 0.927186
Cu2   Cu    Cu3+1 0.500000 0.499980 0.359340 0.915831
H1    H     H_    0.879097 0.484877 0.374342 0.148890
H2    H     H_    0.957319 0.399087 0.889091 0.125832
H3    H     H_    0.938533 0.232137 0.049512 0.105151
H4    H     H_    0.129406 0.169930 0.211243 0.102328
H5    H     H_    0.333090 0.270665 0.204756 0.172231
H6    H     H_    0.837308 0.486367 0.085669 0.085888
H7    H     H_    0.039973 0.607163 0.096910 0.125224
H8    H     H_    0.051794 0.785618 0.949950 0.103561
H9    H     H_    0.856973 0.852418 0.801487 0.103454
H10   H     H_    0.655681 0.745002 0.807257 0.159647
H11   H     H_    0.290225 0.987384 0.158257 0.102465
H12   H     H_    0.121591 0.520900 0.625418 0.147641
H13   H     H_    0.242617 0.052274 0.910736 0.113521
H14   H     H_    0.392387 0.198741 0.832368 0.119543
H15   H     H_    0.601495 0.266544 0.994728 0.112353
H16   H     H_    0.651773 0.201696 0.243736 0.115396
H17   H     H_    0.280331 0.809068 0.643197 0.101693
H18   H     H_    0.234227 0.712778 0.854655 0.084542
H19   H     H_    0.393088 0.734353 0.085950 0.131820
H20   H     H_    0.596865 0.862532 0.107747 0.105540
H21   H     H_    0.638858 0.968921 0.901401 0.096838
H22   H     H_    0.927640 0.523273 0.702040 0.103830
H23   H     H_    0.072954 0.484789 0.297371 0.106610
H24   H     H_    0.316906 0.415384 0.810537 0.118861
H25   H     H_    0.682391 0.587536 0.188652 0.121988
H26   H     H_    0.495238 0.873016 0.282893 0.134763
H27   H     H_    0.522891 0.125498 0.721544 0.135622
H28   H     H_    0.161922 0.514103 0.898935 0.081412
N1    N     N_R   0.500030 0.500030 0.852080 -0.241685
N2    N     N_R   0.499970 0.499970 0.147920 -0.247839
O1    O     O_R   0.499990 0.319660 0.618740 -0.512392
O2    O     O_R   0.500010 0.680340 0.381260 -0.514538
O3    O     O_R   0.499990 0.319630 0.381170 -0.515548
O4    O     O_R   0.500010 0.680370 0.618830 -0.506104
O5    O     O_R   0.320690 0.500020 0.575130 -0.509541
O6    O     O_R   0.679310 0.499980 0.424870 -0.510697
O7    O     O_R   0.320680 0.499990 0.337560 -0.494888
O8    O     O_R   0.679320 0.500010 0.662440 -0.488122

loop_
_geom_bond_atom_site_label_1
_geom_bond_atom_site_label_2
_ccdc_geom_bond_type
Cu1   N1    S    
C3    C42   D    
C1    O3    A    
C19   C20   A    
C15   H3    S    
Cu1   Cu2   S    
C26   H11   S    
C16   H4    S    
C7    H26   S    
C39   C41   A    
Cu1   O4    S    
C26   C27   A    
C23   C42   S    
C18   C24   A    
C28   C29   A    
C32   H17   S    
C20   H7    S    
C24   H10   S    
C15   C16   A    
C12   O4    A    
C40   N1    A    
C18   C19   A    
Cu2   O2    S    
C34   O6    A    
C41   N2    A    
C11   C17   A    
C29   H15   S    
C33   H18   S    
C37   H21   S    
C36   C37   A    
C2    C34   S    
C6    C31   S    
C21   C22   A    
C6    C9    A    
C22   H9    S    
C4    H1    S    
Cu1   O1    S    
C1    O1    A    
Cu2   O6    S    
C14   H2    S    
Cu2   O7    S    
C27   H13   S    
C17   H5    S    
C5    C7    A    
C16   C17   A    
C6    C8    A    
C25   C26   A    
C31   C37   A    
C30   H16   S    
C35   C36   A    
C11   C38   S    
C2    C4    D    
C18   C39   S    
C29   C30   A    
C3    H12   S    
C31   C32   A    
Cu2   N2    S    
C5    C25   S    
C12   O2    A    
C42   H23   S    
C22   C24   A    
C3    C4    S    
C41   H25   S    
C38   N2    A    
C25   C30   A    
C7    C9    A    
Cu2   O3    S    
C8    H27   S    
C23   O7    A    
C1    C10   S    
C2    H22   S    
C13   H28   S    
C28   H14   S    
C32   C33   A    
C5    C10   A    
C36   H20   S    
C38   C40   A    
C11   C13   A    
C19   H6    S    
C33   C35   A    
C39   N1    A    
C9    C12   S    
C20   C21   A    
C8    C10   A    
C40   H24   S    
C27   C28   A    
Cu1   O8    S    
C14   C15   A    
C35   H19   S    
C34   O8    A    
C23   O5    A    
C13   C14   A    
Cu1   O5    S    
C21   H8    S    
