data_mof_unit_pretest_926.cif
_audit_creation_date              2013-03-05T15:50:13-0500
_audit_creation_method            fapswitch 2.2
_symmetry_space_group_name_H-M    P1
_symmetry_Int_Tables_number       1
_space_group_crystal_system       triclinic
_cell_length_a                    18.359495
_cell_length_b                    25.8989
_cell_length_c                    18.223113
_cell_angle_alpha                 89.995512
_cell_angle_beta                  90.080948
_cell_angle_gamma                 90.263885
_cell_volume                      8664.82064264

loop_
_atom_site_label
_atom_site_type_symbol
_atom_site_description
_atom_site_fract_x
_atom_site_fract_y
_atom_site_fract_z
_atom_type_partial_charge
Zn1   Zn    Zn3+2 0.249990 0.293780 0.913250 0.970844
Zn2   Zn    Zn3+2 0.249990 0.706220 0.086750 0.963133
Zn3   Zn    Zn3+2 0.249990 0.706220 0.913250 0.951448
Zn4   Zn    Zn3+2 0.249990 0.293780 0.086750 0.962116
Zn5   Zn    Zn3+2 0.749990 0.793780 0.413250 0.970774
Zn6   Zn    Zn3+2 0.749990 0.206220 0.586750 0.960692
Zn7   Zn    Zn3+2 0.749990 0.206220 0.413250 0.951250
Zn8   Zn    Zn3+2 0.749990 0.793780 0.586750 0.958875
Zn9   Zn    Zn3+2 0.336760 0.206240 0.000000 1.006571
Zn10  Zn    Zn3+2 0.336760 0.793760 0.000000 1.008284
Zn11  Zn    Zn3+2 0.836760 0.706240 0.500000 1.004677
Zn12  Zn    Zn3+2 0.836760 0.293760 0.500000 1.001140
Zn13  Zn    Zn3+2 0.163250 0.206230 0.000000 0.961558
Zn14  Zn    Zn3+2 0.163250 0.793770 0.000000 0.978568
Zn15  Zn    Zn3+2 0.663250 0.706230 0.500000 0.962833
Zn16  Zn    Zn3+2 0.663250 0.293770 0.500000 0.984670
O1    O     O_3   0.249990 0.250010 0.000000 -0.487267
O2    O     O_3   0.249990 0.749990 0.000000 -0.488665
O3    O     O_3   0.749990 0.750010 0.500000 -0.485943
O4    O     O_3   0.749990 0.249990 0.500000 -0.488969
O5    O     O_R   0.335430 0.280650 0.146160 -0.645700
O6    O     O_R   0.335430 0.719350 0.853840 -0.653798
O7    O     O_R   0.335430 0.719350 0.146160 -0.640250
O8    O     O_R   0.335430 0.280650 0.853840 -0.635659
O9    O     O_R   0.835430 0.780650 0.646160 -0.647531
O10   O     O_R   0.835430 0.219350 0.353840 -0.653978
O11   O     O_R   0.835430 0.219350 0.646160 -0.637226
O12   O     O_R   0.835430 0.780650 0.353840 -0.633802
O13   O     O_R   0.164550 0.280640 0.853840 -0.646338
O14   O     O_R   0.164550 0.719360 0.146160 -0.650649
O15   O     O_R   0.164550 0.719360 0.853840 -0.645454
O16   O     O_R   0.164550 0.280640 0.146160 -0.638546
O17   O     O_R   0.664550 0.780640 0.353840 -0.645845
O18   O     O_R   0.664550 0.219360 0.646160 -0.651444
O19   O     O_R   0.664550 0.219360 0.353840 -0.645486
O20   O     O_R   0.664550 0.780640 0.646160 -0.640392
O21   O     O_R   0.396160 0.219380 0.914560 -0.621093
O22   O     O_R   0.396160 0.780620 0.085440 -0.622492
O23   O     O_R   0.396160 0.780620 0.914560 -0.613283
O24   O     O_R   0.396160 0.219380 0.085440 -0.617181
O25   O     O_R   0.896160 0.719380 0.414560 -0.621870
O26   O     O_R   0.896160 0.280620 0.585440 -0.628716
O27   O     O_R   0.896160 0.280620 0.414560 -0.612201
O28   O     O_R   0.896160 0.719380 0.585440 -0.617224
O29   O     O_R   0.103840 0.219370 0.085450 -0.637571
O30   O     O_R   0.103840 0.780630 0.914550 -0.631713
O31   O     O_R   0.103840 0.780630 0.085450 -0.629071
O32   O     O_R   0.103840 0.219370 0.914550 -0.640349
O33   O     O_R   0.603840 0.719370 0.585450 -0.634606
O34   O     O_R   0.603840 0.280630 0.414550 -0.625259
O35   O     O_R   0.603840 0.280630 0.585450 -0.627040
O36   O     O_R   0.603840 0.719370 0.414550 -0.641194
O37   O     O_R   0.310730 0.133160 0.000000 -0.645239
O38   O     O_R   0.310730 0.866840 0.000000 -0.649622
O39   O     O_R   0.810730 0.633160 0.500000 -0.646098
O40   O     O_R   0.810730 0.366840 0.500000 -0.657065
O41   O     O_R   0.249970 0.366860 0.060720 -0.648548
O42   O     O_R   0.249970 0.633140 0.939280 -0.648192
O43   O     O_R   0.249970 0.633140 0.060720 -0.654061
O44   O     O_R   0.249970 0.366860 0.939280 -0.649920
O45   O     O_R   0.749970 0.866860 0.560720 -0.649264
O46   O     O_R   0.749970 0.133140 0.439280 -0.648537
O47   O     O_R   0.749970 0.133140 0.560720 -0.654812
O48   O     O_R   0.749970 0.866860 0.439280 -0.650689
O49   O     O_R   0.189290 0.133150 0.000000 -0.645151
O50   O     O_R   0.189290 0.866850 0.000000 -0.632938
O51   O     O_R   0.689290 0.633150 0.500000 -0.653564
O52   O     O_R   0.689290 0.366850 0.500000 -0.628086
C1    C     C_R   0.389989 0.250468 0.139557 0.896025
C2    C     C_R   0.390556 0.749348 0.860823 0.903690
C3    C     C_R   0.388425 0.750998 0.141295 0.912255
C4    C     C_R   0.389319 0.250031 0.859648 0.916443
C5    C     C_R   0.889882 0.750368 0.639671 0.893813
C6    C     C_R   0.890639 0.249261 0.360924 0.905429
C7    C     C_R   0.887953 0.251366 0.641730 0.908141
C8    C     C_R   0.889364 0.750093 0.359664 0.913957
C9    C     C_R   0.110716 0.249679 0.859727 0.784365
C10   C     C_R   0.110590 0.750048 0.140147 0.780304
C11   C     C_R   0.110702 0.750175 0.859770 0.775867
C12   C     C_R   0.109584 0.250616 0.139116 0.782207
C13   C     C_R   0.610615 0.749926 0.359832 0.784133
C14   C     C_R   0.610522 0.249967 0.640095 0.782375
C15   C     C_R   0.610646 0.250136 0.359822 0.774950
C16   C     C_R   0.609506 0.750686 0.639021 0.782184
C17   C     C_R   0.249717 0.109319 0.999247 0.787805
C18   C     C_R   0.250209 0.890592 0.000401 0.785827
C19   C     C_R   0.749021 0.609149 0.498525 0.790775
C20   C     C_R   0.750593 0.390570 0.501091 0.786161
C21   C     C_R   0.249939 0.391441 0.000093 0.727189
C22   C     C_R   0.249864 0.608539 0.000105 0.723456
C23   C     C_R   0.749927 0.891439 0.500094 0.727846
C24   C     C_R   0.749823 0.108537 0.500105 0.723217
C25   C     C_3   0.250106 0.470287 0.080274 -0.374748
C26   C     C_3   0.181487 0.529619 0.960414 -0.390615
C27   C     C_3   0.249720 0.529659 0.080293 -0.376689
C28   C     C_3   0.181323 0.469870 0.960689 -0.394269
C29   C     C_3   0.749765 0.970284 0.580274 -0.377912
C30   C     C_3   0.681571 0.029612 0.460157 -0.389961
C31   C     C_3   0.749348 0.029656 0.580292 -0.379762
C32   C     C_3   0.681395 0.969861 0.460453 -0.394287
H1    H     H_    0.299223 0.456425 0.110152 0.179506
H2    H     H_    0.180374 0.543707 0.902726 0.184237
H3    H     H_    0.298402 0.544117 0.110616 0.178919
H4    H     H_    0.179664 0.455519 0.903142 0.183645
H5    H     H_    0.798787 0.956438 0.610324 0.177397
H6    H     H_    0.680684 0.043690 0.402460 0.184465
H7    H     H_    0.797901 0.044122 0.610814 0.177342
H8    H     H_    0.679920 0.955501 0.402906 0.183942
H9    H     H_    0.201374 0.455823 0.110362 0.181536
H10   H     H_    0.131359 0.543978 0.987805 0.151358
H11   H     H_    0.200564 0.543509 0.109958 0.179628
H12   H     H_    0.131337 0.455433 0.988605 0.152098
H13   H     H_    0.700939 0.955805 0.610192 0.179796
H14   H     H_    0.631340 0.043980 0.487346 0.150828
H15   H     H_    0.700066 0.043498 0.609754 0.177819
H16   H     H_    0.631317 0.955430 0.488207 0.151384
C33   C     C_3   0.318620 0.470315 0.960761 -0.390824
C34   C     C_3   0.318842 0.530062 0.961224 -0.403099
C35   C     C_3   0.818689 0.970308 0.460994 -0.390489
C36   C     C_3   0.818927 0.030053 0.461498 -0.403480
C37   C     C_3   0.250004 0.449153 0.000438 0.195329
C38   C     C_3   0.249983 0.550801 0.000470 0.201392
C39   C     C_3   0.749948 0.949148 0.500439 0.197643
C40   C     C_3   0.749919 0.050797 0.500471 0.203653
H17   H     H_    0.157971 0.114725 0.678947 0.194745
H18   H     H_    0.144322 0.899842 0.300616 0.172216
H19   H     H_    0.893482 0.664196 0.953919 0.141447
H20   H     H_    0.916785 0.371153 0.072784 0.134788
H21   H     H_    0.662218 0.617900 0.176103 0.180100
H22   H     H_    0.642133 0.400820 0.798730 0.151068
H23   H     H_    0.395326 0.160507 0.451551 0.139865
H24   H     H_    0.415122 0.869497 0.570897 0.123371
C41   C     C_R   0.994720 0.321917 0.869398 -0.256273
C42   C     C_R   0.002201 0.670137 0.143786 -0.265937
C43   C     C_R   0.141377 0.790875 0.717218 -0.209675
C44   C     C_R   0.124139 0.184741 0.262396 -0.240223
C45   C     C_R   0.497929 0.825314 0.364773 -0.240458
C46   C     C_R   0.503492 0.169121 0.645036 -0.265354
C47   C     C_R   0.640140 0.293695 0.218890 -0.241980
C48   C     C_R   0.624290 0.685147 0.762517 -0.240323
C49   C     C_R   0.934636 0.353200 0.880743 -0.318807
C50   C     C_R   0.945233 0.634640 0.139068 -0.318099
C51   C     C_R   0.157912 0.810374 0.648320 -0.345645
C52   C     C_R   0.136843 0.155801 0.324820 -0.330854
C53   C     C_R   0.440121 0.859213 0.372720 -0.357229
C54   C     C_R   0.447490 0.132809 0.641312 -0.318669
C55   C     C_R   0.656121 0.314949 0.150922 -0.356313
C56   C     C_R   0.637223 0.656490 0.825130 -0.333913
C57   C     C_R   0.377326 0.853434 0.329554 0.510880
C58   C     C_R   0.386135 0.137732 0.685493 0.508541
C59   C     C_R   0.602953 0.317486 0.096579 0.494823
C60   C     C_R   0.591157 0.660612 0.885288 0.512784
C61   C     C_R   0.873308 0.348199 0.836482 0.503548
C62   C     C_R   0.883611 0.640149 0.182742 0.512344
C63   C     C_R   0.104474 0.813266 0.594363 0.497920
C64   C     C_R   0.090601 0.159690 0.384914 0.513828
C65   C     C_R   0.375906 0.815502 0.274248 0.420853
C66   C     C_R   0.380955 0.179976 0.733860 0.400952
C67   C     C_R   0.531616 0.300574 0.111597 0.431558
C68   C     C_R   0.525390 0.688248 0.879132 0.428905
C69   C     C_R   0.872547 0.311744 0.778940 0.388640
C70   C     C_R   0.879307 0.682076 0.231773 0.398081
C71   C     C_R   0.032587 0.798170 0.610318 0.442169
C72   C     C_R   0.025035 0.187585 0.378862 0.428785
C73   C     C_R   0.438559 0.784612 0.259719 -0.121604
C74   C     C_R   0.442085 0.213192 0.745387 -0.108864
C75   C     C_R   0.515518 0.274868 0.179490 -0.113637
C76   C     C_R   0.511092 0.718405 0.814658 -0.112963
C77   C     C_R   0.936752 0.283073 0.761902 -0.115954
C78   C     C_R   0.941383 0.714134 0.244518 -0.108773
C79   C     C_R   0.015987 0.773607 0.678892 -0.113426
C80   C     C_R   0.011007 0.218044 0.314610 -0.113199
C81   C     C_R   0.996012 0.285610 0.811424 0.034900
C82   C     C_R   0.000601 0.710851 0.195523 0.034676
C83   C     C_R   0.071083 0.771358 0.733304 0.029033
C84   C     C_R   0.063088 0.217589 0.257265 0.024130
C85   C     C_R   0.497541 0.787084 0.309422 0.032495
C86   C     C_R   0.501205 0.210188 0.696180 0.033711
C87   C     C_R   0.570507 0.272714 0.234030 0.036493
C88   C     C_R   0.563128 0.717883 0.757279 0.025254
C89   C     C_R   0.443274 0.750282 0.198932 -0.140416
C90   C     C_R   0.443975 0.250865 0.801876 -0.137924
C91   C     C_R   0.446717 0.251690 0.195022 -0.130272
C92   C     C_R   0.447439 0.749177 0.805395 -0.127784
C93   C     C_R   0.942657 0.250271 0.699505 -0.133324
C94   C     C_R   0.944052 0.751110 0.301878 -0.138554
C95   C     C_R   0.946616 0.751626 0.695135 -0.134639
C96   C     C_R   0.947570 0.249074 0.305554 -0.127401
C97   C     C_R   0.501351 0.714930 0.192556 0.056048
C98   C     C_R   0.498044 0.289884 0.802924 0.045827
C99   C     C_R   0.432438 0.227648 0.263346 0.059423
C100  C     C_R   0.438077 0.780953 0.742770 0.061689
C101  C     C_R   0.000464 0.214682 0.693042 0.052450
C102  C     C_R   0.998656 0.789763 0.303465 0.045029
C103  C     C_R   0.931847 0.728661 0.764090 0.057697
C104  C     C_R   0.938548 0.281226 0.243291 0.062255
C105  C     C_R   0.055899 0.214138 0.746593 0.039544
C106  C     C_R   0.053111 0.790086 0.248873 0.049921
C107  C     C_R   0.986281 0.728492 0.818699 0.078158
C108  C     C_R   0.992305 0.281711 0.188085 0.073694
C109  C     C_R   0.557427 0.715267 0.245413 0.060381
C110  C     C_R   0.552660 0.290106 0.748498 0.051987
C111  C     C_R   0.486806 0.227447 0.318015 0.078402
C112  C     C_R   0.491816 0.781393 0.687535 0.073189
C113  C     C_R   0.054135 0.250484 0.804147 -0.099830
C114  C     C_R   0.054838 0.749750 0.196646 -0.106119
C115  C     C_R   0.055106 0.750112 0.803006 -0.094153
C116  C     C_R   0.053842 0.249843 0.195575 -0.091108
C117  C     C_R   0.554657 0.751011 0.303641 -0.103683
C118  C     C_R   0.554780 0.249570 0.696636 -0.107492
C119  C     C_R   0.555077 0.250161 0.303017 -0.085566
C120  C     C_R   0.553696 0.749902 0.695398 -0.091762
C121  C     C_R   0.503727 0.678062 0.135225 -0.130518
C122  C     C_R   0.497874 0.329594 0.856406 -0.136583
C123  C     C_R   0.365040 0.202723 0.278017 -0.156339
C124  C     C_R   0.376394 0.813273 0.734518 -0.155688
C125  C     C_R   0.002793 0.178123 0.635285 -0.149807
C126  C     C_R   0.999055 0.829105 0.357474 -0.130051
C127  C     C_R   0.863931 0.704692 0.779431 -0.160413
C128  C     C_R   0.877189 0.313896 0.235414 -0.159484
C129  C     C_R   0.560806 0.643102 0.130122 -0.144785
C130  C     C_R   0.549392 0.369216 0.854565 -0.110632
C131  C     C_R   0.352270 0.178748 0.345232 -0.137741
C132  C     C_R   0.368786 0.845081 0.673286 -0.144192
C133  C     C_R   0.058631 0.142118 0.631028 -0.142689
C134  C     C_R   0.051115 0.868418 0.356145 -0.116250
C135  C     C_R   0.850728 0.681677 0.847222 -0.137884
C136  C     C_R   0.869996 0.346187 0.174668 -0.139166
C137  C     C_R   0.114110 0.142376 0.682864 -0.073218
C138  C     C_R   0.103922 0.869273 0.301577 -0.139067
C139  C     C_R   0.903998 0.682160 0.901303 -0.144959
C140  C     C_R   0.922687 0.346190 0.120049 -0.126403
C141  C     C_R   0.617659 0.644938 0.180409 -0.194196
C142  C     C_R   0.602380 0.369916 0.800205 -0.126131
C143  C     C_R   0.405494 0.179190 0.399373 -0.142267
C144  C     C_R   0.421402 0.844970 0.618594 -0.137585
C145  C     C_R   0.112187 0.177172 0.741059 -0.185051
C146  C     C_R   0.105161 0.830645 0.248377 -0.167525
C147  C     C_R   0.971229 0.705155 0.887482 -0.151704
C148  C     C_R   0.983275 0.314323 0.126318 -0.159440
C149  C     C_R   0.615573 0.679927 0.238346 -0.211692
C150  C     C_R   0.604519 0.330777 0.747821 -0.165487
C151  C     C_R   0.472216 0.203126 0.386201 -0.148393
C152  C     C_R   0.482393 0.813535 0.625327 -0.153520
H25   H     H_    0.039701 0.326029 0.907434 0.156325
H26   H     H_    0.047122 0.665479 0.106025 0.161953
H27   H     H_    0.184894 0.790705 0.757284 0.158784
H28   H     H_    0.163564 0.181494 0.218557 0.153685
H29   H     H_    0.543411 0.829914 0.402089 0.157271
H30   H     H_    0.548269 0.164746 0.607035 0.161883
H31   H     H_    0.683477 0.293641 0.259168 0.160095
H32   H     H_    0.663642 0.681791 0.718630 0.154024
H33   H     H_    0.934472 0.380040 0.926306 0.171660
H34   H     H_    0.947628 0.603878 0.098908 0.176231
H35   H     H_    0.212492 0.823914 0.636793 0.172281
H36   H     H_    0.184101 0.131092 0.327404 0.170659
H37   H     H_    0.443915 0.889037 0.414119 0.162638
H38   H     H_    0.450460 0.101753 0.601655 0.174726
H39   H     H_    0.710066 0.330120 0.140492 0.179214
H40   H     H_    0.684616 0.631920 0.827890 0.169889
H41   H     H_    0.058640 0.113767 0.587445 0.186058
H42   H     H_    0.050475 0.898302 0.397672 0.153755
H43   H     H_    0.799165 0.663038 0.857672 0.126390
H44   H     H_    0.823519 0.371528 0.170136 0.126214
H45   H     H_    0.560789 0.614385 0.087029 0.183730
H46   H     H_    0.548174 0.399477 0.895522 0.156549
H47   H     H_    0.301064 0.159442 0.355210 0.125099
H48   H     H_    0.322016 0.870100 0.668372 0.117308
H49   H     H_    0.154940 0.174503 0.781770 0.156691
H50   H     H_    0.147425 0.832884 0.207161 0.159791
H51   H     H_    0.011381 0.703691 0.930939 0.124142
H52   H     H_    0.022991 0.315753 0.082509 0.112447
H53   H     H_    0.659137 0.678181 0.278268 0.163784
H54   H     H_    0.647234 0.332760 0.707047 0.154316
H55   H     H_    0.512338 0.201695 0.429696 0.121739
H56   H     H_    0.522071 0.814879 0.581478 0.112072
C153  C     C_R   0.309572 0.054211 0.121500 -0.150334
C154  C     C_R   0.310953 0.946815 0.121642 -0.143438
C155  C     C_R   0.829137 0.554792 0.609473 -0.137945
C156  C     C_R   0.836862 0.447911 0.606339 -0.160057
C157  C     C_R   0.339313 0.027631 0.180765 -0.152083
C158  C     C_R   0.340085 0.974038 0.180791 -0.106881
C159  C     C_R   0.873329 0.529008 0.659379 -0.140395
C160  C     C_R   0.877839 0.475677 0.657221 -0.166988
C161  C     C_R   0.281319 0.973042 0.060131 0.052318
C162  C     C_R   0.280692 0.027376 0.059985 0.069842
C163  C     C_R   0.793628 0.473396 0.552747 0.066193
C164  C     C_R   0.790525 0.527634 0.553698 0.069926
C165  C     C_R   0.250517 0.946195 0.000020 -0.097600
C166  C     C_R   0.248759 0.053586 0.999981 -0.100358
C167  C     C_R   0.752220 0.446116 0.499642 -0.106631
C168  C     C_R   0.745546 0.553294 0.502155 -0.118088
C169  C     C_R   0.217142 0.972298 0.940885 0.002930
C170  C     C_R   0.214597 0.026536 0.941662 0.008773
C171  C     C_R   0.706895 0.471610 0.448908 0.004835
C172  C     C_R   0.697525 0.525123 0.454864 0.011962
C173  C     C_R   0.186426 0.945232 0.880531 -0.338292
C174  C     C_R   0.177469 0.052279 0.884069 -0.377279
C175  C     C_R   0.668509 0.444102 0.393590 -0.340829
C176  C     C_R   0.638358 0.547554 0.415455 -0.375569
C177  C     C_R   0.148769 0.971075 0.825240 0.495795
C178  C     C_R   0.140673 0.024526 0.829335 0.458556
C179  C     C_R   0.610303 0.466359 0.356449 0.513830
C180  C     C_R   0.591867 0.517265 0.371401 0.477019
H57   H     H_    0.308468 0.095853 0.125400 0.129397
H58   H     H_    0.311231 0.905154 0.125435 0.161875
H59   H     H_    0.824353 0.595978 0.617119 0.136934
H60   H     H_    0.839347 0.406450 0.611024 0.162068
H61   H     H_    0.361118 0.048743 0.227202 0.142064
H62   H     H_    0.362713 0.953445 0.227135 0.174897
H63   H     H_    0.903020 0.550467 0.700819 0.138893
H64   H     H_    0.911763 0.455553 0.696417 0.133882
H65   H     H_    0.461089 0.675312 0.094516 0.146350
H66   H     H_    0.457512 0.330866 0.899510 0.145610
H67   H     H_    0.321751 0.200965 0.237728 0.109223
H68   H     H_    0.333791 0.814773 0.775432 0.101195
H69   H     H_    0.960956 0.176343 0.593640 0.154227
H70   H     H_    0.958752 0.830285 0.400622 0.145086
H71   H     H_    0.820580 0.702889 0.739218 0.111418
H72   H     H_    0.834552 0.315337 0.276296 0.101642
O53   O     O_3   0.099361 0.049571 0.777120 -0.614690
C181  C     C_3   0.033346 0.065165 0.809661 -0.252860
H73   H     H_    0.042701 0.096036 0.851111 0.168112
H74   H     H_    0.003791 0.031907 0.834721 0.168189
H75   H     H_    0.997655 0.081409 0.766343 0.193202
O54   O     O_3   0.114214 0.943260 0.770608 -0.582238
C182  C     C_3   0.160944 0.940986 0.709433 -0.286887
H76   H     H_    0.211527 0.919351 0.722721 0.133500
H77   H     H_    0.174559 0.980214 0.688410 0.174663
H78   H     H_    0.132456 0.920105 0.664617 0.204789
O55   O     O_3   0.523649 0.534457 0.350537 -0.566549
C183  C     C_3   0.530964 0.573469 0.297588 -0.267383
H79   H     H_    0.567612 0.561343 0.252227 0.143710
H80   H     H_    0.549800 0.609898 0.323502 0.173521
H81   H     H_    0.476672 0.581035 0.273172 0.202134
O56   O     O_3   0.565755 0.436545 0.312152 -0.559338
C184  C     C_3   0.599419 0.431215 0.243114 -0.301239
H82   H     H_    0.651831 0.410029 0.247511 0.149804
H83   H     H_    0.608289 0.469447 0.216566 0.142243
H84   H     H_    0.562828 0.408390 0.206916 0.199461
H85   H     H_    0.190354 0.903740 0.875458 0.177418
H86   H     H_    0.174859 0.093876 0.881091 0.188929
H87   H     H_    0.680397 0.404220 0.381006 0.174737
H88   H     H_    0.622685 0.587095 0.421736 0.216962
H89   H     H_    0.368681 0.455923 0.988361 0.143412
H90   H     H_    0.321004 0.544570 0.903780 0.180169
H91   H     H_    0.368615 0.544247 0.989839 0.144955
H92   H     H_    0.319874 0.456294 0.903052 0.184039
H93   H     H_    0.868659 0.955889 0.488740 0.144589
H94   H     H_    0.821340 0.044583 0.404077 0.178904
H95   H     H_    0.868581 0.044202 0.490350 0.146712
H96   H     H_    0.820112 0.956307 0.403279 0.182903
O57   O     O_3   0.316752 0.885056 0.337250 -0.604334
C185  C     C_3   0.297476 0.891426 0.411734 -0.341987
H97   H     H_    0.330538 0.922662 0.437258 0.168402
H98   H     H_    0.302252 0.854910 0.443761 0.155713
H99   H     H_    0.239642 0.903488 0.414355 0.208625
O58   O     O_3   0.327582 0.104940 0.673889 -0.616323
C186  C     C_3   0.319893 0.072215 0.735301 -0.300119
H100  H     H_    0.303426 0.094064 0.785053 0.197760
H101  H     H_    0.370757 0.050197 0.746117 0.152869
H102  H     H_    0.276100 0.043753 0.723582 0.179249
O59   O     O_3   0.618852 0.340375 0.029944 -0.607399
C187  C     C_3   0.657410 0.304707 0.986532 -0.260186
H103  H     H_    0.623503 0.269954 0.974552 0.169465
H104  H     H_    0.709814 0.293362 0.012598 0.155642
H105  H     H_    0.670924 0.323290 0.933455 0.214883
O60   O     O_3   0.609029 0.635745 0.949856 -0.621435
C188  C     C_3   0.662903 0.665202 0.986383 -0.300728
H106  H     H_    0.683517 0.642678 0.033710 0.201814
H107  H     H_    0.639441 0.701809 0.007590 0.192173
H108  H     H_    0.710804 0.673676 0.951083 0.148253
O61   O     O_3   0.810647 0.374117 0.855972 -0.606833
C189  C     C_3   0.805277 0.418901 0.812633 -0.311260
H109  H     H_    0.794705 0.408753 0.754294 0.183823
H110  H     H_    0.854714 0.443716 0.817912 0.149780
H111  H     H_    0.758466 0.441940 0.832341 0.189069
O62   O     O_3   0.824135 0.608445 0.169838 -0.613362
C190  C     C_3   0.813981 0.575730 0.230915 -0.320501
H112  H     H_    0.796479 0.597714 0.280185 0.193809
H113  H     H_    0.864040 0.553165 0.243220 0.160300
H114  H     H_    0.769938 0.547721 0.217821 0.174814
O63   O     O_3   0.121190 0.834255 0.526754 -0.615666
C191  C     C_3   0.152246 0.795246 0.483027 -0.314373
H115  H     H_    0.113273 0.762731 0.474220 0.190095
H116  H     H_    0.204144 0.780893 0.507057 0.152612
H117  H     H_    0.165252 0.811778 0.428546 0.195822
O64   O     O_3   0.107767 0.134128 0.449167 -0.619951
C192  C     C_3   0.163002 0.162205 0.485799 -0.306606
H118  H     H_    0.141821 0.199854 0.505775 0.188539
H119  H     H_    0.211878 0.168470 0.450935 0.152129
H120  H     H_    0.181324 0.139641 0.534048 0.195069
O65   O     O_3   0.310127 0.805472 0.240132 -0.622425
C193  C     C_3   0.271137 0.770495 0.285065 -0.258128
H121  H     H_    0.256825 0.788171 0.338663 0.155255
H122  H     H_    0.301871 0.734043 0.294003 0.160690
H123  H     H_    0.219589 0.760019 0.257651 0.198937
O66   O     O_3   0.313329 0.192255 0.761881 -0.637043
C194  C     C_3   0.279174 0.225988 0.711569 -0.269510
H124  H     H_    0.260418 0.204508 0.662133 0.174002
H125  H     H_    0.315002 0.258856 0.695084 0.160823
H126  H     H_    0.231008 0.243342 0.738059 0.201961
O67   O     O_3   0.479390 0.307405 0.057762 -0.605444
C195  C     C_3   0.451529 0.357933 0.063620 -0.322461
H127  H     H_    0.493386 0.387329 0.049014 0.183104
H128  H     H_    0.429615 0.365717 0.119483 0.167707
H129  H     H_    0.405858 0.361968 0.024213 0.164148
O68   O     O_3   0.479200 0.689299 0.938972 -0.610835
C196  C     C_3   0.440339 0.642203 0.942176 -0.314493
H130  H     H_    0.475887 0.610053 0.960340 0.186796
H131  H     H_    0.414042 0.632429 0.888784 0.163547
H132  H     H_    0.396423 0.646179 0.983388 0.163586
O69   O     O_3   0.806847 0.301074 0.745003 -0.634719
C197  C     C_3   0.769302 0.264604 0.788775 -0.237204
H133  H     H_    0.800251 0.227882 0.793554 0.159914
H134  H     H_    0.716520 0.255444 0.762712 0.194920
H135  H     H_    0.757025 0.280075 0.844290 0.164370
O70   O     O_3   0.811737 0.695569 0.258764 -0.637186
C198  C     C_3   0.780151 0.730706 0.208647 -0.261292
H136  H     H_    0.761807 0.710325 0.158125 0.176523
H137  H     H_    0.817644 0.763076 0.194037 0.157236
H138  H     H_    0.732000 0.748645 0.234429 0.205221
O71   O     O_3   0.980227 0.805750 0.556829 -0.608730
C199  C     C_3   0.954224 0.856779 0.562636 -0.310253
H139  H     H_    0.997066 0.885342 0.547554 0.183622
H140  H     H_    0.933007 0.865086 0.618620 0.168284
H141  H     H_    0.908373 0.861561 0.523600 0.159603
O72   O     O_3   0.978860 0.188678 0.438711 -0.611436
C200  C     C_3   0.939595 0.141748 0.441706 -0.313852
H142  H     H_    0.974863 0.109367 0.459572 0.188537
H143  H     H_    0.913083 0.132270 0.388317 0.163204
H144  H     H_    0.895855 0.145799 0.483083 0.164550

loop_
_geom_bond_atom_site_label_1
_geom_bond_atom_site_label_2
_geom_bond_distance
_ccdc_geom_bond_type
C156  H60   1.078347 S    
C181  H74   1.114101 S    
C106  C114  1.413733 A    
C13   C117  1.449870 S    
C58   O58   1.382967 S    
C83   C115  1.414792 A    
C184  H82   1.112678 S    
C177  C178  1.394968 A    
O26   C7    1.283835 A    
C25   C37   1.554449 S    
C170  C174  1.418692 A    
O30   C11   1.279028 A    
C30   H14   1.113066 S    
C181  H75   1.109301 S    
C174  C178  1.400574 A    
C146  H50   1.082040 S    
Zn12  O26   1.930762 S    
C122  C130  1.392808 A    
C197  H135  1.111907 S    
C29   C31   1.537713 S    
C54   C58   1.391852 A    
C105  C145  1.415665 A    
C32   H16   1.113077 S    
C195  H129  1.108506 S    
O54   C182  1.409067 S    
C155  C159  1.390715 A    
H19   C139  1.082919 S    
C68   O68   1.382695 S    
C188  H108  1.111385 S    
C29   H5    1.113580 S    
C108  C116  1.408677 A    
C197  H134  1.103420 S    
C180  O55   1.383894 S    
C99   C111  1.409290 A    
C56   H40   1.081426 S    
O11   C7    1.271522 A    
O60   C188  1.412327 S    
O34   C15   1.278813 A    
C36   H95   1.112378 S    
C53   H37   1.081680 S    
C198  H138  1.105929 S    
Zn1   O44   1.951265 S    
C25   H1    1.113599 S    
Zn2   O43   1.951261 S    
C171  C175  1.419117 A    
H23   C143  1.082891 S    
C76   C88   1.417451 A    
C165  C169  1.412668 A    
Zn5   O48   1.951265 S    
C61   C69   1.411076 A    
C132  H48   1.081723 S    
C34   H90   1.112862 S    
C167  C171  1.409240 A    
C124  C132  1.394152 A    
Zn7   O46   1.951190 S    
C9    C113  1.450037 S    
O16   C12   1.277473 A    
C155  H59   1.079730 S    
C179  C180  1.389761 A    
Zn16  O4    1.959162 S    
C112  C120  1.408693 A    
Zn1   O13   1.933615 S    
C19   C168  1.449210 S    
C100  C112  1.410450 A    
C183  H79   1.112740 S    
C26   C28   1.547415 S    
H24   C144  1.082864 S    
C143  C151  1.391525 A    
Zn4   O16   1.936065 S    
C178  O53   1.379781 S    
C26   C38   1.551229 S    
C27   C38   1.554244 S    
C28   H4    1.112961 S    
C192  H118  1.112855 S    
C137  C145  1.392315 A    
O63   C191  1.409772 S    
C184  H84   1.109526 S    
Zn6   O4    1.945213 S    
C182  H77   1.113254 S    
Zn9   O21   1.931478 S    
C78   C82   1.410674 A    
C194  H125  1.114865 S    
C130  C142  1.389467 A    
C42   C82   1.414966 A    
C177  O54   1.380838 S    
C69   O69   1.381540 S    
O56   C184  1.409554 S    
C191  H116  1.113475 S    
C123  H67   1.082021 S    
C35   C39   1.551094 S    
C173  H85   1.081325 S    
O65   C193  1.413880 S    
C30   H6    1.112939 S    
Zn10  O22   1.930762 S    
C59   O59   1.382163 S    
C84   C116  1.411038 A    
C156  C163  1.421979 A    
O25   C8    1.284322 A    
Zn13  O29   1.933540 S    
Zn10  O2    1.950956 S    
C11   C115  1.452198 S    
C48   C88   1.413246 A    
C67   C75   1.435407 A    
O29   C12   1.273356 A    
C68   C76   1.435340 A    
Zn16  O34   1.929286 S    
C47   C87   1.414331 A    
C193  H121  1.111087 S    
C26   H2    1.112944 S    
O53   C181  1.410773 S    
C186  H100  1.111769 S    
C82   C114  1.413374 A    
O37   C17   1.276643 A    
C90   C98   1.413407 A    
O48   C23   1.278079 A    
O62   C190  1.410831 S    
C41   C81   1.414662 A    
C42   H26   1.082018 S    
C71   O71   1.382694 S    
C44   C84   1.413258 A    
C154  C161  1.419649 A    
C73   C85   1.411983 A    
C3    C89   1.454220 S    
C198  H136  1.112321 S    
C74   C90   1.418662 A    
Zn16  O35   1.931728 S    
C133  H41   1.081686 S    
C103  C127  1.418489 A    
C200  H142  1.110362 S    
Zn15  O33   1.933540 S    
C30   C40   1.551286 S    
C17   C166  1.443500 S    
C44   H28   1.082317 S    
Zn7   O10   1.936023 S    
C28   C37   1.551182 S    
O33   C16   1.273084 A    
C122  H66   1.081240 S    
H17   C137  1.082556 S    
C130  H46   1.082622 S    
O40   C20   1.266265 A    
C194  H124  1.112239 S    
C110  C150  1.416663 A    
C161  C165  1.413481 A    
C187  H103  1.113458 S    
C86   C118  1.413728 A    
C126  H70   1.081010 S    
C88   C120  1.410637 A    
C189  H109  1.111726 S    
O64   C192  1.412132 S    
Zn5   O17   1.933615 S    
C192  H120  1.108435 S    
C60   O60   1.381178 S    
C69   C77   1.430535 A    
C43   C51   1.386767 A    
C25   C27   1.537713 S    
C23   C39   1.494617 S    
C111  C119  1.409255 A    
C89   C97   1.413525 A    
C109  C117  1.409338 A    
C27   H3    1.113513 S    
C103  C107  1.409366 A    
C32   H8    1.112961 S    
Zn8   O3    1.945357 S    
C43   H27   1.081589 S    
C168  C172  1.429787 A    
C129  H45   1.081641 S    
C195  H127  1.111841 S    
C33   H92   1.112908 S    
C65   C73   1.429200 A    
O38   C18   1.272564 A    
C64   O64   1.381788 S    
C98   C110  1.411354 A    
C190  H114  1.109527 S    
C36   H94   1.112855 S    
C63   C71   1.405558 A    
C134  C138  1.389875 A    
C63   O63   1.380957 S    
O5    C1    1.279219 A    
C189  H111  1.108733 S    
C59   C67   1.406344 A    
O32   C9    1.276529 A    
C52   C64   1.390533 A    
C55   C59   1.391303 A    
C169  C170  1.405772 A    
C51   C63   1.390278 A    
Zn15  O51   1.954271 S    
Zn11  O28   1.929034 S    
C50   C62   1.392038 A    
C196  H132  1.107780 S    
C97   C121  1.416267 A    
C1    C91   1.450538 S    
C74   C86   1.411311 A    
C2    C92   1.453936 S    
C199  H139  1.112061 S    
C12   C116  1.452260 S    
C142  C150  1.393165 A    
C54   H38   1.082934 S    
C151  H55   1.082033 S    
O72   C200  1.411370 S    
O8    C4    1.275087 A    
C200  H144  1.107676 S    
Zn9   O1    1.959463 S    
C129  C141  1.388647 A    
C166  C170  1.416972 A    
C94   C102  1.413738 A    
C56   C60   1.389953 A    
C46   H30   1.081969 S    
C107  C147  1.418489 A    
O50   C18   1.273858 A    
C145  H49   1.081721 S    
Zn1   O1    1.945214 S    
C50   H34   1.082932 S    
C187  H105  1.108238 S    
Zn13  O1    1.950654 S    
Zn2   O14   1.938633 S    
C175  H87   1.081367 S    
C196  H130  1.110463 S    
C26   H10   1.113061 S    
C29   C39   1.554477 S    
C33   C34   1.547402 S    
C49   C61   1.389683 A    
C102  C106  1.411399 A    
C175  C179  1.391380 A    
C46   C54   1.391783 A    
C126  C134  1.393510 A    
C186  H102  1.108838 S    
O9    C5    1.279092 A    
C55   H39   1.080903 S    
O36   C13   1.278789 A    
C72   C80   1.435416 A    
C136  H44   1.081947 S    
C35   H93   1.112930 S    
O13   C9    1.274495 A    
Zn1   O8    1.938589 S    
H20   C140  1.082533 S    
C185  H97   1.110842 S    
Zn2   O7    1.933572 S    
C152  H56   1.082472 S    
C77   C81   1.413857 A    
Zn3   O6    1.936023 S    
O18   C14   1.277257 A    
O31   C10   1.279313 A    
O45   C23   1.275029 A    
C176  H88   1.071193 S    
O6    C2    1.279269 A    
C80   C84   1.417527 A    
C41   H25   1.082282 S    
C31   C40   1.554211 S    
C188  H107  1.112669 S    
C75   C87   1.416974 A    
O69   C197  1.413852 S    
C105  C113  1.409853 A    
C48   H32   1.082290 S    
C183  H81   1.109266 S    
C153  H57   1.081122 S    
O57   C185  1.413061 S    
C135  H43   1.077843 S    
C190  H112  1.111822 S    
Zn14  O30   1.929286 S    
Zn15  O3    1.950654 S    
C52   H36   1.081448 S    
Zn11  O3    1.959463 S    
O41   C21   1.275068 A    
C164  C168  1.417247 A    
C45   C53   1.388246 A    
C198  H137  1.114766 S    
C157  H61   1.082784 S    
O70   C198  1.414820 S    
C24   C40   1.495423 S    
C31   H15   1.113457 S    
C159  H63   1.082774 S    
C125  C133  1.391236 A    
C128  C136  1.393819 A    
Zn8   O20   1.936065 S    
C149  H53   1.081526 S    
C34   H91   1.112434 S    
C99   C123  1.418757 A    
C106  C146  1.416855 A    
C184  H83   1.113411 S    
C121  C129  1.391270 A    
C199  H141  1.108714 S    
O59   C187  1.409982 S    
C92   C100  1.417692 A    
C174  H86   1.079962 S    
C71   C79   1.434687 A    
C181  H73   1.112544 S    
C18   C165  1.440047 S    
Zn8   O9    1.936082 S    
C179  O56   1.381728 S    
C112  C152  1.417269 A    
C62   C70   1.408829 A    
C6    C96   1.453833 S    
C162  C166  1.414902 A    
O7    C3    1.272502 A    
C171  C172  1.401583 A    
O19   C15   1.278352 A    
H22   C142  1.081060 S    
Zn9   O24   1.929034 S    
C133  C137  1.388173 A    
Zn6   O18   1.938633 S    
C91   C99   1.416335 A    
Zn10  O23   1.933290 S    
C101  C125  1.416600 A    
O55   C183  1.403179 S    
C108  C148  1.417185 A    
C33   H89   1.112867 S    
C161  C162  1.407278 A    
C42   C50   1.391906 A    
C163  C164  1.406215 A    
C70   C78   1.425743 A    
C78   C94   1.418339 A    
Zn15  O36   1.931015 S    
O15   C11   1.278115 A    
O42   C22   1.278445 A    
C193  H122  1.113908 S    
Zn4   O1    1.945357 S    
C30   C32   1.547472 S    
C197  H133  1.113441 S    
Zn9   O37   1.949960 S    
O12   C8    1.274748 A    
C136  C140  1.388953 A    
Zn11  O39   1.949960 S    
C66   C74   1.426252 A    
C153  C157  1.392864 A    
C58   C66   1.408628 A    
C195  H128  1.113881 S    
C193  H123  1.102354 S    
C45   H29   1.082310 S    
C35   C36   1.547323 S    
C16   C120  1.452083 S    
Zn5   O3    1.945214 S    
C79   C95   1.424128 A    
C31   H7    1.113506 S    
C41   C49   1.387415 A    
C32   C39   1.551229 S    
C49   H33   1.082932 S    
C132  C144  1.388974 A    
C182  H76   1.113168 S    
C44   C52   1.382365 A    
C144  C152  1.392756 A    
C135  C139  1.387473 A    
C21   C37   1.494678 S    
C187  H104  1.113065 S    
C169  C173  1.419063 A    
O28   C5    1.278794 A    
C189  H110  1.113771 S    
C190  H113  1.113918 S    
C4    C90   1.455527 S    
Zn3   O42   1.951190 S    
C172  C176  1.427159 A    
O68   C196  1.411481 S    
Zn7   O4    1.945359 S    
O21   C4    1.283621 A    
C192  H119  1.111510 S    
C125  H69   1.079845 S    
C81   C113  1.411847 A    
C127  C135  1.392690 A    
C57   C65   1.407605 A    
C53   C57   1.402224 A    
C176  C180  1.407250 A    
Zn6   O47   1.951261 S    
C194  H126  1.105399 S    
C60   C68   1.410807 A    
Zn2   O2    1.945213 S    
C20   C167  1.439004 S    
Zn14  O2    1.959162 S    
O67   C195  1.411349 S    
C104  C108  1.410315 A    
C67   O67   1.382741 S    
C191  H115  1.114009 S    
C48   C56   1.381985 A    
C10   C114  1.452833 S    
C160  H64   1.082311 S    
C102  C126  1.416686 A    
Zn13  O49   1.954271 S    
O44   C21   1.278095 A    
C28   H12   1.113072 S    
C47   C55   1.386573 A    
H18   C138  1.082531 S    
C182  H78   1.108713 S    
C183  H80   1.108751 S    
Zn12  O27   1.933290 S    
C34   C38   1.551489 S    
C72   O72   1.382679 S    
C111  C151  1.418342 A    
C87   C119  1.414656 A    
C109  C149  1.415401 A    
Zn3   O2    1.945359 S    
C139  C147  1.391309 A    
C85   C117  1.411682 A    
C33   C37   1.551215 S    
C62   O62   1.383089 S    
C75   C91   1.424779 A    
C76   C92   1.427360 A    
O46   C24   1.278474 A    
O47   C24   1.275243 A    
Zn16  O52   1.950002 S    
C196  H131  1.114203 S    
C134  H42   1.082592 S    
C131  H47   1.078428 S    
Zn8   O45   1.951193 S    
C154  H58   1.081242 S    
O27   C6    1.274479 A    
C199  H140  1.113893 S    
O39   C19   1.290124 A    
C22   C38   1.495356 S    
Zn12  O4    1.950956 S    
C7    C93   1.454382 S    
C110  C118  1.413340 A    
C158  H62   1.082238 S    
C104  C128  1.419101 A    
C200  H143  1.114149 S    
O24   C1    1.278652 A    
C150  H54   1.082128 S    
O71   C199  1.411269 S    
C97   C109  1.408858 A    
C157  C158  1.388148 A    
C79   C83   1.416876 A    
H21   C141  1.082245 S    
C70   O70   1.381573 S    
O43   C22   1.275221 A    
C43   C83   1.414917 A    
Zn4   O41   1.951193 S    
Zn3   O15   1.936127 S    
Zn5   O12   1.938589 S    
C65   O65   1.381124 S    
Zn6   O11   1.933572 S    
C66   O66   1.381607 S    
C107  C115  1.409422 A    
Zn14  O50   1.950002 S    
C186  H101  1.113757 S    
C98   C122  1.416948 A    
O35   C14   1.279751 A    
C96   C104  1.417333 A    
Zn12  O40   1.954229 S    
C131  C143  1.387666 A    
C141  C149  1.392089 A    
C35   H96   1.112917 S    
C185  H98   1.115010 S    
O52   C20   1.279880 A    
C163  C167  1.416584 A    
C138  C146  1.393435 A    
C29   H13   1.113413 S    
C46   C86   1.415027 A    
C191  H117  1.107096 S    
C159  C160  1.384652 A    
C8    C94   1.456158 S    
C188  H106  1.108319 S    
O22   C3    1.282195 A    
C173  C177  1.394028 A    
C95   C103  1.416186 A    
Zn7   O19   1.936127 S    
C47   H31   1.081736 S    
C156  C160  1.391404 A    
C93   C101  1.413913 A    
C123  C131  1.392887 A    
Zn13  O32   1.931015 S    
O49   C17   1.272101 A    
Zn14  O31   1.931728 S    
C185  H99   1.109286 S    
C57   O57   1.391411 S    
C153  C162  1.419794 A    
O51   C19   1.263359 A    
C147  H51   1.081948 S    
C73   C89   1.423437 A    
C155  C164  1.422609 A    
C148  H52   1.082481 S    
O20   C16   1.277673 A    
C77   C93   1.423993 A    
C27   H11   1.113452 S    
O61   C189  1.406923 S    
Zn4   O5    1.936082 S    
O17   C13   1.272107 A    
C80   C96   1.427443 A    
C101  C105  1.409146 A    
O10   C6    1.279296 A    
O23   C2    1.274575 A    
Zn11  O25   1.931478 S    
C121  H65   1.079837 S    
O58   C186  1.410636 S    
Zn10  O38   1.954229 S    
C5    C95   1.450625 S    
O14   C10   1.277522 A    
C128  H72   1.082170 S    
C124  H68   1.082185 S    
C45   C85   1.413461 A    
C64   C72   1.410945 A    
C154  C158  1.392834 A    
C25   H9    1.113411 S    
C140  C148  1.392726 A    
O66   C194  1.414356 S    
C51   H35   1.081013 S    
C14   C118  1.453266 S    
C127  H71   1.081959 S    
C100  C124  1.419163 A    
C15   C119  1.452385 S    
C36   C40   1.551476 S    
C61   O61   1.381482 S    
