data_mof_unit_pretest_1418.cif
_audit_creation_date              2012-12-10T17:39:22-0500
_audit_creation_method            fapswitch 2.2
_symmetry_space_group_name_H-M    P1
_symmetry_Int_Tables_number       1
_space_group_crystal_system       triclinic
_cell_length_a                    12.332422
_cell_length_b                    13.139923
_cell_length_c                    27.749869
_cell_angle_alpha                 76.967442
_cell_angle_beta                  101.59423
_cell_angle_gamma                 116.757744
_cell_volume                      3886.18807652

loop_
_atom_site_label
_atom_site_type_symbol
_atom_type_description
_atom_site_fract_x
_atom_site_fract_y
_atom_site_fract_z
_atom_type_partial_charge
C1    C     C_R   0.855129 0.287101 0.500428 0.794216
C2    C     C_R   0.083571 0.467903 0.731913 -0.099091
C3    C     C_R   0.997389 0.492024 0.747329 0.353113
C4    C     C_R   0.997688 0.488257 0.899767 -0.045931
C5    C     C_R   0.900340 0.403854 0.874344 -0.023931
C6    C     C_R   0.805403 0.317327 0.900406 -0.138114
C7    C     C_R   0.096177 0.572148 0.874223 -0.016946
C8    C     C_R   0.999351 0.497951 0.645744 -0.043949
C9    C     C_R   0.999914 0.497238 0.355218 -0.043969
C10   C     C_R   0.886629 0.417905 0.024511 0.024906
C11   C     C_R   0.104164 0.556764 0.029436 0.050625
C12   C     C_R   0.999822 0.499602 0.592529 0.772627
C13   C     C_R   0.996288 0.484207 0.052686 0.045938
C14   C     C_R   0.775812 0.363830 0.047294 -0.023229
C15   C     C_R   0.780464 0.356355 0.098679 -0.231428
C16   C     C_R   0.890396 0.412703 0.127515 -0.022588
C17   C     C_R   0.997929 0.479193 0.104411 -0.045113
C18   C     C_R   0.107042 0.541543 0.133069 -0.019522
C19   C     C_R   0.106225 0.536972 0.184006 0.530716
C20   C     C_R   0.893623 0.410737 0.178639 0.548028
C21   C     C_R   0.992423 0.387617 0.293877 -0.111920
C22   C     C_R   0.993363 0.396279 0.343106 -0.251296
C23   C     C_R   0.144899 0.713704 0.495710 0.784337
C24   C     C_R   0.008053 0.591929 0.317279 0.060321
C25   C     C_R   0.006444 0.581462 0.267937 -0.122448
C26   C     C_R   0.998871 0.480202 0.256218 0.333934
C27   C     C_R   0.893237 0.408743 0.975151 0.059635
C28   C     C_R   0.996920 0.488235 0.950819 0.061658
C29   C     C_R   0.100422 0.566517 0.977231 0.044847
C30   C     C_R   0.803146 0.318578 0.950204 -0.125773
C31   C     C_R   0.194407 0.654121 0.899800 -0.135514
C32   C     C_R   0.212702 0.616183 0.059402 -0.202215
C33   C     C_R   0.213960 0.608340 0.110259 -0.144135
C34   C     C_R   0.000986 0.501286 0.407653 0.798386
C35   C     C_R   0.197143 0.650988 0.950454 -0.199561
C36   C     C_R   0.261204 0.033078 0.456974 -0.204339
C37   C     C_R   0.226293 0.837334 0.492850 -0.076385
C38   C     C_R   0.815752 0.078451 0.501447 0.006069
C39   C     C_R   0.732196 0.962620 0.504364 -0.222027
C40   C     C_R   0.607411 0.931045 0.499911 -0.152144
C41   C     C_R   0.561311 0.014605 0.491684 0.059784
C42   C     C_R   0.643420 0.131425 0.480554 0.022047
C43   C     C_R   0.434458 0.984387 0.489414 0.031991
C44   C     C_R   0.388320 0.066951 0.464343 0.100284
C45   C     C_R   0.902169 0.406379 0.823642 0.540624
C46   C     C_R   0.469928 0.179954 0.446006 0.067040
C47   C     C_R   0.595127 0.209498 0.453787 -0.199942
C48   C     C_R   0.350876 0.874842 0.511444 0.042979
C49   C     C_R   0.181482 0.918288 0.468494 -0.220803
C50   C     C_R   0.771909 0.165144 0.493168 -0.129278
C51   C     C_R   0.338856 0.313752 0.572884 -0.274027
C52   C     C_R   0.760692 0.646040 0.432632 0.021849
C53   C     C_R   0.659169 0.668127 0.412988 -0.236208
C54   C     C_R   0.548640 0.604443 0.433964 0.004562
C55   C     C_R   0.545664 0.526837 0.479469 -0.109344
C56   C     C_R   0.093733 0.572278 0.823429 0.538367
C57   C     C_R   0.650512 0.502661 0.495861 0.229920
C58   C     C_R   0.443679 0.469002 0.508608 -0.059728
C59   C     C_R   0.441990 0.376802 0.547455 0.083479
C60   C     C_R   0.543937 0.350151 0.561494 0.033192
C61   C     C_R   0.646071 0.416177 0.536243 -0.184639
C62   C     C_R   0.345520 0.501778 0.502750 -0.008573
C63   C     C_R   0.240968 0.343243 0.562975 0.221207
C64   C     C_R   0.912107 0.519099 0.711919 -0.098586
C65   C     C_R   0.913196 0.522391 0.661418 -0.236447
C66   C     C_R   0.084631 0.470775 0.681496 -0.221515
Cu1   Cu    Cu3+1 0.098270 0.475420 0.511360 0.945958
Cu2   Cu    Cu3+1 0.901730 0.524580 0.488640 0.911802
H1    H     H_    0.152042 0.451443 0.670601 0.155847
H2    H     H_    0.845465 0.538217 0.723572 0.145002
H3    H     H_    0.270495 0.720677 0.880856 0.187959
H4    H     H_    0.299306 0.667138 0.044739 0.142995
H5    H     H_    0.299393 0.655740 0.131615 0.187426
H6    H     H_    0.013622 0.653050 0.238300 0.134660
H7    H     H_    0.274918 0.717978 0.967462 0.142340
H8    H     H_    0.084638 0.892532 0.457073 0.163006
H9    H     H_    0.221310 0.092196 0.438901 0.169443
H10   H     H_    0.149632 0.446731 0.759098 0.146960
H11   H     H_    0.547589 0.841449 0.498397 0.146925
H12   H     H_    0.763627 0.895755 0.508825 0.140326
H13   H     H_    0.653593 0.292275 0.434927 0.183575
H14   H     H_    0.333333 0.241001 0.601386 0.179208
H15   H     H_    0.347841 0.579409 0.478863 0.134830
H16   H     H_    0.843385 0.692671 0.414672 0.130115
H17   H     H_    0.732493 0.247955 0.882484 0.185841
H18   H     H_    0.664944 0.729620 0.379120 0.187507
H19   H     H_    0.722261 0.397625 0.548534 0.214230
H20   H     H_    0.988281 0.323703 0.371902 0.186193
H21   H     H_    0.987470 0.309385 0.285013 0.147246
H22   H     H_    0.695848 0.312451 0.115649 0.181487
H23   H     H_    0.731383 0.246327 0.969158 0.142741
H24   H     H_    0.846326 0.543513 0.634744 0.163601
N1    N     N_R   0.997525 0.490332 0.799223 -0.467937
N2    N     N_R   0.000187 0.473374 0.205523 -0.465942
N3    N     N_R   0.246290 0.438210 0.528570 -0.212620
N4    N     N_R   0.754320 0.561170 0.471730 -0.198656
O1    O     O_R   0.972510 0.318140 0.514280 -0.554979
O2    O     O_2   0.790648 0.348859 0.201082 -0.538070
O3    O     O_2   0.186369 0.654023 0.798321 -0.538766
O4    O     O_2   0.210242 0.596434 0.211794 -0.532078
O5    O     O_R   0.806530 0.359640 0.495100 -0.617702
O6    O     O_R   0.082990 0.479270 0.579320 -0.617779
O7    O     O_R   0.917010 0.520770 0.560140 -0.598597
O8    O     O_R   0.193470 0.640360 0.504900 -0.593625
O9    O     O_R   0.027490 0.681860 0.485720 -0.580662
O10   O     O_R   0.082990 0.479230 0.439860 -0.558494
O11   O     O_R   0.917010 0.520730 0.420680 -0.591552
O12   O     O_2   0.809877 0.325321 0.799001 -0.548395
C67   C     C_3   0.027407 0.707136 0.328108 -0.445665
C68   C     C_3   0.159857 0.773731 0.350000 -0.293162
C69   C     C_3   0.189493 0.900289 0.348456 -0.839630
H25   H     H_    0.188443 0.944312 0.309289 0.254552
H26   H     H_    0.121399 0.907802 0.366492 0.250517
H27   H     H_    0.281967 0.943956 0.368272 0.257974
H28   H     H_    0.174510 0.734401 0.389182 0.211752
H29   H     H_    0.224214 0.769538 0.328409 0.261657
H30   H     H_    0.006828 0.759579 0.293126 0.206727
H31   H     H_    0.962883 0.695262 0.353724 0.201304
C70   C     C_3   0.428067 0.272245 0.418390 -0.410997
C71   C     C_3   0.377134 0.254568 0.364227 -0.366653
C72   C     C_3   0.329372 0.344117 0.337794 -0.786173
H32   H     H_    0.293035 0.329515 0.298748 0.251046
H33   H     H_    0.254563 0.336904 0.356860 0.253008
H34   H     H_    0.404267 0.432478 0.337408 0.262200
H35   H     H_    0.450783 0.262645 0.344160 0.235302
H36   H     H_    0.301589 0.167215 0.362477 0.224742
H37   H     H_    0.360141 0.274676 0.438502 0.208163
H38   H     H_    0.506014 0.359027 0.417876 0.202989
C73   C     C_3   0.385254 0.807769 0.560263 -0.375490
C74   C     C_3   0.459480 0.884102 0.600522 -0.375551
C75   C     C_3   0.480758 0.811147 0.649580 -0.804709
H39   H     H_    0.392161 0.749109 0.663560 0.263782
H40   H     H_    0.530640 0.762791 0.644281 0.254525
H41   H     H_    0.536336 0.867546 0.678017 0.248901
H42   H     H_    0.549835 0.948361 0.589123 0.237801
H43   H     H_    0.408932 0.931209 0.606567 0.227618
H44   H     H_    0.300746 0.742552 0.576561 0.210631
H45   H     H_    0.431589 0.757169 0.554490 0.193505
C76   C     C_2   0.945559 0.102737 0.502346 0.383793
H46   H     H_    0.982205 0.046128 0.527165 0.093895
O13   O     O_2   0.009830 0.179916 0.472811 -0.549317
C77   C     C_2   0.134816 0.269144 0.591636 0.347544
H47   H     H_    0.069404 0.297728 0.596286 0.127330
O14   O     O_2   0.119015 0.171372 0.611650 -0.586380
C78   C     C_3   0.544661 0.254775 0.605194 -0.404858
C79   C     C_3   0.661783 0.234979 0.619000 -0.386394
C80   C     C_3   0.653179 0.146278 0.665953 -0.786467
H48   H     H_    0.652081 0.181235 0.698675 0.280359
H49   H     H_    0.568722 0.065965 0.662049 0.250772
H50   H     H_    0.733532 0.125799 0.672507 0.248911
H51   H     H_    0.676456 0.203826 0.587845 0.218528
H52   H     H_    0.741827 0.316269 0.626674 0.228225
H53   H     H_    0.527482 0.275757 0.638779 0.214613
H54   H     H_    0.468508 0.171851 0.596268 0.203811
C81   C     C_2   0.436940 0.607345 0.402776 0.320022
H55   H     H_    0.350166 0.531743 0.404941 0.088326
O15   O     O_2   0.441046 0.693233 0.373372 -0.536828
C82   C     C_2   0.652257 0.330559 0.019060 0.339867
H56   H     H_    0.573462 0.261828 0.035841 0.070468
O16   O     O_2   0.636190 0.384070 0.978266 -0.514274

loop_
_geom_bond_atom_site_label_1
_geom_bond_atom_site_label_2
_ccdc_geom_bond_type
C10   C27   A    
C58   C62   A    
C65   H24   S    
C82   O16   D    
C62   H15   S    
C8    C66   A    
C68   H29   S    
C81   O15   D    
C11   C13   A    
C41   C42   A    
C69   H25   S    
Cu2   O7    S    
C21   C26   A    
C75   H41   S    
C45   N1    A    
C78   C79   S    
C67   H30   S    
C32   H4    S    
C21   H21   S    
C53   C54   A    
C52   C53   A    
C35   H7    S    
Cu2   N4    S    
C6    H17   S    
C14   C82   S    
C34   O11   A    
C28   C29   A    
C80   H49   S    
C25   H6    S    
C2    C3    A    
C36   H9    S    
C5    C6    A    
C71   H36   S    
C9    C22   A    
C66   H1    S    
C15   C16   A    
C23   O9    A    
C63   N3    A    
C18   C19   A    
C52   H16   S    
Cu1   O10   S    
C68   C69   S    
C72   H34   S    
C61   H19   S    
C54   C55   A    
C73   H45   S    
C80   H48   S    
C16   C17   A    
C57   N4    A    
Cu1   O8    S    
C38   C76   S    
C53   H18   S    
Cu2   O11   S    
C64   H2    S    
C43   C48   A    
C45   O12   S    
C8    C12   S    
C78   H53   S    
C70   H38   S    
C31   H3    S    
C59   C60   A    
C62   N3    A    
C27   C30   A    
Cu1   N3    S    
C41   C43   A    
C7    C56   A    
C4    C7    A    
C4    C28   A    
C44   C46   A    
C67   H31   S    
C56   N1    A    
C49   H8    S    
C7    C31   A    
Cu1   Cu2   S    
C34   O10   A    
C80   H50   S    
C51   C63   A    
Cu2   O5    S    
C12   O7    A    
C3    N1    S    
C10   C14   A    
C1    O1    A    
C54   C81   S    
C71   H35   S    
C4    C5    A    
C75   H40   S    
C58   C59   A    
C23   C37   S    
C5    C45   A    
C60   C61   A    
C82   H56   S    
C43   C44   A    
C12   O6    A    
C2    H10   S    
C37   C49   A    
C23   O8    A    
C16   C20   A    
C17   C18   A    
C40   H11   S    
C73   H44   S    
C69   H26   S    
C25   C26   A    
C24   C25   A    
C37   C48   A    
C51   H14   S    
C72   H32   S    
C19   N2    A    
C42   C50   A    
C79   H52   S    
C78   H54   S    
C33   H5    S    
C40   C41   A    
C6    C30   A    
C74   H42   S    
C11   C32   A    
C22   H20   S    
C26   N2    S    
C55   C57   A    
C9    C34   S    
C31   C35   A    
C48   C73   S    
C36   C44   A    
C51   C59   A    
C60   C78   S    
C75   H39   S    
C1    O5    A    
C39   C40   A    
C71   C72   S    
C79   C80   S    
C1    C50   S    
C20   N2    A    
C46   C47   A    
C14   C15   A    
C74   H43   S    
C24   C67   S    
C30   H23   S    
C2    C66   A    
C10   C13   A    
C76   H46   S    
C9    C24   A    
C57   C61   A    
C38   C50   A    
C29   C35   A    
C13   C17   A    
C39   H12   S    
C74   C75   S    
C73   C74   S    
C67   C68   S    
C32   C33   A    
C15   H22   S    
C76   O13   D    
C38   C39   A    
C64   C65   A    
C63   C77   S    
C46   C70   S    
C52   N4    A    
C69   H27   S    
C77   O14   D    
C42   C47   A    
C47   H13   S    
C3    C64   A    
C18   C33   A    
C72   H33   S    
Cu1   O1    S    
C79   H51   S    
C8    C65   A    
C20   O2    S    
C11   C29   A    
C70   C71   S    
Cu2   O9    S    
C55   C58   A    
C81   H55   S    
C77   H47   S    
C56   O3    S    
C21   C22   A    
C19   O4    S    
C68   H28   S    
C36   C49   A    
Cu1   O6    S    
C27   C28   A    
C70   H37   S    
