data_mof_unit_pretest_1679.cif
_audit_creation_date              2012-12-10T18:20:21-0500
_audit_creation_method            fapswitch 2.2
_symmetry_space_group_name_H-M    P1
_symmetry_Int_Tables_number       1
_space_group_crystal_system       triclinic
_cell_length_a                    21.523681
_cell_length_b                    21.710095
_cell_length_c                    22.012863
_cell_angle_alpha                 119.017019
_cell_angle_beta                  119.468261
_cell_angle_gamma                 90.084264
_cell_volume                      7431.71329793

loop_
_atom_site_label
_atom_site_type_symbol
_atom_type_description
_atom_site_fract_x
_atom_site_fract_y
_atom_site_fract_z
_atom_type_partial_charge
C1    C     C_R   0.501184 0.123137 0.503748 0.922988
C2    C     C_R   0.500084 0.878725 0.500383 1.036218
C3    C     C_3   0.708267 0.210382 0.917632 0.121144
C4    C     C_3   0.294211 0.788077 0.082931 0.055119
C5    C     C_3   0.735227 0.335353 0.048479 0.943577
C6    C     C_3   0.300910 0.694718 0.956595 0.903307
C7    C     C_3   0.789694 0.294614 0.082269 0.128234
C8    C     C_3   0.220988 0.707669 0.917930 0.044836
C9    C     C_3   0.742614 0.218483 0.050683 -0.679266
C10   C     C_3   0.232030 0.791627 0.951804 -0.655029
C11   C     C_3   0.697822 0.166697 0.952746 0.438966
C12   C     C_3   0.268395 0.837584 0.047609 0.441510
C13   C     C_1   0.836253 0.339127 0.174156 0.069144
C14   C     C_1   0.172884 0.662532 0.825943 -0.058607
C15   C     C_1   0.663411 0.164091 0.826007 0.020545
C16   C     C_1   0.336534 0.833377 0.174223 0.000777
C17   C     C_1   0.625977 0.126102 0.750919 -0.205311
C18   C     C_1   0.373756 0.872081 0.249218 -0.214925
C19   C     C_3   0.420861 0.209908 0.488003 0.898976
C20   C     C_3   0.577398 0.795171 0.521063 0.841306
C21   C     C_3   0.417889 0.268480 0.464582 0.141281
C22   C     C_3   0.576535 0.729022 0.532235 0.110075
C23   C     C_R   0.581152 0.081109 0.661980 0.867778
C24   C     C_R   0.418857 0.918359 0.338077 0.850098
C25   C     C_3   0.567540 0.259458 0.592798 0.143582
C26   C     C_3   0.434562 0.742588 0.410116 0.040906
C27   C     C_3   0.508904 0.181468 0.434690 0.209212
C28   C     C_3   0.483698 0.819953 0.567683 0.179163
C29   C     C_3   0.499262 0.192448 0.505675 -0.396074
C30   C     C_3   0.499287 0.810025 0.500317 -0.324079
C31   C     C_3   0.500822 0.311441 0.503829 -0.404908
C32   C     C_3   0.494578 0.690393 0.500060 -0.336843
C33   C     C_3   0.555601 0.333805 0.600150 0.828703
C34   C     C_3   0.434919 0.668046 0.406416 0.761139
C35   C     C_3   0.530249 0.258782 0.448586 0.862014
C36   C     C_3   0.472807 0.744601 0.562257 0.850532
C37   C     C_3   0.741862 0.581059 0.552751 -0.459449
C38   C     C_3   0.279011 0.428266 0.484768 -0.438873
C39   C     C_3   0.808482 0.460903 0.544510 -0.503703
C40   C     C_3   0.172801 0.502348 0.422279 -0.464485
C41   C     C_3   0.735891 0.461749 0.544462 0.368213
C42   C     C_3   0.247423 0.511917 0.428711 0.375812
C43   C     C_3   0.690605 0.500643 0.500829 -0.084245
C44   C     C_3   0.309226 0.501694 0.498553 -0.059301
C45   C     C_3   0.744141 0.457687 0.409367 0.215455
C46   C     C_3   0.253003 0.570066 0.581074 0.245944
C47   C     C_3   0.671599 0.455325 0.408286 0.286626
C48   C     C_3   0.327314 0.567035 0.586029 0.290543
C49   C     C_R   0.881125 0.501621 0.503686 0.924026
C50   C     C_R   0.119932 0.499079 0.498081 0.881570
C51   C     C_R   0.919193 0.419405 0.338222 0.900579
C52   C     C_R   0.081916 0.580731 0.661868 0.881593
C53   C     C_R   0.378045 0.502325 0.499556 0.884308
C54   C     C_R   0.621855 0.500960 0.500093 0.913107
C55   C     C_R   0.500302 0.378633 0.500955 0.975460
C56   C     C_R   0.496614 0.621559 0.499829 1.030597
C57   C     C_3   0.812606 0.500090 0.502387 0.015876
C58   C     C_3   0.187598 0.499673 0.497302 -0.004959
C59   C     C_3   0.812644 0.580929 0.552171 -0.503581
C60   C     C_3   0.209368 0.428507 0.487763 -0.463539
C61   C     C_3   0.686944 0.282507 0.948812 -0.566282
C62   C     C_3   0.341415 0.743162 0.054516 -0.402815
C63   C     C_3   0.792620 0.233815 0.951862 -0.593884
C64   C     C_3   0.222419 0.729688 0.044823 -0.586694
C65   C     C_3   0.841633 0.279467 0.049431 0.324654
C66   C     C_3   0.175911 0.686004 0.947268 0.380418
C67   C     C_1   0.874292 0.375702 0.249256 -0.187014
C68   C     C_1   0.131169 0.625032 0.750851 -0.209092
H1    H     H_    0.712487 0.613838 0.529145 0.137757
H2    H     H_    0.322584 0.421165 0.533938 0.201459
H3    H     H_    0.873606 0.244990 0.069557 0.040781
H4    H     H_    0.124317 0.703384 0.926142 0.037465
H5    H     H_    0.727134 0.124476 0.940262 0.103249
H6    H     H_    0.221519 0.851457 0.054656 0.108915
H7    H     H_    0.707369 0.227847 0.075565 0.235930
H8    H     H_    0.265733 0.813462 0.937571 0.224490
H9    H     H_    0.625935 0.267958 0.921956 0.170173
H10   H     H_    0.398117 0.780200 0.086881 0.168761
H11   H     H_    0.780867 0.191501 0.078125 0.159053
H12   H     H_    0.176473 0.799556 0.920234 0.171788
H13   H     H_    0.748975 0.488654 0.382869 0.087440
H14   H     H_    0.258171 0.568480 0.633340 0.077063
H15   H     H_    0.393346 0.308833 0.493447 0.031349
H16   H     H_    0.591732 0.684563 0.494091 0.018370
H17   H     H_    0.567537 0.260676 0.643932 0.083519
H18   H     H_    0.448526 0.737536 0.365676 0.151584
H19   H     H_    0.555684 0.158475 0.439334 0.113538
H20   H     H_    0.432709 0.836909 0.554299 0.111261
H21   H     H_    0.758503 0.610518 0.618671 0.210696
H22   H     H_    0.265555 0.379540 0.424752 0.147423
H23   H     H_    0.805955 0.402012 0.508545 0.204241
H24   H     H_    0.152541 0.549883 0.423674 0.206373
H25   H     H_    0.861882 0.486768 0.607053 0.166728
H26   H     H_    0.126257 0.452492 0.362265 0.164158
H27   H     H_    0.814933 0.610851 0.523807 0.192684
H28   H     H_    0.221461 0.426055 0.541749 0.202237
H29   H     H_    0.700396 0.403048 0.502163 0.091953
H30   H     H_    0.268319 0.571525 0.454527 0.115917
H31   H     H_    0.645912 0.396543 0.382350 0.119789
H32   H     H_    0.354192 0.619807 0.598841 0.092207
H33   H     H_    0.863418 0.612168 0.617962 0.182713
H34   H     H_    0.161912 0.377882 0.429225 0.187262
H35   H     H_    0.694621 0.308980 0.919844 0.163866
H36   H     H_    0.354300 0.707007 0.078894 0.181872
H37   H     H_    0.810040 0.183949 0.927080 0.145483
H38   H     H_    0.187626 0.756903 0.067408 0.140905
H39   H     H_    0.802166 0.266834 0.929511 0.218634
H40   H     H_    0.237558 0.691183 0.065658 0.226298
O1    O     O_R   0.447710 0.092600 0.500010 -0.602411
O2    O     O_R   0.552290 0.907400 0.499990 -0.576196
O3    O     O_R   0.441990 0.534630 0.569310 -0.616889
O4    O     O_R   0.558010 0.465370 0.430690 -0.594896
O5    O     O_R   0.465370 0.372730 0.430660 -0.579187
O6    O     O_R   0.534630 0.627270 0.569340 -0.603804
O7    O     O_R   0.534650 0.442080 0.569370 -0.611328
O8    O     O_R   0.465350 0.557920 0.430630 -0.569609
O9    O     O_R   0.552280 0.092600 0.499960 -0.626129
O10   O     O_R   0.447720 0.907400 0.500040 -0.632443
O11   O     O_R   0.509140 0.061430 0.622880 -0.641552
O12   O     O_R   0.490860 0.938570 0.377120 -0.621329
O13   O     O_R   0.613710 0.061430 0.622840 -0.631093
O14   O     O_R   0.386290 0.938570 0.377160 -0.618671
O15   O     O_R   0.907580 0.552300 0.500030 -0.651659
O16   O     O_R   0.092420 0.447700 0.499970 -0.648405
O17   O     O_R   0.907560 0.447760 0.500050 -0.595439
O18   O     O_R   0.092440 0.552240 0.499950 -0.581725
O19   O     O_R   0.938770 0.490850 0.377130 -0.609433
O20   O     O_R   0.061230 0.509150 0.622870 -0.617982
O21   O     O_R   0.938740 0.386300 0.377150 -0.615999
O22   O     O_R   0.061260 0.613700 0.622850 -0.627137
O23   O     O_R   0.372700 0.465280 0.430600 -0.612612
O24   O     O_R   0.627300 0.534720 0.569400 -0.595694
Zn1   Zn    Zn3+2 0.430180 0.000000 0.500030 0.923046
Zn2   Zn    Zn3+2 0.569820 0.000000 0.499970 0.937119
Zn3   Zn    Zn3+2 0.000200 0.569810 0.499990 0.938389
Zn4   Zn    Zn3+2 0.999800 0.430190 0.500010 0.942432
Zn5   Zn    Zn3+2 0.453740 0.453690 0.407380 1.016891
Zn6   Zn    Zn3+2 0.546260 0.546310 0.592620 0.968401
O25   O     O_3   0.621437 0.123048 0.906155 -0.607464
C69   C     C_3   0.580934 0.154153 0.941681 -0.306052
H41   H     H_    0.591783 0.214226 0.968674 0.198652
H42   H     H_    0.592500 0.142331 0.989342 0.167572
H43   H     H_    0.520042 0.126693 0.891222 0.176319
O26   O     O_3   0.319911 0.908778 0.092326 -0.605463
C70   C     C_3   0.389764 0.907495 0.102482 -0.338417
H44   H     H_    0.385000 0.861535 0.046114 0.202267
H45   H     H_    0.428465 0.906718 0.158660 0.169719
H46   H     H_    0.415710 0.959766 0.114550 0.175605
O27   O     O_3   0.689028 0.342974 0.079637 -0.667921
C71   C     C_3   0.644811 0.389519 0.069170 0.065575
H47   H     H_    0.610225 0.372784 0.002882 0.118709
H48   H     H_    0.680805 0.448378 0.111756 0.168174
C72   C     C_3   0.591058 0.383677 0.093434 -0.857515
H49   H     H_    0.623221 0.404145 0.160939 0.251057
H50   H     H_    0.554000 0.417986 0.082756 0.213904
H51   H     H_    0.555645 0.325056 0.054860 0.249182
O28   O     O_3   0.355070 0.718860 0.945975 -0.666705
C73   C     C_3   0.331233 0.714558 0.871189 0.024060
H52   H     H_    0.281444 0.731921 0.847333 0.148428
H53   H     H_    0.320740 0.657973 0.820559 0.129151
C74   C     C_3   0.395274 0.766918 0.890585 -0.862970
H54   H     H_    0.445123 0.747199 0.906132 0.255516
H55   H     H_    0.378156 0.770191 0.836279 0.189822
H56   H     H_    0.411169 0.823759 0.944657 0.252905
O29   O     O_3   0.414541 0.245588 0.558827 -0.689416
C75   C     C_3   0.427569 0.215704 0.607188 0.189661
H57   H     H_    0.444338 0.263173 0.670110 0.152210
H58   H     H_    0.475852 0.194776 0.621969 0.117256
C76   C     C_3   0.356562 0.160709 0.573298 -0.830560
H59   H     H_    0.341261 0.106922 0.516010 0.271431
H60   H     H_    0.366552 0.150020 0.621348 0.194495
H61   H     H_    0.309182 0.183967 0.559376 0.231269
O30   O     O_3   0.582599 0.781623 0.452899 -0.656187
C77   C     C_3   0.625763 0.735872 0.433936 0.033935
H62   H     H_    0.589956 0.677155 0.389247 0.189818
H63   H     H_    0.675686 0.742110 0.489821 0.109858
C78   C     C_3   0.652152 0.754153 0.390247 -0.844026
H64   H     H_    0.689639 0.812401 0.432858 0.242648
H65   H     H_    0.683632 0.716580 0.372257 0.202000
H66   H     H_    0.602975 0.746610 0.332593 0.264171
O31   O     O_3   0.359542 0.142677 0.419073 -0.542374
C79   C     C_3   0.287540 0.149448 0.398981 -0.184983
H67   H     H_    0.287675 0.205032 0.441619 0.143652
H68   H     H_    0.258125 0.107726 0.399197 0.141830
H69   H     H_    0.253449 0.135019 0.333671 0.169832
O32   O     O_3   0.634366 0.861664 0.599894 -0.524586
C80   C     C_3   0.701252 0.883852 0.608308 -0.153535
H70   H     H_    0.690748 0.891740 0.558303 0.183186
H71   H     H_    0.734819 0.845956 0.613367 0.114535
H72   H     H_    0.736223 0.938894 0.668474 0.149799
O33   O     O_3   0.373589 0.232457 0.375538 -0.486115
C81   C     C_3   0.314296 0.260988 0.346965 0.152383
H73   H     H_    0.336119 0.320109 0.372513 0.150093
H74   H     H_    0.275941 0.256049 0.365428 0.077682
C82   C     C_3   0.269224 0.217172 0.251560 -0.804157
H75   H     H_    0.248555 0.157156 0.224352 0.258984
H76   H     H_    0.220118 0.236176 0.227379 0.169030
H77   H     H_    0.305165 0.225246 0.231528 0.261710
O34   O     O_3   0.627395 0.758429 0.619469 -0.480884
C83   C     C_3   0.688308 0.730225 0.636629 0.159661
H78   H     H_    0.717533 0.737128 0.609443 0.081090
H79   H     H_    0.667722 0.671029 0.611528 0.149467
C84   C     C_3   0.744409 0.771959 0.731233 -0.780310
H80   H     H_    0.716949 0.765430 0.760195 0.258432
H81   H     H_    0.792407 0.749548 0.745558 0.175529
H82   H     H_    0.765878 0.831863 0.758455 0.254922
O35   O     O_3   0.524903 0.359643 0.650282 -0.697860
C85   C     C_3   0.497115 0.420788 0.662827 0.217309
H83   H     H_    0.458553 0.414892 0.680783 0.158676
H84   H     H_    0.459931 0.420371 0.606076 0.122127
C86   C     C_3   0.558477 0.495157 0.736789 -0.815030
H85   H     H_    0.595179 0.510884 0.721589 0.271427
H86   H     H_    0.532231 0.539221 0.752576 0.209209
H87   H     H_    0.592944 0.492825 0.792775 0.218215
O36   O     O_3   0.463895 0.624751 0.358579 -0.665082
C87   C     C_3   0.412600 0.583700 0.270280 0.144916
H88   H     H_    0.390196 0.620278 0.248630 0.115369
H89   H     H_    0.367041 0.538705 0.248762 0.177702
C88   C     C_3   0.452205 0.545208 0.228306 -0.890871
H90   H     H_    0.473064 0.505631 0.245441 0.281430
H91   H     H_    0.411962 0.513594 0.158932 0.213503
H92   H     H_    0.499579 0.586510 0.247403 0.246745
O37   O     O_3   0.440566 0.134295 0.353958 -0.537716
C89   C     C_3   0.435289 0.058749 0.315382 -0.210742
H93   H     H_    0.409074 0.033772 0.333792 0.200364
H94   H     H_    0.489508 0.048030 0.328127 0.111367
H95   H     H_    0.396544 0.031092 0.246556 0.219493
O38   O     O_3   0.546756 0.876379 0.649747 -0.513568
C90   C     C_3   0.529124 0.940018 0.690718 -0.218967
H96   H     H_    0.494379 0.928757 0.710297 0.127937
H97   H     H_    0.500192 0.961504 0.651232 0.170293
H98   H     H_    0.582298 0.984396 0.748347 0.215809
O39   O     O_3   0.493652 0.255678 0.371586 -0.552388
C91   C     C_3   0.498103 0.200994 0.305229 -0.205084
H99   H     H_    0.440532 0.171886 0.246769 0.204338
H100  H     H_    0.520792 0.157935 0.313226 0.110983
H101  H     H_    0.531820 0.228481 0.294829 0.126584
O40   O     O_3   0.527256 0.759062 0.643392 -0.505588
C92   C     C_3   0.501736 0.775107 0.695783 -0.127473
H102  H     H_    0.549760 0.788629 0.757458 0.141333
H103  H     H_    0.457943 0.726184 0.670225 0.151625
H104  H     H_    0.482486 0.824245 0.707991 0.144664
O41   O     O_3   0.609912 0.294157 0.498368 -0.586429
C93   C     C_3   0.649896 0.261170 0.462245 0.151914
H105  H     H_    0.645867 0.279624 0.421881 0.126839
H106  H     H_    0.631497 0.199975 0.425283 0.086793
C94   C     C_3   0.732526 0.286334 0.532332 -0.781921
H107  H     H_    0.753788 0.347290 0.578369 0.282070
H108  H     H_    0.739786 0.259163 0.565970 0.263530
H109  H     H_    0.766450 0.270698 0.505342 0.180907
O42   O     O_3   0.399926 0.704390 0.533044 -0.660241
C95   C     C_3   0.338145 0.732036 0.510763 0.090830
H110  H     H_    0.286608 0.683791 0.468346 0.186546
H111  H     H_    0.331193 0.753382 0.472593 0.194768
C96   C     C_3   0.335081 0.786536 0.585265 -0.965043
H112  H     H_    0.377668 0.841219 0.624405 0.231946
H113  H     H_    0.279116 0.795009 0.561738 0.233840
H114  H     H_    0.343289 0.764269 0.623647 0.273605
O43   O     O_3   0.636592 0.252533 0.600605 -0.553598
C97   C     C_3   0.681133 0.237705 0.662153 -0.303178
H115  H     H_    0.650186 0.187976 0.649911 0.183854
H116  H     H_    0.701163 0.285321 0.726217 0.123910
H117  H     H_    0.731104 0.227483 0.660979 0.176252
O44   O     O_3   0.364384 0.755861 0.388761 -0.629039
C98   C     C_3   0.334842 0.768011 0.323609 -0.276233
H118  H     H_    0.309902 0.715506 0.261308 0.126322
H119  H     H_    0.378356 0.805421 0.333445 0.163996
H120  H     H_    0.290200 0.793867 0.322359 0.194486
O45   O     O_3   0.625463 0.386964 0.641423 -0.511769
C99   C     C_3   0.678899 0.410558 0.725787 -0.122983
H121  H     H_    0.657492 0.390987 0.752253 0.131700
H122  H     H_    0.700173 0.472032 0.766097 0.128450
H123  H     H_    0.728165 0.392240 0.730258 0.171467
O46   O     O_3   0.365906 0.623762 0.380571 -0.574036
C100  C     C_3   0.296357 0.610771 0.310564 -0.185772
H124  H     H_    0.262374 0.551936 0.273372 0.173059
H125  H     H_    0.300041 0.620052 0.267617 0.113350
H126  H     H_    0.264415 0.644913 0.332006 0.176228
O47   O     O_3   0.614764 0.467166 0.348617 -0.598515
C101  C     C_3   0.630877 0.539710 0.367812 -0.334520
H127  H     H_    0.691162 0.569537 0.403551 0.134965
H128  H     H_    0.605323 0.572133 0.400968 0.190580
H129  H     H_    0.604263 0.536028 0.307946 0.186067
O48   O     O_3   0.375389 0.554994 0.649606 -0.602437
C102  C     C_3   0.424050 0.622844 0.727574 -0.374114
H130  H     H_    0.392811 0.660863 0.744618 0.147166
H131  H     H_    0.467504 0.649564 0.726839 0.176832
H132  H     H_    0.453007 0.611661 0.777199 0.188295
O49   O     O_3   0.745973 0.384434 0.364253 -0.633143
C103  C     C_3   0.705530 0.354793 0.277376 0.114753
H133  H     H_    0.734805 0.385014 0.265088 0.161001
H134  H     H_    0.647183 0.357702 0.252513 0.171363
C104  C     C_3   0.700616 0.273655 0.230360 -0.825596
H135  H     H_    0.675881 0.243050 0.245733 0.246202
H136  H     H_    0.664115 0.248416 0.161652 0.204542
H137  H     H_    0.757555 0.268858 0.248146 0.259558
O50   O     O_3   0.235888 0.633800 0.582124 -0.629416
C105  C     C_3   0.257448 0.693329 0.662511 0.102703
H138  H     H_    0.317413 0.725057 0.698841 0.121175
H139  H     H_    0.247868 0.675279 0.697492 0.119321
C106  C     C_3   0.210935 0.744667 0.653043 -0.791747
H140  H     H_    0.150490 0.714579 0.617732 0.267828
H141  H     H_    0.229182 0.793079 0.716122 0.194254
H142  H     H_    0.218254 0.764847 0.618623 0.246017
O51   O     O_3   0.742063 0.486465 0.621138 -0.541232
C107  C     C_3   0.813910 0.530607 0.696296 -0.281017
H143  H     H_    0.841429 0.575845 0.698910 0.144405
H144  H     H_    0.849879 0.495265 0.706245 0.148976
H145  H     H_    0.807318 0.557406 0.749430 0.173184
O52   O     O_3   0.238819 0.474983 0.349628 -0.572565
C108  C     C_3   0.205096 0.397010 0.297792 -0.271837
H146  H     H_    0.175199 0.373892 0.314704 0.133630
H147  H     H_    0.248372 0.369966 0.296526 0.183236
H148  H     H_    0.163357 0.380819 0.232661 0.159585
O53   O     O_3   0.783144 0.406662 0.085442 -0.586288
C109  C     C_3   0.755432 0.443694 0.043974 0.085556
H149  H     H_    0.762689 0.500918 0.091058 0.150105
H150  H     H_    0.694904 0.419293 0.992426 0.080149
C110  C     C_3   0.802391 0.450219 0.012190 -0.810736
H151  H     H_    0.798657 0.394545 0.965944 0.245601
H152  H     H_    0.781774 0.480751 0.981499 0.184223
H153  H     H_    0.862223 0.481012 0.065663 0.273259
O54   O     O_3   0.291092 0.619801 0.933945 -0.595928
C111  C     C_3   0.293114 0.571008 0.863792 0.164770
H154  H     H_    0.350542 0.585847 0.878702 0.160052
H155  H     H_    0.250893 0.570124 0.807625 0.128243
C112  C     C_3   0.273774 0.492730 0.842383 -0.828650
H156  H     H_    0.216510 0.475739 0.826889 0.275865
H157  H     H_    0.275254 0.453442 0.787303 0.196210
H158  H     H_    0.315049 0.490422 0.896678 0.250098
O55   O     O_3   0.890721 0.347575 0.082939 -0.544751
C113  C     C_3   0.959271 0.339150 0.092135 0.100936
H159  H     H_    0.949369 0.294020 0.031419 0.127359
H160  H     H_    0.990905 0.326813 0.140692 0.120491
C114  C     C_3   0.007148 0.411291 0.120717 -0.822607
H161  H     H_    0.019383 0.457061 0.182253 0.263322
H162  H     H_    0.061058 0.405292 0.127620 0.198467
H163  H     H_    0.976948 0.425278 0.073591 0.246723
O56   O     O_3   0.157332 0.608425 0.911681 -0.544409
C115  C     C_3   0.087647 0.580848 0.895292 0.104451
H164  H     H_    0.041190 0.585643 0.845654 0.120642
H165  H     H_    0.088052 0.611264 0.953370 0.123380
C116  C     C_3   0.072993 0.499233 0.863784 -0.829291
H166  H     H_    0.118203 0.492604 0.912248 0.254771
H167  H     H_    0.018124 0.476751 0.850272 0.194233
H168  H     H_    0.071487 0.467421 0.805245 0.256254

loop_
_geom_bond_atom_site_label_1
_geom_bond_atom_site_label_2
_ccdc_geom_bond_type
C63   C65   S    
O28   C73   S    
C37   H1    S    
C103  C104  S    
O37   C89   S    
C87   C88   S    
C19   O31   S    
C96   H113  S    
C70   H44   S    
C48   O48   S    
C39   C41   S    
C106  H140  S    
C84   H81   S    
C45   C57   S    
C6    O54   S    
C34   O36   S    
C57   C59   S    
C58   C60   S    
C5    O27   S    
C93   H105  S    
O46   C100  S    
C79   H67   S    
O40   C92   S    
C44   C53   S    
C66   H4    S    
C100  H124  S    
C111  H154  S    
C101  H129  S    
C4    C12   S    
C82   H77   S    
O34   C83   S    
C42   O52   S    
C41   C43   S    
C28   O38   S    
C91   H100  S    
C39   H23   S    
O38   C90   S    
C74   H55   S    
C47   O47   S    
C45   C47   S    
C25   C29   S    
C48   H32   S    
C46   C48   S    
C24   O12   A    
C40   C58   S    
O1    Zn1   S    
O33   C81   S    
C81   C82   S    
C22   O34   S    
C115  H164  S    
C114  H162  S    
C10   H12   S    
C27   C35   S    
C109  H149  S    
C91   H101  S    
C32   C34   S    
O36   C87   S    
C90   H96   S    
C43   C54   S    
C1    C29   S    
C107  H143  S    
C56   O8    A    
C54   O4    A    
C101  H127  S    
C72   H51   S    
C77   C78   S    
C73   H52   S    
C99   H122  S    
C105  H138  S    
C70   H46   S    
C106  H142  S    
O48   C102  S    
C66   O56   S    
C45   H13   S    
C69   H42   S    
O26   C70   S    
O25   C69   S    
C64   H38   S    
C54   O24   A    
C38   H22   S    
C27   O37   S    
C93   C94   S    
O20   Zn4   S    
C102  H131  S    
C111  C112  S    
C3    C11   S    
C20   O32   S    
C114  H161  S    
C7    C13   S    
C83   H79   S    
C45   O49   S    
C80   H70   S    
C19   O29   S    
O32   C80   S    
C43   C47   S    
C44   C48   S    
C95   H110  S    
C110  H152  S    
C35   O41   S    
C27   C29   S    
C69   H43   S    
C51   O21   A    
C20   C30   S    
C21   C31   S    
C17   C23   S    
C22   C32   S    
C109  C110  S    
C18   C24   S    
C32   C36   S    
C19   C21   S    
C87   H89   S    
C90   H98   S    
C23   O11   A    
C47   H31   S    
C9    H11   S    
C77   H62   S    
C46   H14   S    
C61   H9    S    
O44   C98   S    
C78   H65   S    
O39   C91   S    
C53   O3    A    
C40   C42   S    
C46   C58   S    
C75   H58   S    
C76   H60   S    
C60   H34   S    
C64   H40   S    
C62   H36   S    
C21   H15   S    
C100  H126  S    
C50   O16   A    
C113  H159  S    
C112  H157  S    
C1    O9    A    
C82   H75   S    
O15   Zn3   S    
C81   H74   S    
C4    C16   S    
C104  H135  S    
C25   H17   S    
O49   C103  S    
C5    C61   S    
C92   H103  S    
C51   C67   S    
C27   H19   S    
C98   H119  S    
C37   C59   S    
C95   C96   S    
C38   C60   S    
C8    C10   S    
C78   H64   S    
C108  H147  S    
C41   H29   S    
O2    Zn2   S    
C63   H37   S    
O8    Zn5   S    
C33   O35   S    
C62   H10   S    
C40   H26   S    
C97   H115  S    
C26   C30   S    
C2    C30   S    
C116  H167  S    
C88   H92   S    
C32   C56   S    
O12   Zn2   S    
O6    Zn6   S    
C79   H68   S    
C5    O53   S    
C25   O43   S    
C86   H87   S    
C111  H155  S    
C71   H47   S    
O43   C97   S    
C25   C33   S    
C82   H76   S    
C38   H2    S    
C12   H6    S    
C92   H102  S    
C113  C114  S    
C108  H146  S    
C89   H93   S    
C74   H54   S    
C2    O10   A    
O42   C95   S    
C23   O13   A    
O31   C79   S    
C42   C44   S    
C61   H35   S    
C115  H165  S    
C104  H137  S    
C42   H30   S    
C21   O33   S    
O24   Zn6   S    
O41   C93   S    
C49   O15   A    
C4    C62   S    
C109  H150  S    
C103  H133  S    
C76   H59   S    
C11   O25   S    
C39   H25   S    
C80   H72   S    
C73   C74   S    
C1    O1    A    
C85   H83   S    
C71   C72   S    
C107  H144  S    
O47   C101  S    
C115  C116  S    
C35   O39   S    
O13   Zn2   S    
C72   H50   S    
C65   O55   S    
C94   H108  S    
C96   H114  S    
O53   C109  S    
O45   C99   S    
C73   H53   S    
C99   H123  S    
C105  H139  S    
C97   H117  S    
O9    Zn2   S    
C70   H45   S    
C106  H141  S    
C36   O40   S    
C84   H82   S    
C107  H145  S    
O16   Zn4   S    
O35   C85   S    
C59   H33   S    
C11   H5    S    
C88   H90   S    
C5    C7    S    
C6    C8    S    
O54   C111  S    
C105  C106  S    
C50   C58   S    
C37   C43   S    
O55   C113  S    
C38   C44   S    
C102  H130  S    
O23   Zn5   S    
C7    C65   S    
C86   H85   S    
C24   O14   A    
C69   H41   S    
C60   H28   S    
O17   Zn4   S    
O22   Zn3   S    
C20   C22   S    
O18   Zn3   S    
C31   C35   S    
C91   H99   S    
C19   C29   S    
C89   H95   S    
C74   H56   S    
C95   H111  S    
C15   C17   T    
O52   C108  S    
C2    O2    A    
O4    Zn5   S    
C113  H160  S    
C114  H163  S    
C3    C63   S    
C49   O17   A    
C4    C64   S    
C37   H21   S    
O5    Zn5   S    
C51   O19   A    
C6    C62   S    
C112  H156  S    
C90   H97   S    
O27   C71   S    
C55   O7    A    
C85   C86   S    
C41   O51   S    
C77   H63   S    
C110  H151  S    
C28   C36   S    
O51   C107  S    
C14   C68   T    
C99   H121  S    
C31   C55   S    
C79   H69   S    
O3    Zn6   S    
C64   C66   S    
C116  H166  S    
C8    C66   S    
O29   C75   S    
O50   C105  S    
C46   O50   S    
C49   C57   S    
O30   C77   S    
C34   O46   S    
O11   Zn1   S    
C100  H125  S    
C101  H128  S    
C102  H132  S    
C26   O44   S    
C39   C57   S    
C36   O42   S    
C10   H8    S    
C26   C34   S    
O56   C115  S    
C93   H106  S    
C83   H78   S    
C28   H20   S    
C31   C33   S    
C50   O18   A    
C98   H118  S    
C52   C68   S    
C110  H153  S    
C59   H27   S    
C3    C61   S    
C87   H88   S    
C97   H116  S    
C55   O5    A    
C65   H3    S    
C12   O26   S    
C22   H16   S    
O14   Zn1   S    
C88   H91   S    
O21   Zn4   S    
C20   O30   S    
O7    Zn6   S    
C26   H18   S    
C78   H66   S    
C40   H24   S    
C9    C11   S    
O10   Zn1   S    
C10   C12   S    
C16   C18   T    
C86   H86   S    
C75   H57   S    
C76   H61   S    
C71   H48   S    
C116  H168  S    
C63   H39   S    
C96   H112  S    
C6    O28   S    
C3    C15   S    
C13   C67   T    
C7    C9    S    
C8    C14   S    
C33   O45   S    
C53   O23   A    
C89   H94   S    
C52   O20   A    
C112  H158  S    
C94   H107  S    
C52   O22   A    
C81   H73   S    
C28   C30   S    
C104  H136  S    
C83   C84   S    
C92   H104  S    
C103  H134  S    
O19   Zn3   S    
C98   H120  S    
C80   H71   S    
C75   C76   S    
C85   H84   S    
C108  H148  S    
C56   O6    A    
C9    H7    S    
C84   H80   S    
C72   H49   S    
C94   H109  S    
