data_mof_unit_pretest_376.cif
_audit_creation_date              2012-12-10T17:21:11-0500
_audit_creation_method            fapswitch 2.2
_symmetry_space_group_name_H-M    P1
_symmetry_Int_Tables_number       1
_space_group_crystal_system       triclinic
_cell_length_a                    10.211575
_cell_length_b                    10.800903
_cell_length_c                    10.693631
_cell_angle_alpha                 92.904103
_cell_angle_beta                  96.266676
_cell_angle_gamma                 81.903354
_cell_volume                      1159.96503419

loop_
_atom_site_label
_atom_site_type_symbol
_atom_type_description
_atom_site_fract_x
_atom_site_fract_y
_atom_site_fract_z
_atom_type_partial_charge
C1    C     C_R   0.443732 0.502914 0.266818 0.854029
C2    C     C_3   0.495467 0.879061 0.498819 -0.466465
C3    C     C_3   0.516521 0.932776 0.638246 0.403825
C4    C     C_3   0.351845 0.941927 0.434782 0.584311
C5    C     C_2   0.411566 0.490564 0.132374 0.365308
C6    C     C_2   0.499339 0.420674 0.064615 0.321260
C7    C     C_2   0.586521 0.465145 0.869868 -0.148046
C8    C     C_2   0.487064 0.431324 0.930032 0.539287
C9    C     C_2   0.076421 0.485172 0.480074 0.269255
C10   C     C_2   0.949940 0.450318 0.524514 0.075172
C11   C     C_R   0.497557 0.257990 0.492644 0.950681
C12   C     C_R   0.556314 0.488179 0.734272 0.925864
C13   C     C_R   0.499504 0.741962 0.499544 1.076675
C14   C     C_3   0.619620 0.050215 0.422516 0.482462
C15   C     C_3   0.605215 0.908928 0.413752 0.981467
C16   C     C_3   0.514611 0.078692 0.634737 0.594926
C17   C     C_3   0.360137 0.084282 0.414445 0.417170
C18   C     C_3   0.495912 0.120593 0.489395 -0.477915
H1    H     H_    0.949416 0.427678 0.621658 0.052102
N1    N     N_2   0.157300 0.551950 0.551120 -0.094318
N2    N     N_2   0.842730 0.448000 0.448950 0.132196
O1    O     O_R   0.568940 0.489540 0.307530 -0.516633
O2    O     O_R   0.348880 0.522880 0.340350 -0.649603
O3    O     O_R   0.610030 0.298130 0.483570 -0.550144
O4    O     O_R   0.389960 0.331470 0.516390 -0.612236
O5    O     O_R   0.651120 0.477120 0.659650 -0.626292
O6    O     O_R   0.431060 0.510460 0.692470 -0.576455
O7    O     O_R   0.610040 0.668530 0.483610 -0.529126
O8    O     O_R   0.389970 0.701870 0.516430 -0.624267
Zn1   Zn    Zn3+2 0.646940 0.477740 0.478080 1.100915
Zn2   Zn    Zn3+2 0.353060 0.522260 0.521920 0.980492
F1    F     F_    0.734085 0.063781 0.501677 -0.591659
C19   C     C_3   0.223101 0.931779 0.504303 -0.167746
C20   C     C_3   0.090354 0.952548 0.421852 -0.769482
H2    H     H_    0.057733 0.053617 0.410277 0.274054
H3    H     H_    0.094818 0.901780 0.329335 0.293014
H4    H     H_    0.012069 0.917914 0.469733 0.262922
H5    H     H_    0.222507 0.842399 0.546527 0.230132
H6    H     H_    0.213015 0.998811 0.584859 0.227017
C21   C     C_3   0.412228 0.152416 0.720407 -0.217529
C22   C     C_3   0.439898 0.124204 0.861331 -0.751789
H7    H     H_    0.426740 0.027468 0.881188 0.285640
H8    H     H_    0.541845 0.141381 0.898601 0.279985
H9    H     H_    0.368168 0.186625 0.914827 0.260391
H10   H     H_    0.418432 0.252937 0.717088 0.253951
H11   H     H_    0.308578 0.140211 0.688403 0.227019
F2    F     F_    0.407400 0.909501 0.694944 -0.764713
F3    F     F_    0.365890 0.414956 0.870080 -0.680300
F4    F     F_    0.606703 0.346552 0.119854 -0.734081
C23   C     C_3   0.720254 0.482650 0.944308 -0.403240
C24   C     C_3   0.823972 0.528341 0.872319 -0.834387
H12   H     H_    0.862689 0.453144 0.806516 0.276182
H13   H     H_    0.781798 0.613827 0.821350 0.252461
H14   H     H_    0.908926 0.550878 0.939520 0.272369
H15   H     H_    0.701391 0.551214 0.023642 0.255441
H16   H     H_    0.766289 0.391968 0.984473 0.275723
F5    F     F_    0.299459 0.557970 0.076821 -0.646176
C25   C     C_3   0.114389 0.440287 0.349135 -0.254557
C26   C     C_3   0.023988 0.368747 0.257165 -0.770540
H17   H     H_    0.984904 0.295410 0.304726 0.248303
H18   H     H_    0.943646 0.430642 0.204179 0.312551
H19   H     H_    0.082595 0.326126 0.181199 0.226233
H20   H     H_    0.124279 0.525125 0.298603 0.249644
H21   H     H_    0.208576 0.376879 0.361543 0.256343
F6    F     F_    0.836508 0.528102 0.356548 -0.534431
C27   C     C_3   0.645220 0.101765 0.292115 -0.356314
C28   C     C_3   0.790246 0.115246 0.280475 -0.618690
H22   H     H_    0.827842 0.179393 0.355937 0.275853
H23   H     H_    0.850961 0.021815 0.285414 0.259321
H24   H     H_    0.799115 0.154393 0.188175 0.243330
H25   H     H_    0.618433 0.041434 0.209401 0.220027
H26   H     H_    0.586609 0.194372 0.275277 0.208075
C29   C     C_3   0.097074 0.645202 0.639902 -0.320642
C30   C     C_3   0.195350 0.682694 0.747687 -0.640825
H27   H     H_    0.225463 0.604223 0.811650 0.327123
H28   H     H_    0.283718 0.712790 0.713927 0.291836
H29   H     H_    0.146078 0.762382 0.802876 0.220255
H30   H     H_    0.052154 0.729622 0.587888 0.198910
H31   H     H_    0.016375 0.611878 0.684934 0.170634
F7    F     F_    0.569970 0.868324 0.291196 -0.647524
F8    F     F_    0.729717 0.843386 0.445178 -0.612133
F9    F     F_    0.635504 0.109839 0.690542 -0.628131
C31   C     C_3   0.631555 0.864016 0.730477 -0.224383
C32   C     C_3   0.776780 0.847809 0.702533 -0.760984
H32   H     H_    0.798978 0.764525 0.639794 0.278776
H33   H     H_    0.805974 0.932148 0.665964 0.362589
H34   H     H_    0.841547 0.828247 0.791676 0.209960
H35   H     H_    0.628244 0.913118 0.824077 0.231628
H36   H     H_    0.607329 0.769043 0.745528 0.169079
F10   F     F_    0.254719 0.159357 0.463525 -0.697413
C33   C     C_3   0.343684 0.113806 0.270639 -0.294823
C34   C     C_3   0.210897 0.094442 0.195739 -0.707961
H37   H     H_    0.205783 0.995177 0.167006 0.300343
H38   H     H_    0.126410 0.128359 0.248901 0.263609
H39   H     H_    0.200165 0.145379 0.106765 0.210799
H40   H     H_    0.358792 0.212431 0.260270 0.146775
H41   H     H_    0.415613 0.051911 0.219805 0.220144
F11   F     F_    0.332172 0.876616 0.320635 -0.633887

loop_
_geom_bond_atom_site_label_1
_geom_bond_atom_site_label_2
_ccdc_geom_bond_type
O4    Zn2   S    
C11   C18   S    
C4    F11   S    
C20   H4    S    
C29   C30   S    
C14   C18   S    
C17   C33   S    
C32   H34   S    
C7    C8    D    
C15   F8    S    
C21   H11   S    
C19   H6    S    
C30   H28   S    
C1    C5    S    
C13   O8    A    
C32   H33   S    
C9    C25   S    
C5    C6    D    
C11   O4    A    
C11   O3    A    
C20   H2    S    
C22   H7    S    
C2    C13   S    
C33   H40   S    
C27   H26   S    
C31   C32   S    
C30   H29   S    
C29   H30   S    
C13   O7    A    
C9    C10   S    
C31   H35   S    
C26   H17   S    
C25   H21   S    
C22   H8    S    
C21   H10   S    
C16   F9    S    
C17   C18   S    
C10   N2    D    
C29   H31   S    
C7    C12   S    
C31   H36   S    
C26   H18   S    
C30   H27   S    
C12   O6    A    
O6    Zn2   S    
C28   H22   S    
C32   H32   S    
C33   C34   S    
C6    C8    S    
C23   C24   S    
C25   C26   S    
C34   H39   S    
C23   H16   S    
C24   H12   S    
C12   O5    A    
C24   H13   S    
O2    Zn2   S    
C2    C4    S    
C8    F3    S    
C9    N1    D    
C27   H25   S    
C10   H1    S    
C34   H38   S    
C19   C20   S    
C14   C27   S    
C33   H41   S    
C2    C15   S    
C16   C21   S    
C4    C17   S    
C21   C22   S    
C1    O2    A    
C3    C31   S    
C22   H9    S    
C25   H20   S    
C4    C19   S    
C26   H19   S    
O1    Zn1   S    
N2    F6    S    
C17   F10   S    
C23   H15   S    
C7    C23   S    
C14   F1    S    
O5    Zn1   S    
N2    Zn1   S    
C19   H5    S    
C5    F5    S    
C24   H14   S    
C28   H24   S    
O7    Zn1   S    
C2    C3    S    
O8    Zn2   S    
C3    F2    S    
C34   H37   S    
N1    C29   S    
C27   C28   S    
C20   H3    S    
C6    F4    S    
O3    Zn1   S    
C15   F7    S    
C1    O1    A    
C16   C18   S    
C14   C15   S    
C28   H23   S    
C3    C16   S    
N1    Zn2   S    
