data_mof_unit_pretest_586.cif
_audit_creation_date              2012-12-11T14:04:13-0500
_audit_creation_method            fapswitch 2.2
_symmetry_space_group_name_H-M    P1
_symmetry_Int_Tables_number       1
_space_group_crystal_system       triclinic
_cell_length_a                    19.308242
_cell_length_b                    10.963287
_cell_length_c                    18.951133
_cell_angle_alpha                 89.865479
_cell_angle_beta                  90.855776
_cell_angle_gamma                 90.136992
_cell_volume                      4011.1402665

loop_
_atom_site_label
_atom_site_type_symbol
_atom_type_description
_atom_site_fract_x
_atom_site_fract_y
_atom_site_fract_z
_atom_type_partial_charge
C1    C     C_R   0.239696 0.466870 0.647608 0.550900
C2    C     C_R   0.000726 0.656056 0.574591 -0.030740
C3    C     C_3   0.884010 0.272567 0.604161 -0.275657
C4    C     C_3   0.928517 0.298246 0.669599 -0.411377
C5    C     C_3   0.161901 0.226958 0.442025 -0.230099
C6    C     C_3   0.156936 0.109816 0.486831 -0.301090
C7    C     C_3   0.098442 0.027082 0.459838 -0.442864
C8    C     C_R   0.448762 0.155223 0.437026 -0.027195
C9    C     C_R   0.499320 0.152735 0.575285 -0.024275
C10   C     C_R   0.934425 0.885165 0.450508 -0.106320
C11   C     C_R   0.949169 0.856607 0.595155 -0.081851
C12   C     C_R   0.436676 0.384103 0.449964 -0.102500
C13   C     C_R   0.451884 0.357384 0.594416 -0.082833
C14   C     C_R   0.924909 0.983972 0.495405 -0.167641
C15   C     C_R   0.931006 0.968529 0.567746 -0.132913
C16   C     C_R   0.427589 0.483368 0.494348 -0.158787
C17   C     C_R   0.760181 0.466614 0.352648 0.543820
C18   C     C_R   0.434841 0.469661 0.566600 -0.138104
C19   C     C_R   0.965126 0.759037 0.550040 -0.003931
C20   C     C_R   0.949086 0.767174 0.477400 -0.003003
C21   C     C_R   0.466413 0.257975 0.549797 -0.001532
C22   C     C_R   0.450738 0.266000 0.477193 -0.001415
C23   C     C_R   0.006363 0.551492 0.531142 0.002159
C24   C     C_R   0.966331 0.545145 0.470539 0.004660
C25   C     C_R   0.501220 0.044535 0.533446 0.002583
C26   C     C_R   0.463534 0.042423 0.470851 -0.007518
C27   C     C_R   0.047647 0.449158 0.547700 -0.086546
C28   C     C_R   0.738396 0.969702 0.645346 0.552337
C29   C     C_R   0.951031 0.427296 0.442941 -0.085379
C30   C     C_R   0.535546 0.934563 0.553294 -0.102321
C31   C     C_R   0.445098 0.926162 0.442554 -0.091800
C32   C     C_R   0.030183 0.334615 0.523108 -0.149497
C33   C     C_R   0.983542 0.324170 0.467866 -0.152706
C34   C     C_R   0.517360 0.823211 0.525251 -0.160099
C35   C     C_R   0.473459 0.819541 0.467515 -0.150756
C36   C     C_2   0.253192 0.923434 0.918538 -0.104450
C37   C     C_2   0.743775 0.934500 0.084846 -0.108064
C38   C     C_2   0.753185 0.423431 0.918543 -0.104261
C39   C     C_R   0.261554 0.967973 0.354688 0.541729
C40   C     C_2   0.243789 0.434487 0.084834 -0.107889
C41   C     C_2   0.253827 0.935583 0.074387 -0.094593
C42   C     C_2   0.731189 0.982201 0.932220 -0.106857
C43   C     C_2   0.753822 0.435582 0.074389 -0.094190
C44   C     C_2   0.231192 0.482199 0.932215 -0.106679
C45   C     C_R   0.207839 0.827352 0.641053 0.567017
C46   C     C_R   0.772777 0.878307 0.350217 0.541332
C47   C     C_R   0.707597 0.325837 0.641912 0.571220
C48   C     C_R   0.275357 0.366505 0.355005 0.542938
C49   C     C_2   0.224196 0.017650 0.030433 -0.149863
C50   C     C_2   0.276668 0.860577 0.532141 -0.042283
C51   C     C_2   0.765082 0.055642 0.977475 -0.162221
C52   C     C_2   0.724174 0.517633 0.030439 -0.149966
C53   C     C_2   0.265099 0.555627 0.977466 -0.162137
C54   C     C_2   0.212519 0.996225 0.955783 -0.160036
C55   C     C_2   0.780223 0.019994 0.050740 -0.150219
C56   C     C_2   0.712502 0.496206 0.955789 -0.160089
C57   C     C_2   0.280244 0.519972 0.050727 -0.150688
C58   C     C_2   0.041603 0.656790 0.932572 -0.098320
C59   C     C_2   0.012549 0.663676 0.085956 -0.105330
C60   C     C_2   0.541608 0.156787 0.932577 -0.098217
C61   C     C_2   0.699015 0.885257 0.453364 -0.031063
C62   C     C_2   0.512562 0.163677 0.085965 -0.105750
C63   C     C_2   0.032527 0.563571 0.050888 -0.151636
C64   C     C_2   0.056023 0.565334 0.977421 -0.166039
C65   C     C_2   0.532550 0.063574 0.050902 -0.152328
C66   C     C_2   0.556037 0.065337 0.977429 -0.165910
C67   C     C_R   0.032133 0.653427 0.644375 0.534116
C68   C     C_R   0.935921 0.650613 0.360729 0.562769
C69   C     C_R   0.532170 0.152712 0.644359 0.537861
C70   C     C_R   0.436129 0.150443 0.360770 0.558858
C71   C     C_R   0.225778 0.515486 0.858242 0.554840
C72   C     C_2   0.779422 0.347727 0.536196 -0.030894
C73   C     C_R   0.762051 0.470711 0.147699 0.558946
C74   C     C_R   0.725778 0.015486 0.858244 0.554830
C75   C     C_R   0.262051 0.970704 0.147700 0.557738
C76   C     C_R   0.227819 0.874025 0.852212 0.549273
C77   C     C_R   0.771872 0.875655 0.148124 0.555298
C78   C     C_R   0.727817 0.374021 0.852215 0.548659
C79   C     C_R   0.271878 0.375646 0.148117 0.559313
C80   C     C_R   0.060715 0.648058 0.858698 0.554480
C81   C     C_R   0.971707 0.652709 0.150093 0.569330
C82   C     C_R   0.560716 0.148057 0.858699 0.554092
C83   C     C_2   0.214927 0.320619 0.469222 -0.011047
C84   C     C_R   0.471714 0.152709 0.150099 0.568833
C85   C     C_2   0.215519 0.838802 0.563757 -0.106813
C86   C     C_2   0.752727 0.930399 0.417514 -0.098064
C87   C     C_2   0.716580 0.335597 0.565973 -0.091990
C88   C     C_2   0.255953 0.394157 0.427820 -0.095004
C89   C     C_2   0.240338 0.874473 0.406770 -0.133331
C90   C     C_2   0.749895 0.927329 0.573124 -0.126798
C91   C     C_2   0.742427 0.411804 0.420080 -0.123006
C92   C     C_2   0.256627 0.407442 0.581898 -0.135872
C93   C     C_2   0.284874 0.830734 0.455863 -0.169737
C94   C     C_R   0.948511 0.656417 0.436960 -0.027036
C95   C     C_2   0.700435 0.876821 0.532111 -0.155322
C96   C     C_2   0.785370 0.344067 0.458970 -0.169377
C97   C     C_2   0.209660 0.345495 0.545498 -0.158000
C98   C     C_3   0.340002 0.890841 0.576544 -0.201742
C99   C     C_3   0.377601 0.773885 0.601095 -0.256128
C100  C     C_3   0.422617 0.793983 0.667180 -0.404310
C101  C     C_3   0.634367 0.847914 0.412513 -0.213816
C102  C     C_3   0.622934 0.709185 0.414469 -0.255643
C103  C     C_3   0.580319 0.664595 0.350807 -0.399003
C104  C     C_3   0.843171 0.384714 0.578963 -0.205970
Cr1   Cr    Cr6+3 0.113970 0.508630 0.747920 0.990196
Cr2   Cr    Cr6+3 0.887700 0.820070 0.250200 1.004712
Cr3   Cr    Cr6+3 0.612300 0.320070 0.749800 1.007263
Cr4   Cr    Cr6+3 0.387700 0.320070 0.250200 1.002711
Cr5   Cr    Cr6+3 0.886030 0.508630 0.252080 1.006840
Cr6   Cr    Cr6+3 0.613970 0.008630 0.747920 0.991640
Cr7   Cr    Cr6+3 0.386030 0.008630 0.252080 0.999489
Cr8   Cr    Cr6+3 0.269200 0.666740 0.749850 0.978255
Cr9   Cr    Cr6+3 0.730800 0.666740 0.250150 0.980894
Cr10  Cr    Cr6+3 0.769200 0.166740 0.749850 0.981844
Cr11  Cr    Cr6+3 0.230800 0.166740 0.250150 0.998631
Cr12  Cr    Cr6+3 0.112300 0.820070 0.749800 1.005625
H1    H     H_    0.296044 0.733967 0.451146 0.116813
H2    H     H_    0.707981 0.896810 0.948776 0.101498
H3    H     H_    0.775731 0.350499 0.056004 0.087894
H4    H     H_    0.207978 0.396813 0.948771 0.101364
H5    H     H_    0.301200 0.887668 0.940810 0.103769
H6    H     H_    0.695282 0.899603 0.063286 0.092929
H7    H     H_    0.801196 0.387678 0.940814 0.103850
H8    H     H_    0.195295 0.399600 0.063274 0.093342
H9    H     H_    0.027308 0.473998 0.074881 0.153779
H10   H     H_    0.080604 0.483192 0.957997 0.133845
H11   H     H_    0.527343 0.974003 0.074901 0.152316
H12   H     H_    0.660012 0.825629 0.557147 0.128359
H13   H     H_    0.580620 0.983197 0.958005 0.133627
H14   H     H_    0.020502 0.754371 0.064559 0.103701
H15   H     H_    0.016018 0.739297 0.949691 0.114891
H16   H     H_    0.520506 0.254371 0.064564 0.103476
H17   H     H_    0.516022 0.239293 0.949697 0.114774
H18   H     H_    0.205247 0.808267 0.382874 0.101678
H19   H     H_    0.795872 0.964169 0.550193 0.121150
H20   H     H_    0.696651 0.449707 0.444489 0.108412
H21   H     H_    0.305405 0.430112 0.558791 0.127404
H22   H     H_    0.170727 0.813802 0.531746 0.078449
H23   H     H_    0.830229 0.302035 0.436239 0.122760
H24   H     H_    0.791931 0.986160 0.442543 0.096334
H25   H     H_    0.670460 0.320950 0.533535 0.077914
H26   H     H_    0.283294 0.471252 0.450575 0.078690
H27   H     H_    0.910692 0.071693 0.473859 0.094158
H28   H     H_    0.922245 0.042029 0.603620 0.116745
H29   H     H_    0.410728 0.568985 0.472547 0.093779
H30   H     H_    0.425260 0.543848 0.601980 0.115715
H31   H     H_    0.932748 0.907388 0.395905 0.185889
H32   H     H_    0.950520 0.848233 0.651945 0.144797
H33   H     H_    0.433417 0.406167 0.395448 0.183871
H34   H     H_    0.165181 0.313134 0.573505 0.130874
H35   H     H_    0.452037 0.349559 0.651222 0.144638
H36   H     H_    0.913218 0.412082 0.402539 0.166183
H37   H     H_    0.092213 0.456397 0.581033 0.169820
H38   H     H_    0.406935 0.913881 0.402492 0.183401
H39   H     H_    0.577312 0.929025 0.590098 0.176616
H40   H     H_    0.054162 0.254327 0.545217 0.116175
H41   H     H_    0.971517 0.236771 0.444866 0.091561
H42   H     H_    0.537664 0.740333 0.548600 0.111175
H43   H     H_    0.459819 0.734474 0.443017 0.105434
H44   H     H_    0.203259 0.102646 0.050372 0.155467
H45   H     H_    0.166429 0.037238 0.932324 0.157525
H46   H     H_    0.788801 0.139232 0.958382 0.135997
H47   H     H_    0.703221 0.602617 0.050379 0.155547
H48   H     H_    0.288825 0.639210 0.958371 0.136035
H49   H     H_    0.453851 0.878000 0.662180 0.185028
H50   H     H_    0.389871 0.803241 0.714453 0.180524
H51   H     H_    0.457977 0.715432 0.675458 0.113939
H52   H     H_    0.341614 0.698382 0.610079 0.210471
H53   H     H_    0.406388 0.733034 0.558857 0.138359
H54   H     H_    0.373651 0.951735 0.547796 0.150950
H55   H     H_    0.325771 0.948809 0.622116 0.168681
H56   H     H_    0.826351 0.059640 0.074982 0.153846
H57   H     H_    0.530278 0.713514 0.346684 0.126867
H58   H     H_    0.608782 0.680767 0.301203 0.186053
H59   H     H_    0.569897 0.565358 0.356155 0.143315
H60   H     H_    0.673701 0.664088 0.417017 0.208599
H61   H     H_    0.598191 0.678174 0.463030 0.133245
H62   H     H_    0.591043 0.901257 0.431520 0.168601
H63   H     H_    0.635259 0.881015 0.357089 0.161227
H64   H     H_    0.963654 0.375573 0.659605 0.193090
H65   H     H_    0.895458 0.320649 0.715188 0.177853
H66   H     H_    0.960040 0.216704 0.683145 0.117727
H67   H     H_    0.666408 0.537204 0.932330 0.157450
H68   H     H_    0.849087 0.196320 0.615323 0.215739
H69   H     H_    0.915546 0.236524 0.561855 0.142499
H70   H     H_    0.875775 0.445207 0.547967 0.145873
H71   H     H_    0.828858 0.444700 0.623626 0.173014
H72   H     H_    0.049802 0.079373 0.454720 0.148034
H73   H     H_    0.110467 0.988319 0.407541 0.177284
H74   H     H_    0.089410 0.951590 0.497561 0.162354
H75   H     H_    0.207148 0.062229 0.485032 0.189563
H76   H     H_    0.147029 0.127938 0.543119 0.161151
H77   H     H_    0.112381 0.273660 0.437609 0.143766
H78   H     H_    0.326376 0.559609 0.074968 0.153392
H79   H     H_    0.165314 0.197395 0.388268 0.221994
H80   H     H_    0.275723 0.850488 0.056004 0.088086
O1    O     O_R   0.043230 0.549300 0.667990 -0.546856
O2    O     O_R   0.832470 0.905110 0.169660 -0.510675
O3    O     O_R   0.667530 0.405110 0.830340 -0.514785
O4    O     O_R   0.332470 0.405110 0.169660 -0.510374
O5    O     O_R   0.054010 0.748440 0.822860 -0.493264
O6    O     O_R   0.945990 0.748440 0.177140 -0.490742
O7    O     O_R   0.554010 0.248440 0.822860 -0.493682
O8    O     O_R   0.445990 0.248440 0.177140 -0.490941
O9    O     O_3   0.165160 0.665150 0.749190 -0.304326
O10   O     O_3   0.834840 0.665150 0.250810 -0.267182
O11   O     O_3   0.665160 0.165150 0.749190 -0.306893
O12   O     O_R   0.956770 0.549300 0.332010 -0.521945
O13   O     O_3   0.334840 0.165150 0.250810 -0.269978
O14   O     O_R   0.178620 0.457600 0.674100 -0.511237
O15   O     O_R   0.821380 0.457600 0.325900 -0.533302
O16   O     O_R   0.678620 0.957600 0.674100 -0.505483
O17   O     O_R   0.321380 0.957600 0.325900 -0.531460
O18   O     O_R   0.284680 0.542100 0.669460 -0.544317
O19   O     O_R   0.715320 0.542100 0.330540 -0.537889
O20   O     O_R   0.784680 0.042100 0.669460 -0.542561
O21   O     O_R   0.215320 0.042100 0.330540 -0.536245
O22   O     O_R   0.262860 0.790390 0.676650 -0.513025
O23   O     O_R   0.543230 0.049300 0.667990 -0.549972
O24   O     O_R   0.737140 0.790390 0.323350 -0.505043
O25   O     O_R   0.762860 0.290390 0.676650 -0.512652
O26   O     O_R   0.237140 0.290390 0.323350 -0.516240
O27   O     O_R   0.167460 0.907030 0.670940 -0.509505
O28   O     O_R   0.832540 0.907030 0.329060 -0.553000
O29   O     O_R   0.667460 0.407030 0.670940 -0.508495
O30   O     O_R   0.332540 0.407030 0.329060 -0.549050
O31   O     O_R   0.053950 0.750220 0.675100 -0.516470
O32   O     O_R   0.946050 0.750220 0.324900 -0.520203
O33   O     O_R   0.553950 0.250220 0.675100 -0.516066
O34   O     O_R   0.456770 0.049300 0.332010 -0.529648
O35   O     O_R   0.446050 0.250220 0.324900 -0.521237
O36   O     O_R   0.043300 0.547370 0.827390 -0.505159
O37   O     O_R   0.956700 0.547370 0.172610 -0.510495
O38   O     O_R   0.543300 0.047370 0.827390 -0.505577
O39   O     O_R   0.456700 0.047370 0.172610 -0.512562
O40   O     O_R   0.178690 0.455820 0.821860 -0.508578
O41   O     O_R   0.821310 0.455820 0.178140 -0.494880
O42   O     O_R   0.678690 0.955820 0.821860 -0.508268
O43   O     O_R   0.321310 0.955820 0.178140 -0.495107
O44   O     O_R   0.284750 0.540170 0.828860 -0.491976
O45   O     O_R   0.262920 0.788600 0.824420 -0.520851
O46   O     O_R   0.715250 0.540170 0.171140 -0.517086
O47   O     O_R   0.784750 0.040170 0.828860 -0.490794
O48   O     O_R   0.215250 0.040170 0.171140 -0.513114
O49   O     O_R   0.737080 0.788600 0.175580 -0.507893
O50   O     O_R   0.762920 0.288600 0.824420 -0.520318
O51   O     O_R   0.237080 0.288600 0.175580 -0.500431
O52   O     O_R   0.167530 0.905110 0.830340 -0.514471

loop_
_geom_bond_atom_site_label_1
_geom_bond_atom_site_label_2
_ccdc_geom_bond_type
C3    C104  S    
C27   H37   S    
C59   H14   S    
C43   C73   S    
C101  C102  S    
C29   C33   A    
C8    C26   A    
Cr11  O26   S    
C75   O43   A    
C19   C20   A    
C17   C91   S    
C37   C55   D    
C72   C87   D    
C96   H23   S    
C70   O34   A    
Cr4   O13   S    
C9    C25   A    
C90   C95   D    
Cr10  O50   S    
C73   O41   A    
C11   C19   A    
C57   H78   S    
Cr4   O30   S    
C13   C18   A    
C51   H46   S    
C100  H51   S    
C101  H63   S    
C65   H11   S    
Cr11  O48   S    
C9    C69   S    
Cr8   O9    S    
C41   H80   S    
C69   O33   A    
C5    C6    S    
C5    C83   S    
C43   C52   D    
Cr2   O6    S    
C44   H4    S    
C102  H60   S    
C49   C54   S    
C12   C22   A    
C103  H57   S    
C98   H54   S    
C46   O28   A    
Cr10  O11   S    
C44   C71   S    
C100  H50   S    
C34   C35   A    
C41   C49   D    
C70   O35   A    
C20   C94   A    
C75   O48   A    
C36   C76   S    
C50   C85   D    
C78   O50   A    
C91   C96   D    
C24   C29   A    
C60   C82   S    
C95   H12   S    
Cr2   O28   S    
C91   H20   S    
C12   C16   A    
Cr2   O32   S    
C10   C20   A    
Cr8   O44   S    
C36   H5    S    
C6    H75   S    
C68   O12   A    
Cr7   O39   S    
C97   H34   S    
C48   C88   S    
C7    H74   S    
Cr6   O11   S    
C101  H62   S    
C23   C27   A    
C4    H65   S    
C3    H68   S    
Cr9   O24   S    
Cr3   O11   S    
Cr12  O9    S    
C58   C80   S    
C42   C51   D    
Cr2   O2    S    
C66   H13   S    
C84   O8    A    
C11   C15   A    
Cr1   O1    S    
C83   C88   D    
C47   O25   A    
C60   C66   D    
C26   C31   A    
C54   H45   S    
C32   H40   S    
C21   C22   A    
C45   O22   A    
C76   O52   A    
C93   H1    S    
Cr5   O10   S    
C80   O36   A    
C92   H21   S    
Cr12  O52   S    
C88   H26   S    
C33   H41   S    
C92   C97   D    
Cr12  O5    S    
C6    C7    S    
Cr11  O51   S    
C58   C64   D    
C40   H8    S    
C42   C74   S    
C46   O24   A    
C30   C34   A    
Cr12  O31   S    
C45   O27   A    
Cr1   O36   S    
C62   H16   S    
C7    H72   S    
C84   O39   A    
Cr4   O4    S    
C13   H35   S    
C2    C67   S    
C10   C14   A    
C50   C98   S    
C28   O20   A    
Cr11  O13   S    
C68   O32   A    
C42   H2    S    
C72   C104  S    
C67   O1    A    
C25   C26   A    
C37   C77   S    
C103  H58   S    
C68   C94   S    
Cr1   O14   S    
C63   C64   S    
C32   C33   A    
C100  H49   S    
C47   C87   S    
C74   O42   A    
Cr5   O12   S    
C61   C101  S    
Cr7   O13   S    
Cr3   O7    S    
C3    H69   S    
C24   C94   A    
C41   C75   S    
C48   O30   A    
C8    C22   A    
C99   C100  S    
C47   O29   A    
C67   O31   A    
C58   H15   S    
C23   C24   A    
C2    C23   A    
C103  H59   S    
C44   C53   D    
C40   C79   S    
C13   C21   A    
Cr8   O18   S    
C49   H44   S    
C80   O5    A    
C71   O40   A    
C87   H25   S    
Cr6   O23   S    
C79   O51   A    
C63   H9    S    
C50   C93   S    
C98   H55   S    
C34   H42   S    
C30   H39   S    
Cr11  O21   S    
Cr10  O20   S    
C65   C66   S    
C1    C92   S    
C64   H10   S    
Cr3   O33   S    
Cr1   O40   S    
C81   O37   A    
C78   O3    A    
C74   O47   A    
C3    C4    S    
C55   H56   S    
C40   C57   D    
C31   H38   S    
C15   H28   S    
C5    H77   S    
C99   H52   S    
C77   O2    A    
C25   C30   A    
C102  H61   S    
C104  H71   S    
C62   C84   S    
C14   H27   S    
Cr8   O45   S    
C53   C57   S    
C89   H18   S    
C62   C65   D    
Cr7   O43   S    
C2    C19   A    
C69   O23   A    
C59   C63   D    
C12   H33   S    
C39   O21   A    
Cr6   O16   S    
C59   C81   S    
C17   O15   A    
Cr7   O17   S    
Cr2   O10   S    
C61   C95   S    
C53   H48   S    
Cr1   O9    S    
C81   O6    A    
C99   H53   S    
C56   H67   S    
Cr5   O41   S    
C77   O49   A    
C28   O16   A    
C38   C78   S    
C104  H70   S    
C10   H31   S    
Cr6   O42   S    
C8    C70   S    
C5    H79   S    
C45   C85   S    
C39   O17   A    
Cr9   O10   S    
Cr12  O27   S    
C82   O38   A    
C76   O45   A    
C4    H64   S    
Cr9   O19   S    
Cr4   O8    S    
C1    O14   A    
Cr5   O15   S    
C73   O46   A    
C29   H36   S    
Cr3   O3    S    
C90   H19   S    
C9    C21   A    
C82   O7    A    
C48   O26   A    
Cr9   O49   S    
Cr3   O29   S    
C31   C35   A    
C71   O44   A    
Cr10  O47   S    
C51   C55   S    
Cr10  O25   S    
C89   C93   D    
C102  C103  S    
C11   H32   S    
C35   H43   S    
C36   C54   D    
C61   C86   D    
C27   C32   A    
C52   H47   S    
C37   H6    S    
C72   C96   S    
Cr6   O38   S    
C7    H73   S    
C79   O4    A    
C38   C56   D    
C18   H30   S    
C16   C18   A    
C98   C99   S    
C83   C97   S    
C38   H7    S    
C6    H76   S    
C1    O18   A    
Cr9   O46   S    
Cr7   O34   S    
Cr8   O22   S    
C14   C15   A    
C16   H29   S    
C28   C90   S    
C86   H24   S    
C85   H22   S    
C4    H66   S    
C17   O19   A    
C60   H17   S    
C39   C89   S    
C52   C56   S    
C43   H3    S    
C46   C86   S    
Cr4   O35   S    
Cr5   O37   S    
