data_mof_unit_pretest_219.cif
_audit_creation_date              2013-03-05T16:03:51-0500
_audit_creation_method            fapswitch 2.2
_symmetry_space_group_name_H-M    P1
_symmetry_Int_Tables_number       1
_space_group_crystal_system       triclinic
_cell_length_a                    6.936728
_cell_length_b                    17.824439
_cell_length_c                    19.461339
_cell_angle_alpha                 109.147441
_cell_angle_beta                  89.699073
_cell_angle_gamma                 90.221792
_cell_volume                      2273.10648611

loop_
_atom_site_label
_atom_site_type_symbol
_atom_site_description
_atom_site_fract_x
_atom_site_fract_y
_atom_site_fract_z
_atom_type_partial_charge
O1    O     O_R   0.505700 0.440210 0.561730 -0.614704
O2    O     O_R   0.169350 0.406300 0.412660 -0.592380
O3    O     O_R   0.005650 0.559790 0.438270 -0.608670
C1    C     C_R   0.339104 0.383110 0.384967 0.924713
O4    O     O_R   0.175560 0.430650 0.559600 -0.540140
O5    O     O_R   0.011900 0.584320 0.586250 -0.584998
C2    C     C_R   0.344301 0.414635 0.580385 1.017869
O6    O     O_R   0.499450 0.415680 0.413750 -0.599899
O7    O     O_3   0.341370 0.550390 0.508570 -0.256663
V1    V     V_3+5 0.063940 0.490650 0.498410 1.231590
O8    O     O_R   0.682570 0.593700 0.587340 -0.588623
C3    C     C_R   0.849755 0.615326 0.616107 0.949918
O9    O     O_R   0.676370 0.569350 0.440400 -0.558121
C4    C     C_R   0.845752 0.585783 0.420410 0.979730
V2    V     V_3+5 0.564750 0.509350 0.501590 1.228095
O10   O     O_3   0.837190 0.449610 0.491430 -0.256947
C5    C     C_R   0.001980 0.661121 0.268190 -0.103842
H1    H     H_    0.101037 0.641588 0.222723 0.129711
C6    C     C_R   0.991188 0.616874 0.315563 -0.181470
H2    H     H_    0.084868 0.566113 0.306011 0.134971
C7    C     C_R   0.857860 0.636238 0.373197 -0.261064
C8    C     C_R   0.739363 0.703448 0.384338 0.480404
C9    C     C_R   0.754365 0.748907 0.337787 -0.217623
H3    H     H_    0.665611 0.801391 0.348948 0.164593
C10   C     C_R   0.883620 0.727916 0.278403 0.072152
C11   C     C_R   0.727674 0.812497 0.212590 -0.255159
H4    H     H_    0.590507 0.805811 0.236762 0.149182
C12   C     C_R   0.732951 0.855258 0.163436 0.376572
C13   C     C_R   0.908009 0.862961 0.128059 -0.324423
C14   C     C_R   0.068303 0.821384 0.139896 -0.075737
H5    H     H_    0.196937 0.819278 0.109195 0.218852
C15   C     C_R   0.063334 0.779610 0.189428 -0.111131
H6    H     H_    0.194402 0.751245 0.197973 0.122967
C16   C     C_R   0.892758 0.774820 0.227045 0.086860
H7    H     H_    0.498612 0.684585 0.926924 0.179045
C17   C     C_R   0.219464 0.843550 0.756118 0.322546
C18   C     C_R   0.298252 0.849642 0.690909 0.335001
C19   C     C_R   0.209372 0.809093 0.625001 -0.189385
C20   C     C_R   0.060580 0.756260 0.622674 -0.130821
C21   C     C_R   0.984905 0.747796 0.687174 0.074311
C22   C     C_R   0.041650 0.802331 0.755166 -0.015841
C23   C     C_R   0.857751 0.684853 0.684257 -0.219775
C24   C     C_R   0.758772 0.684802 0.748450 0.097589
C25   C     C_R   0.792556 0.747105 0.815152 0.139471
C26   C     C_R   0.923648 0.809455 0.817985 -0.225263
C27   C     C_R   0.625587 0.624120 0.748014 -0.292121
C28   C     C_R   0.526599 0.624858 0.811312 0.397374
C29   C     C_R   0.569309 0.683866 0.876976 -0.149421
C30   C     C_R   0.701544 0.743363 0.879167 -0.130394
H8    H     H_    0.264187 0.813973 0.574458 0.222272
H9    H     H_    0.005396 0.721824 0.569722 0.150232
H10   H     H_    0.596368 0.575428 0.698973 0.166551
H11   H     H_    0.732508 0.785951 0.932012 0.133509
H12   H     H_    0.018111 0.440850 0.184337 0.170758
C31   C     C_R   0.533651 0.238117 0.381678 -0.129142
C32   C     C_R   0.638164 0.171540 0.381640 -0.082622
C33   C     C_R   0.671449 0.110324 0.316900 -0.090733
C34   C     C_R   0.599831 0.115064 0.251738 -0.126198
C35   C     C_R   0.494509 0.182217 0.249763 0.093099
C36   C     C_R   0.461732 0.245469 0.316187 0.103022
C37   C     C_R   0.418431 0.186221 0.183489 -0.276586
C38   C     C_R   0.311749 0.254300 0.183805 0.077183
C39   C     C_R   0.278520 0.317306 0.250185 0.139693
C40   C     C_R   0.354814 0.313503 0.316560 -0.291837
C41   C     C_R   0.240302 0.261589 0.118191 -0.280353
C42   C     C_R   0.132999 0.327846 0.117510 0.407422
C43   C     C_R   0.099658 0.388773 0.183167 -0.233480
C44   C     C_R   0.172347 0.384010 0.248176 -0.234813
H13   H     H_    0.507819 0.282995 0.433848 0.119980
H14   H     H_    0.692302 0.167187 0.432270 0.159469
H15   H     H_    0.751775 0.058462 0.317186 0.140231
H16   H     H_    0.627773 0.065215 0.203273 0.146796
H17   H     H_    0.269481 0.216310 0.066618 0.147682
H18   H     H_    0.143971 0.433486 0.296774 0.137992
C45   C     C_R   0.546263 0.319515 0.713453 -0.021486
H19   H     H_    0.687284 0.314434 0.734811 0.173633
C46   C     C_R   0.529035 0.363945 0.666353 -0.110389
H20   H     H_    0.653883 0.396340 0.657791 0.196059
C47   C     C_R   0.354888 0.366305 0.630278 -0.249297
C48   C     C_R   0.195531 0.323671 0.644390 0.478529
C49   C     C_R   0.209262 0.285504 0.696692 -0.176299
H21   H     H_    0.081076 0.257221 0.708703 0.158631
C50   C     C_R   0.385170 0.281439 0.731343 0.112674
C51   C     C_R   0.287138 0.163182 0.765908 -0.248972
H22   H     H_    0.195605 0.145182 0.718421 0.179716
C52   C     C_R   0.283086 0.117051 0.811947 0.449378
C53   C     C_R   0.413513 0.134187 0.871055 -0.329212
C54   C     C_R   0.530898 0.201966 0.885645 -0.191434
H23   H     H_    0.625444 0.217864 0.932429 0.192999
C55   C     C_R   0.519479 0.252630 0.843622 0.520554
C56   C     C_R   0.400340 0.232343 0.781057 -0.067872
O11   O     O_R   0.273230 0.084330 0.086440 -0.598517
O12   O     O_R   0.596660 0.069390 0.940470 -0.565643
O13   O     O_R   0.760270 0.915710 0.913690 -0.547400
C57   C     C_R   0.427002 0.083802 0.918601 1.049006
O14   O     O_R   0.603330 0.093680 0.087390 -0.612457
O15   O     O_R   0.766990 0.940160 0.061660 -0.573654
C58   C     C_R   0.433746 0.116648 0.115229 0.933006
O16   O     O_R   0.266510 0.059870 0.938470 -0.561632
O17   O     O_3   0.431050 0.949630 0.991510 -0.201311
V3    V     V_3+5 0.708490 0.009340 0.001580 1.289731
O18   O     O_R   0.096270 0.930570 0.059390 -0.563134
C59   C     C_R   0.925507 0.913787 0.079854 0.929151
O19   O     O_R   0.089600 0.906290 0.912460 -0.558537
C60   C     C_R   0.923896 0.883093 0.884025 1.023266
V4    V     V_3+5 0.207670 0.990600 0.998190 1.308312
O20   O     O_3   0.935250 0.050360 0.008480 -0.268305
Cl1   Cl    Cl    0.388535 0.851408 0.825089 -0.605293
N1    N     N_R   0.474315 0.892866 0.690451 0.265653
O21   O     O_R   0.579941 0.875691 0.631875 -0.329064
O22   O     O_R   0.524295 0.952826 0.746650 -0.346049
N2    N     N_R   0.382121 0.565940 0.808761 0.241884
O23   O     O_R   0.322215 0.554880 0.868218 -0.335281
O24   O     O_R   0.297772 0.527604 0.747744 -0.431004
N3    N     N_R   0.059028 0.333306 0.050240 0.246559
O25   O     O_R   0.960342 0.395037 0.049608 -0.333893
O26   O     O_R   0.087968 0.276340 0.989060 -0.382001
Cl2   Cl    Cl    0.979941 0.309905 0.594393 -0.698049
Cl3   Cl    Cl    0.576875 0.735367 0.458045 -0.632028
N4    N     N_R   0.143376 0.054120 0.797459 0.229879
O27   O     O_R   0.005452 0.059111 0.844274 -0.360745
O28   O     O_R   0.115436 0.009162 0.730558 -0.387769
Cl4   Cl    Cl    0.643577 0.343811 0.876598 -0.526753
N5    N     N_R   0.555198 0.883975 0.145305 0.214905
O29   O     O_R   0.492963 0.855077 0.078851 -0.424960
O30   O     O_R   0.438993 0.924768 0.196529 -0.454115

loop_
_geom_bond_atom_site_label_1
_geom_bond_atom_site_label_2
_geom_bond_distance
_ccdc_geom_bond_type
C25   C30   1.414566 A    
V3    O20   1.719237 S    
C20   H9    1.082890 S    
C31   C32   1.392809 A    
O13   C60   1.318189 A    
C17   Cl1   1.757470 S    
C55   Cl4   1.762126 S    
C37   C58   1.494227 S    
C1    O6    1.294676 A    
C34   H16   1.079961 S    
O19   V4    2.018121 S    
C49   H21   1.082170 S    
C55   C56   1.419772 A    
O11   C58   1.294370 A    
C46   H20   1.081160 S    
N4    O27   1.300638 A    
C11   H4    1.082611 S    
C38   C39   1.424919 A    
C2    C47   1.496759 S    
C4    C7    1.483494 S    
C7    C8    1.411798 A    
C12   C13   1.421053 A    
C6    C7    1.403636 A    
C18   C19   1.394430 A    
C51   C52   1.400904 A    
N1    O22   1.301138 A    
O5    C3    1.302091 A    
C19   C20   1.385352 A    
C57   O16   1.292633 A    
V4    O20   2.148810 S    
C44   H18   1.078528 S    
N3    O25   1.301633 A    
C27   H10   1.078198 S    
C41   H17   1.080483 S    
C32   C33   1.388655 A    
C13   C59   1.507006 S    
O19   C60   1.285033 A    
C3    C23   1.489944 S    
C27   C28   1.403446 A    
O8    V2    2.017983 S    
C11   C16   1.405267 A    
C6    H2    1.080940 S    
O13   V3    1.991356 S    
N4    O28   1.300741 A    
N3    O26   1.301897 A    
O14   C58   1.302492 A    
C9    H3    1.082195 S    
O1    V2    1.998415 S    
C51   C56   1.407026 A    
O7    V1    2.174054 S    
C18   N1    1.443036 S    
C10   C16   1.499699 S    
C21   C23   1.411028 A    
C42   C43   1.397901 A    
C35   C36   1.427130 A    
O12   C57   1.308233 A    
O9    C4    1.298059 A    
C17   C22   1.430315 A    
C37   C38   1.422028 A    
H7    C29   1.082775 S    
N2    O24   1.300501 A    
N2    O23   1.301697 A    
C49   C50   1.410800 A    
C26   C60   1.505994 S    
C46   C47   1.408051 A    
C8    Cl3   1.761928 S    
C48   Cl2   1.760480 S    
C35   C37   1.419492 A    
C42   N3    1.441415 S    
C43   C44   1.392674 A    
O14   V3    1.982348 S    
C51   H22   1.081773 S    
O12   V3    2.003248 S    
C20   C21   1.410904 A    
O4    C2    1.303267 A    
C52   C53   1.418940 A    
H12   C43   1.082679 S    
C34   C35   1.416051 A    
C47   C48   1.414953 A    
C53   C57   1.489374 S    
C15   C16   1.405129 A    
O2    C1    1.303411 A    
C45   H19   1.080531 S    
C13   C14   1.399896 A    
C28   C29   1.395326 A    
C5    H1    1.081526 S    
C31   H13   1.081319 S    
C33   H15   1.082786 S    
C45   C46   1.399920 A    
O15   C59   1.293342 A    
O3    C4    1.295916 A    
O11   V4    2.016860 S    
C29   C30   1.389640 A    
C54   C55   1.405819 A    
O6    V2    2.011236 S    
C32   H14   1.082687 S    
O9    V2    1.995174 S    
C24   C25   1.424355 A    
C23   C24   1.422619 A    
O2    V1    1.982380 S    
C25   C26   1.420413 A    
N5    O30   1.301094 A    
O16   V4    1.993572 S    
C39   C44   1.412502 A    
C21   C22   1.417554 A    
C38   C41   1.417403 A    
O1    C2    1.301319 A    
C11   C12   1.405369 A    
C48   C49   1.401311 A    
O5    V1    1.991508 S    
O8    C3    1.291800 A    
C12   N5    1.426468 S    
C19   H8    1.082405 S    
C50   C56   1.506691 S    
C1    C40   1.496505 S    
O17   V4    1.701643 S    
C36   C40   1.421907 A    
C5    C10   1.407724 A    
C15   H6    1.081755 S    
O7    V2    1.701756 S    
O4    V1    2.003226 S    
O3    V1    2.001784 S    
V1    O10   1.719227 S    
N1    O21   1.301589 A    
C14   C15   1.398256 A    
C45   C50   1.405559 A    
C33   C34   1.392606 A    
C14   H5    1.065156 S    
C30   H11   1.081199 S    
V2    O10   2.148955 S    
O17   V3    2.173985 S    
C5    C6    1.397633 A    
O18   V4    1.995132 S    
C9    C10   1.409805 A    
O18   C59   1.312125 A    
C24   C27   1.417695 A    
C39   C40   1.420636 A    
C54   H23   1.083978 S    
C53   C54   1.404629 A    
C17   C18   1.415488 A    
C41   C42   1.402199 A    
C22   C26   1.438476 A    
C8    C9    1.402864 A    
C52   N4    1.436637 S    
C31   C36   1.416781 A    
O15   V3    2.001744 S    
C28   N2    1.438034 S    
N5    O29   1.300541 A    
