data_mof_unit_pretest_1362.cif
_audit_creation_date              2012-10-26T19:52:26-0400
_audit_creation_method            fapswitch 2.2
_symmetry_space_group_name_H-M    P1
_symmetry_Int_Tables_number       1
_space_group_crystal_system       triclinic
_cell_length_a                    9.648476
_cell_length_b                    11.054796
_cell_length_c                    13.480521
_cell_angle_alpha                 92.43633
_cell_angle_beta                  72.161621
_cell_angle_gamma                 90.000769
_cell_volume                      1367.36739649

loop_
_atom_site_label
_atom_site_type_symbol
_atom_type_description
_atom_site_fract_x
_atom_site_fract_y
_atom_site_fract_z
_atom_type_partial_charge
C1    C     C_R   0.499074 0.736670 0.502501 0.557524
C2    C     C_R   0.374994 0.485019 0.815713 0.034642
C3    C     C_R   0.383838 0.934939 0.494188 -0.014193
C4    C     C_R   0.421483 0.493109 0.700043 0.579331
C5    C     C_R   0.502430 0.868077 0.498984 0.002919
C6    C     C_R   0.630935 0.931003 0.490336 -0.136313
C7    C     C_R   0.633685 0.057983 0.488017 -0.055798
C8    C     C_R   0.508008 0.126652 0.487541 -0.008029
C9    C     C_R   0.389424 0.057578 0.478589 -0.023576
C10   C     C_3   0.225796 0.066567 0.513918 -0.004862
C11   C     C_3   0.223729 0.933348 0.546761 -0.063883
C12   C     C_R   0.442738 0.506748 0.977197 0.033309
C13   C     C_R   0.965023 0.475626 0.409868 0.134802
C14   C     C_R   0.891121 0.554727 0.579898 0.103060
C15   C     C_R   0.038974 0.551665 0.581174 0.103146
C16   C     C_R   0.501912 0.261806 0.496356 0.560308
C17   C     C_R   0.111926 0.472251 0.410515 0.154440
C18   C     C_3   0.132510 0.352773 0.353156 -0.129697
C19   C     C_3   0.983380 0.366726 0.339415 -0.246828
C20   C     C_R   0.578714 0.505348 0.300547 0.541951
C21   C     C_R   0.794695 0.429329 0.023657 -0.126130
C22   C     C_R   0.626647 0.506028 0.185986 0.008552
C23   C     C_R   0.477174 0.465399 0.870779 0.021468
C24   C     C_R   0.229084 0.507079 0.873293 -0.105467
C25   C     C_R   0.189192 0.529302 0.980429 -0.124833
C26   C     C_R   0.294482 0.533111 0.031494 -0.078038
C27   C     C_1   0.765209 0.110831 0.495410 0.258005
C28   C     C_2   0.162663 0.162691 0.600863 0.593114
C29   C     C_1   0.178806 0.073384 0.419302 0.211353
C30   C     C_1   0.189647 0.919910 0.660157 0.259433
C31   C     C_1   0.145935 0.845996 0.497654 0.236721
C32   C     C_1   0.787124 0.630842 0.657503 0.247878
C33   C     C_1   0.072717 0.615644 0.665657 0.227973
C34   C     C_R   0.553719 0.504802 0.027658 0.040634
C35   C     C_1   0.251426 0.341487 0.254764 0.219879
C36   C     C_1   0.432886 0.646827 0.180854 0.198200
C37   C     C_2   0.616526 0.298213 0.746470 0.598156
C38   C     C_R   0.690133 0.448662 0.973320 0.022307
C39   C     C_R   0.716435 0.399199 0.872900 -0.130739
C40   C     C_R   0.607127 0.397171 0.825581 0.053634
C41   C     C_R   0.533621 0.548664 0.131973 -0.005764
C42   C     C_R   0.760044 0.451992 0.130163 -0.134943
Cu1   Cu    Cu3+1 0.359330 0.500020 0.500010 1.034422
Cu2   Cu    Cu3+1 0.640670 0.499980 0.499990 1.020195
H1    H     H_    0.835185 0.422324 0.169289 0.123678
H2    H     H_    0.728205 0.882030 0.490893 0.163093
H3    H     H_    0.171894 0.244401 0.735592 0.348316
H4    H     H_    0.512854 0.163354 0.694130 0.353099
H5    H     H_    0.138905 0.285646 0.408335 0.182141
H6    H     H_    0.987701 0.391693 0.259765 0.106871
H7    H     H_    0.816967 0.348616 0.836455 0.153762
H8    H     H_    0.905633 0.294669 0.370313 0.180666
H9    H     H_    0.898044 0.385257 0.982681 0.117451
H10   H     H_    0.145055 0.505974 0.836000 0.150441
H11   H     H_    0.254027 0.546799 0.114879 0.137279
H12   H     H_    0.075925 0.545614 0.024255 0.128050
N1    N     N_R   0.852320 0.499070 0.499340 -0.236702
N2    N     N_1   0.353186 0.725545 0.220271 -0.251247
N3    N     N_R   0.148230 0.499110 0.499340 -0.243476
N4    N     N_1   0.872177 0.150111 0.502933 -0.200316
N5    N     N_1   0.144558 0.072773 0.344071 -0.266403
N6    N     N_1   0.164060 0.912699 0.749385 -0.198640
N7    N     N_1   0.084798 0.779691 0.457593 -0.286219
N8    N     N_1   0.705731 0.693034 0.719752 -0.274079
N9    N     N_1   0.095367 0.668715 0.734577 -0.290545
N10   N     N_1   0.344740 0.327907 0.177243 -0.281332
O1    O     O_R   0.381190 0.680360 0.500000 -0.493812
O2    O     O_R   0.220561 0.176203 0.683964 -0.666207
O3    O     O_2   0.735153 0.265444 0.687875 -0.468695
O4    O     O_R   0.490886 0.236739 0.744169 -0.674937
O5    O     O_R   0.618780 0.680320 0.499990 -0.508900
O6    O     O_R   0.323230 0.500000 0.650990 -0.498367
O7    O     O_R   0.560820 0.499960 0.650980 -0.496990
O8    O     O_R   0.381220 0.319680 0.500010 -0.489072
O9    O     O_R   0.618810 0.319640 0.500000 -0.487570
O10   O     O_R   0.439180 0.500040 0.349020 -0.496456
O11   O     O_R   0.676770 0.500000 0.349010 -0.520770
O12   O     O_2   0.064475 0.230509 0.597623 -0.482372

loop_
_geom_bond_atom_site_label_1
_geom_bond_atom_site_label_2
_ccdc_geom_bond_type
C39   H7    S    
Cu1   O6    S    
C37   O3    D    
C16   O9    A    
C19   H6    S    
C25   H12   S    
C26   H11   S    
C33   N9    T    
C7    C8    A    
C12   C23   A    
C1    O5    A    
C20   O11   A    
C16   O8    A    
Cu2   O11   S    
C28   O2    S    
C37   C40   S    
C36   N2    T    
C27   N4    T    
C5    C6    A    
C22   C41   A    
C13   N1    A    
C24   H10   S    
C23   C40   A    
C7    C27   S    
C20   O10   A    
Cu2   O5    S    
C18   C19   S    
C19   H8    S    
C21   C38   A    
C11   C30   S    
C8    C9    A    
C28   O12   D    
C18   C35   S    
Cu1   N3    S    
Cu1   O8    S    
C11   C31   S    
C8    C16   S    
C37   O4    S    
C36   C41   S    
C34   C41   A    
C38   C39   A    
C29   N5    T    
C13   C19   S    
C31   N7    T    
C24   C25   A    
C32   N8    T    
C14   C32   S    
C39   C40   A    
C35   N10   T    
C25   C26   A    
C12   C26   A    
C42   H1    S    
Cu2   O9    S    
C2    C4    S    
Cu1   Cu2   S    
C3    C9    A    
Cu2   N1    S    
C17   C18   S    
C4    O7    A    
C17   N3    A    
C20   C22   S    
C30   N6    T    
C2    C24   A    
C1    C5    S    
C12   C34   A    
H3    O2    S    
C4    O6    A    
C9    C10   S    
C10   C28   S    
Cu1   O10   S    
C14   N1    A    
C6    H2    S    
C34   C38   A    
C15   N3    A    
H4    O4    S    
C3    C5    A    
C6    C7    A    
C13   C17   A    
C21   H9    S    
C10   C29   S    
C22   C42   A    
C1    O1    A    
Cu2   O7    S    
C3    C11   S    
C10   C11   S    
C21   C42   A    
Cu1   O1    S    
C2    C23   A    
C14   C15   A    
C15   C33   S    
C18   H5    S    
