data_mof_unit_pretest_843.cif
_audit_creation_date              2012-12-11T16:29:35-0500
_audit_creation_method            fapswitch 2.2
_symmetry_space_group_name_H-M    P1
_symmetry_Int_Tables_number       1
_space_group_crystal_system       triclinic
_cell_length_a                    6.952529
_cell_length_b                    17.384496
_cell_length_c                    18.689873
_cell_angle_alpha                 106.305313
_cell_angle_beta                  89.802081
_cell_angle_gamma                 90.57724
_cell_volume                      2168.00606258

loop_
_atom_site_label
_atom_site_type_symbol
_atom_type_description
_atom_site_fract_x
_atom_site_fract_y
_atom_site_fract_z
_atom_type_partial_charge
O1    O     O_R   0.494360 0.415680 0.413760 -0.532600
O2    O     O_R   0.818810 0.432910 0.557230 -0.526270
O3    O     O_R   0.994290 0.584320 0.586240 -0.536940
C1    C     C_R   0.649824 0.416012 0.580665 0.699573
O4    O     O_R   0.823740 0.406440 0.412520 -0.532958
O5    O     O_R   0.999250 0.557660 0.440500 -0.514803
C2    C     C_R   0.654522 0.384964 0.383836 0.719396
O6    O     O_R   0.489400 0.442340 0.559500 -0.527773
O7    O     O_3   0.662500 0.549650 0.509350 -0.349128
V1    V     V_3+5 0.935340 0.490790 0.498270 1.452033
O8    O     O_R   0.329270 0.567090 0.442770 -0.512868
C3    C     C_R   0.161137 0.584009 0.419353 0.719913
O9    O     O_R   0.324340 0.593560 0.587480 -0.537183
C4    C     C_R   0.155508 0.616255 0.615212 0.686049
V2    V     V_3+5 0.435970 0.509210 0.501730 1.460054
O10   O     O_3   0.158940 0.450350 0.490650 -0.364667
H1    H     H_    0.854578 0.839321 0.552221 0.145883
C5    C     C_R   0.291888 0.605149 0.757786 -0.258418
C6    C     C_R   0.357000 0.596689 0.825735 -0.018828
C7    C     C_R   0.344081 0.661034 0.890375 0.296163
C8    C     C_R   0.262771 0.732948 0.886250 -0.225543
C9    C     C_R   0.199564 0.743568 0.817652 0.017980
C10   C     C_R   0.213900 0.678180 0.752266 0.066487
C11   C     C_R   0.121348 0.817714 0.814063 -0.164785
C12   C     C_R   0.057541 0.826778 0.744017 0.028916
C13   C     C_R   0.063882 0.759010 0.679508 0.024107
C14   C     C_R   0.145216 0.685662 0.683315 -0.141899
C15   C     C_R   0.988909 0.901306 0.735159 0.217929
C16   C     C_R   0.909559 0.904129 0.666455 -0.035473
C17   C     C_R   0.911415 0.836768 0.605448 -0.190270
C18   C     C_R   0.991692 0.766169 0.611083 -0.155100
H2    H     H_    0.301332 0.553437 0.709503 0.123270
H3    H     H_    0.251206 0.780340 0.937800 0.106099
H4    H     H_    0.995659 0.717208 0.560504 0.124189
C19   C     C_1   0.111966 0.863836 0.132520 -0.182401
C20   C     C_1   0.119543 0.821246 0.176072 0.019407
C21   C     C_1   0.128901 0.771033 0.227965 0.025892
C22   C     C_1   0.136792 0.728741 0.271786 0.022563
C23   C     C_1   0.145975 0.678532 0.323696 0.023657
C24   C     C_1   0.153334 0.635974 0.367291 -0.173726
C25   C     C_1   0.641246 0.363971 0.632606 -0.208780
C26   C     C_1   0.637200 0.321330 0.676157 0.033737
C27   C     C_1   0.633925 0.271230 0.728189 0.041882
C28   C     C_1   0.631404 0.229109 0.772199 0.034933
C29   C     C_1   0.627986 0.179048 0.824233 0.017027
C30   C     C_1   0.623774 0.136469 0.867813 -0.243241
H5    H     H_    0.499825 0.148524 0.457908 0.134121
C31   C     C_R   0.698496 0.406491 0.230819 -0.104998
C32   C     C_R   0.734411 0.413662 0.159308 -0.152827
C33   C     C_R   0.735285 0.346817 0.097533 0.327335
C34   C     C_R   0.699469 0.271468 0.107286 -0.208110
C35   C     C_R   0.663939 0.260730 0.178638 0.035123
C36   C     C_R   0.668402 0.328980 0.242661 0.023103
C37   C     C_R   0.623764 0.182660 0.185524 -0.163628
C38   C     C_R   0.595941 0.170490 0.257563 0.019192
C39   C     C_R   0.601040 0.238911 0.321557 0.072265
C40   C     C_R   0.641061 0.316983 0.314669 -0.171615
C41   C     C_R   0.565214 0.092698 0.269357 -0.097840
C42   C     C_R   0.527423 0.085959 0.341627 -0.022265
C43   C     C_R   0.527432 0.153613 0.402270 -0.161033
C44   C     C_R   0.566284 0.228344 0.392866 -0.147886
H6    H     H_    0.761937 0.472291 0.151452 0.131420
H7    H     H_    0.699432 0.221343 0.057566 0.096285
H8    H     H_    0.567303 0.277982 0.442991 0.101312
O11   O     O_R   0.775690 0.057750 0.940570 -0.518969
O12   O     O_R   0.441200 0.093570 0.087490 -0.533034
O13   O     O_R   0.265840 0.942320 0.059480 -0.514654
C45   C     C_R   0.610346 0.114973 0.116225 0.722873
O14   O     O_R   0.446270 0.067110 0.942790 -0.529047
O15   O     O_R   0.270950 0.915660 0.913750 -0.539064
C46   C     C_R   0.615254 0.084297 0.919620 0.694896
O16   O     O_R   0.770580 0.084400 0.086300 -0.532128
O17   O     O_3   0.602640 0.950400 0.990690 -0.352238
V3    V     V_3+5 0.329740 0.009200 0.001730 1.446934
O18   O     O_R   0.940900 0.906360 0.912450 -0.532404
C47   C     C_R   0.109714 0.884741 0.883931 0.779493
O19   O     O_R   0.935830 0.932820 0.057160 -0.516666
C48   C     C_R   0.103998 0.915871 0.080536 0.712780
V4    V     V_3+5 0.829130 0.990680 0.998180 1.460090
O20   O     O_3   0.106100 0.049590 0.009310 -0.360718
C49   C     C_1   0.685624 0.481872 0.288209 0.261812
N1    N     N_1   0.674753 0.542911 0.333226 -0.329595
N2    N     N_2   0.776771 0.354968 0.025270 -0.529167
H9    H     H_    0.816370 0.302481 0.986543 0.254571
C50   C     C_3   0.636398 0.399184 0.996136 -0.489648
H10   H     H_    0.684173 0.403324 0.940589 0.223169
H11   H     H_    0.621581 0.461068 0.033290 0.202049
H12   H     H_    0.494604 0.367906 0.989903 0.197459
C51   C     C_1   0.581145 0.017936 0.210749 0.259342
N3    N     N_1   0.594256 0.957514 0.165009 -0.322882
C52   C     C_1   0.489909 0.009236 0.355365 0.314163
N4    N     N_1   0.459844 0.947910 0.366295 -0.334307
C53   C     C_1   0.431193 0.520426 0.828655 0.332786
N5    N     N_1   0.490512 0.459277 0.831086 -0.378518
N6    N     N_2   0.409102 0.653439 0.960231 -0.521162
H13   H     H_    0.331276 0.686746 0.005231 0.254869
C54   C     C_3   0.614172 0.665342 0.971853 -0.522901
H14   H     H_    0.655381 0.727780 0.973475 0.192104
H15   H     H_    0.695446 0.622684 0.926752 0.206132
H16   H     H_    0.654051 0.654740 0.025758 0.200306
N7    N     N_2   0.008207 0.974313 0.793083 -0.531230
H17   H     H_    0.888669 0.010178 0.800086 0.254848
C55   C     C_3   0.183695 0.018404 0.789230 -0.490784
H18   H     H_    0.190290 0.072773 0.837563 0.200022
H19   H     H_    0.187490 0.037463 0.737249 0.193829
H20   H     H_    0.311208 0.980913 0.790872 0.190350
C56   C     C_1   0.831164 0.977173 0.656657 0.292462
N8    N     N_1   0.768326 0.035668 0.648826 -0.351667

loop_
_geom_bond_atom_site_label_1
_geom_bond_atom_site_label_2
_ccdc_geom_bond_type
O12   C45   A    
C38   C39   A    
O18   C47   A    
C53   N5    T    
O11   V4    S    
O17   V3    S    
N6    H13   S    
C1    O6    A    
C54   H14   S    
O19   C48   A    
C39   C40   A    
C12   C15   A    
C13   C14   A    
C21   C22   T    
C15   C16   A    
O16   V4    S    
O5    C3    A    
C17   C18   A    
C8    H3    S    
C1    C25   S    
V2    O10   S    
O12   V3    S    
C31   C49   S    
C5    C6    A    
C25   C26   T    
O14   C46   A    
H5    C43   S    
O8    V2    S    
C15   N7    S    
C6    C7    A    
O15   V3    S    
C56   N8    T    
O1    V2    S    
C10   C14   A    
C4    C14   S    
O7    V1    S    
C6    C53   S    
C50   H11   S    
C42   C43   A    
N7    C55   S    
V3    O20   S    
O9    C4    A    
H1    C17   S    
O13   C48   A    
C54   H15   S    
C35   C37   A    
C33   N2    S    
C49   N1    T    
O19   V4    S    
C31   C36   A    
C34   C35   A    
N7    H17   S    
C34   H7    S    
C11   C12   A    
C23   C24   T    
O4    C2    A    
C36   C40   A    
C11   C47   S    
C12   C13   A    
O11   C46   A    
C5    C10   A    
C43   C44   A    
C19   C20   T    
C3    C24   S    
C44   H8    S    
O2    C1    A    
C27   C28   T    
C16   C17   A    
N2    H9    S    
C45   O16   A    
C33   C34   A    
O17   V4    S    
C18   H4    S    
O14   V3    S    
C55   H19   S    
O13   V3    S    
C42   C52   S    
C35   C36   A    
C30   C46   S    
O3    C4    A    
C31   C32   A    
N2    C50   S    
C7    N6    S    
O6    V2    S    
O9    V2    S    
O15   C47   A    
C9    C11   A    
C5    H2    S    
C26   C27   S    
O2    V1    S    
C52   N4    T    
C54   H16   S    
C28   C29   S    
C50   H12   S    
C37   C38   A    
C20   C21   S    
C32   H6    S    
O1    C2    A    
C9    C10   A    
C50   H10   S    
O5    V1    S    
O8    C3    A    
N6    C54   S    
C19   C48   S    
C41   C42   A    
O4    V1    S    
O3    V1    S    
V1    O10   S    
C22   C23   S    
C55   H20   S    
O7    V2    S    
C41   C51   S    
V4    O20   S    
C29   C30   T    
C13   C18   A    
C37   C45   S    
C7    C8    A    
C32   C33   A    
C38   C41   A    
C55   H18   S    
C39   C44   A    
C16   C56   S    
C51   N3    T    
C8    C9    A    
O18   V4    S    
C2    C40   S    
