data_mof_unit_pretest_82.cif
_audit_creation_date              2012-12-11T16:19:11-0500
_audit_creation_method            fapswitch 2.2
_symmetry_space_group_name_H-M    P1
_symmetry_Int_Tables_number       1
_space_group_crystal_system       triclinic
_cell_length_a                    6.920627
_cell_length_b                    31.289917
_cell_length_c                    35.101991
_cell_angle_alpha                 90.000183
_cell_angle_beta                  89.998906
_cell_angle_gamma                 89.999813
_cell_volume                      7601.19028038

loop_
_atom_site_label
_atom_site_type_symbol
_atom_type_description
_atom_site_fract_x
_atom_site_fract_y
_atom_site_fract_z
_atom_type_partial_charge
O1    O     O_R   0.417270 0.211480 0.210950 -0.534410
O2    O     O_R   0.582730 0.788520 0.789050 -0.534410
O3    O     O_R   0.582730 0.788520 0.710950 -0.534419
O4    O     O_R   0.417270 0.211480 0.289050 -0.534417
O5    O     O_R   0.917270 0.288520 0.289050 -0.534413
O6    O     O_R   0.082730 0.711480 0.710950 -0.534413
O7    O     O_R   0.082730 0.711480 0.789050 -0.534406
O8    O     O_R   0.917270 0.288520 0.210950 -0.534406
O9    O     O_R   0.746940 0.206370 0.288750 -0.522094
O10   O     O_R   0.253060 0.793630 0.711250 -0.522094
O11   O     O_R   0.253060 0.793630 0.788750 -0.522096
O12   O     O_R   0.746940 0.206370 0.211250 -0.522095
O13   O     O_R   0.246940 0.293630 0.211250 -0.522096
O14   O     O_R   0.753060 0.706370 0.788750 -0.522095
O15   O     O_R   0.753060 0.706370 0.711250 -0.522064
O16   O     O_R   0.246940 0.293630 0.288750 -0.522069
C1    C     C_R   0.578614 0.196578 0.302516 0.780470
C2    C     C_R   0.421386 0.803422 0.697484 0.780466
C3    C     C_R   0.421383 0.803422 0.802516 0.780473
C4    C     C_R   0.578617 0.196578 0.197484 0.780474
C5    C     C_R   0.078617 0.303422 0.197484 0.780470
C6    C     C_R   0.921383 0.696578 0.802516 0.780471
C7    C     C_R   0.921386 0.696578 0.697484 0.780478
C8    C     C_R   0.078614 0.303422 0.302516 0.780478
O17   O     O_3   0.583760 0.276950 0.250000 -0.368452
O18   O     O_3   0.416240 0.723050 0.750000 -0.368448
O19   O     O_3   0.083760 0.223050 0.250000 -0.368470
O20   O     O_3   0.916240 0.776950 0.750000 -0.368472
V1    V     V_3+5 0.858600 0.245000 0.250000 1.598301
V2    V     V_3+5 0.141400 0.755000 0.750000 1.598301
V3    V     V_3+5 0.358600 0.255000 0.250000 1.598316
V4    V     V_3+5 0.641400 0.745000 0.750000 1.598321
C9    C     C_R   0.972858 0.588323 0.537578 0.604056
C10   C     C_R   0.027145 0.411677 0.462422 0.604052
C11   C     C_R   0.026815 0.411673 0.037581 0.604051
C12   C     C_R   0.973185 0.588327 0.962419 0.604051
C13   C     C_R   0.472911 0.911676 0.962421 0.604036
C14   C     C_R   0.527089 0.088324 0.037579 0.604036
C15   C     C_R   0.527100 0.088324 0.462422 0.604020
C16   C     C_R   0.472898 0.911676 0.537578 0.604017
N1    N     N_R   0.974558 0.574237 0.574637 -0.553235
N2    N     N_R   0.025450 0.425763 0.425363 -0.553232
N3    N     N_R   0.025484 0.425765 0.074638 -0.553242
N4    N     N_R   0.974516 0.574235 0.925362 -0.553242
N5    N     N_R   0.474511 0.925764 0.925362 -0.553224
N6    N     N_R   0.525489 0.074236 0.074637 -0.553224
N7    N     N_R   0.525460 0.074238 0.425363 -0.553214
N8    N     N_R   0.474538 0.925762 0.574637 -0.553212
C17   C     C_R   0.987090 0.531402 0.582784 0.577414
C18   C     C_R   0.012923 0.468597 0.417216 0.577413
C19   C     C_R   0.013316 0.468605 0.082784 0.577430
C20   C     C_R   0.986684 0.531395 0.917216 0.577430
C21   C     C_R   0.486954 0.968600 0.917216 0.577414
C22   C     C_R   0.513046 0.031400 0.082784 0.577415
C23   C     C_R   0.512983 0.031402 0.417216 0.577415
C24   C     C_R   0.487015 0.968598 0.582784 0.577415
C25   C     C_R   0.997992 0.500985 0.553217 -0.032601
C26   C     C_R   0.002019 0.499015 0.446783 -0.032600
C27   C     C_R   0.002413 0.499022 0.053216 -0.032610
C28   C     C_R   0.997587 0.500978 0.946784 -0.032611
C29   C     C_R   0.497872 0.999017 0.946783 -0.032599
C30   C     C_R   0.502128 0.000983 0.053216 -0.032599
C31   C     C_R   0.502074 0.000984 0.446784 -0.032593
C32   C     C_R   0.497925 0.999016 0.553216 -0.032593
C33   C     C_R   0.995143 0.515022 0.515101 -0.015300
C34   C     C_R   0.004866 0.484978 0.484899 -0.015299
C35   C     C_R   0.004871 0.484979 0.015102 -0.015294
C36   C     C_R   0.995129 0.515021 0.984899 -0.015294
C37   C     C_R   0.495128 0.984979 0.984899 -0.015298
C38   C     C_R   0.504872 0.015021 0.015101 -0.015298
C39   C     C_R   0.504864 0.015022 0.484899 -0.015301
C40   C     C_R   0.495135 0.984978 0.515101 -0.015301
C41   C     C_R   0.982524 0.559031 0.507116 -0.044329
C42   C     C_R   0.017483 0.440969 0.492884 -0.044328
C43   C     C_R   0.017120 0.440964 0.007118 -0.044337
C44   C     C_R   0.982880 0.559036 0.992881 -0.044337
C45   C     C_R   0.482594 0.940968 0.992883 -0.044320
C46   C     C_R   0.517406 0.059032 0.007117 -0.044320
C47   C     C_R   0.517432 0.059032 0.492884 -0.044310
C48   C     C_R   0.482567 0.940968 0.507116 -0.044309
C49   C     C_R   0.010494 0.456947 0.560836 -0.132202
C50   C     C_R   0.989517 0.543053 0.439164 -0.132202
C51   C     C_R   0.990287 0.543065 0.060833 -0.132198
C52   C     C_R   0.009713 0.456934 0.939166 -0.132198
C53   C     C_R   0.510287 0.043056 0.939165 -0.132205
C54   C     C_R   0.489713 0.956944 0.060835 -0.132205
C55   C     C_R   0.489625 0.956946 0.439165 -0.132208
C56   C     C_R   0.510374 0.043054 0.560835 -0.132207
C57   C     C_R   0.020085 0.427323 0.531056 -0.126861
C58   C     C_R   0.979922 0.572677 0.468944 -0.126862
C59   C     C_R   0.980674 0.572688 0.031053 -0.126860
C60   C     C_R   0.019326 0.427312 0.968947 -0.126860
C61   C     C_R   0.519901 0.072679 0.968945 -0.126862
C62   C     C_R   0.480099 0.927320 0.031055 -0.126862
C63   C     C_R   0.480025 0.927322 0.468944 -0.126865
C64   C     C_R   0.519974 0.072678 0.531056 -0.126865
O21   O     O_2   0.963250 0.630577 0.530164 -0.491373
O22   O     O_2   0.036745 0.369423 0.469836 -0.491377
O23   O     O_2   0.036080 0.369415 0.030169 -0.491365
O24   O     O_2   0.963920 0.630585 0.969831 -0.491365
O25   O     O_2   0.463395 0.869422 0.969835 -0.491387
O26   O     O_2   0.536605 0.130578 0.030165 -0.491387
O27   O     O_2   0.536640 0.130578 0.469838 -0.491403
O28   O     O_2   0.463360 0.869422 0.530162 -0.491405
O29   O     O_2   0.986733 0.518174 0.619362 -0.517243
O30   O     O_2   0.013287 0.481826 0.380638 -0.517245
O31   O     O_2   0.014030 0.481839 0.119361 -0.517231
O32   O     O_2   0.985970 0.518161 0.880639 -0.517230
O33   O     O_2   0.486493 0.981831 0.880638 -0.517252
O34   O     O_2   0.513507 0.018169 0.119362 -0.517253
O35   O     O_2   0.513407 0.018171 0.380638 -0.517261
O36   O     O_2   0.486591 0.981829 0.619362 -0.517262
H1    H     H_    0.012836 0.445192 0.589851 0.177026
H2    H     H_    0.987176 0.554808 0.410149 0.177026
H3    H     H_    0.988257 0.554827 0.089848 0.177023
H4    H     H_    0.011743 0.445173 0.910152 0.177023
H5    H     H_    0.512544 0.054813 0.910150 0.177026
H6    H     H_    0.487455 0.945187 0.089850 0.177026
H7    H     H_    0.487333 0.945190 0.410149 0.177027
H8    H     H_    0.512666 0.054810 0.589851 0.177027
H9    H     H_    0.029666 0.393685 0.538075 0.180994
H10   H     H_    0.970341 0.606314 0.461926 0.180994
H11   H     H_    0.971392 0.606330 0.038071 0.180993
H12   H     H_    0.028608 0.393669 0.961929 0.180993
H13   H     H_    0.529410 0.106318 0.961927 0.180996
H14   H     H_    0.470590 0.893682 0.038073 0.180996
H15   H     H_    0.470492 0.893684 0.461925 0.180996
H16   H     H_    0.529507 0.106316 0.538075 0.180996
C65   C     C_R   0.887685 0.389816 0.368676 -0.049564
C66   C     C_R   0.112333 0.610189 0.631320 -0.049556
C67   C     C_R   0.112201 0.610147 0.868649 -0.049653
C68   C     C_R   0.887799 0.389853 0.131351 -0.049653
C69   C     C_R   0.387782 0.110157 0.131345 -0.049611
C70   C     C_R   0.612217 0.889843 0.868655 -0.049611
C71   C     C_R   0.612210 0.889850 0.631351 -0.049614
C72   C     C_R   0.387785 0.110151 0.368650 -0.049612
H17   H     H_    0.757282 0.408660 0.371605 0.144824
H18   H     H_    0.242747 0.591349 0.628388 0.144821
H19   H     H_    0.242525 0.591273 0.871556 0.144783
H20   H     H_    0.757475 0.408727 0.128444 0.144783
H21   H     H_    0.257438 0.091291 0.128432 0.144828
H22   H     H_    0.742562 0.908709 0.871568 0.144828
H23   H     H_    0.742534 0.908725 0.628445 0.144849
H24   H     H_    0.257458 0.091278 0.371557 0.144847
C73   C     C_R   0.902086 0.360071 0.339002 -0.200626
C74   C     C_R   0.097928 0.639934 0.660995 -0.200601
C75   C     C_R   0.097818 0.639896 0.838977 -0.200726
C76   C     C_R   0.902182 0.360104 0.161023 -0.200728
C77   C     C_R   0.402169 0.139904 0.161018 -0.200736
C78   C     C_R   0.597831 0.860096 0.838982 -0.200736
C79   C     C_R   0.597821 0.860103 0.661025 -0.200794
C80   C     C_R   0.402175 0.139898 0.338977 -0.200784
H25   H     H_    0.782139 0.356987 0.319375 0.169644
H26   H     H_    0.217886 0.643022 0.680619 0.169673
H27   H     H_    0.217704 0.642956 0.819331 0.169466
H28   H     H_    0.782296 0.357044 0.180669 0.169465
H29   H     H_    0.282268 0.142969 0.180660 0.169501
H30   H     H_    0.717731 0.857031 0.819340 0.169501
H31   H     H_    0.717697 0.857046 0.680671 0.169456
H32   H     H_    0.282295 0.142957 0.319330 0.169465
C81   C     C_R   0.069243 0.334872 0.334430 -0.136397
C82   C     C_R   0.930758 0.665127 0.665570 -0.136403
C83   C     C_R   0.930748 0.665128 0.834429 -0.136358
C84   C     C_R   0.069252 0.334872 0.165571 -0.136358
C85   C     C_R   0.569255 0.165128 0.165571 -0.136359
C86   C     C_R   0.430745 0.834872 0.834429 -0.136359
C87   C     C_R   0.430756 0.834871 0.665571 -0.136368
C88   C     C_R   0.569243 0.165129 0.334429 -0.136367
C89   C     C_R   0.222343 0.340025 0.360943 0.357258
C90   C     C_R   0.777645 0.659969 0.639060 0.357257
C91   C     C_R   0.777726 0.660007 0.860965 0.357292
C92   C     C_R   0.222274 0.339993 0.139035 0.357293
C93   C     C_R   0.722296 0.160000 0.139040 0.357273
C94   C     C_R   0.277704 0.839999 0.860960 0.357273
C95   C     C_R   0.277745 0.839989 0.639034 0.357267
C96   C     C_R   0.722258 0.160009 0.360965 0.357268
C97   C     C_R   0.206683 0.370084 0.390433 -0.118419
C98   C     C_R   0.793308 0.629910 0.609570 -0.118422
C99   C     C_R   0.793383 0.629950 0.890458 -0.118413
C100  C     C_R   0.206617 0.370050 0.109542 -0.118413
C101  C     C_R   0.706644 0.129943 0.109548 -0.118404
C102  C     C_R   0.293356 0.870057 0.890451 -0.118404
C103  C     C_R   0.293405 0.870045 0.609541 -0.118400
C104  C     C_R   0.706598 0.129953 0.390458 -0.118401
H33   H     H_    0.324510 0.373835 0.410474 0.165150
H34   H     H_    0.675472 0.626155 0.589532 0.165139
H35   H     H_    0.675628 0.626227 0.910520 0.165173
H36   H     H_    0.324372 0.373772 0.089480 0.165173
H37   H     H_    0.824421 0.126213 0.089493 0.165200
H38   H     H_    0.175579 0.873787 0.910507 0.165200
H39   H     H_    0.175652 0.873767 0.589480 0.165231
H40   H     H_    0.824353 0.126230 0.410518 0.165228
C105  C     C_R   0.040012 0.395141 0.394585 0.299376
C106  C     C_R   0.959993 0.604859 0.605415 0.299382
C107  C     C_R   0.959959 0.604858 0.894584 0.299416
C108  C     C_R   0.040041 0.395142 0.105416 0.299416
C109  C     C_R   0.540046 0.104859 0.105416 0.299356
C110  C     C_R   0.459954 0.895141 0.894584 0.299356
C111  C     C_R   0.459978 0.895139 0.605415 0.299327
C112  C     C_R   0.540021 0.104861 0.394585 0.299330
Cl1   Cl    Cl    0.432609 0.308208 0.360076 -0.596451
Cl2   Cl    Cl    0.567359 0.691780 0.639931 -0.596489
Cl3   Cl    Cl    0.567568 0.691858 0.860119 -0.596211
Cl4   Cl    Cl    0.432432 0.308141 0.139881 -0.596211
Cl5   Cl    Cl    0.932470 0.191847 0.139890 -0.596257
Cl6   Cl    Cl    0.067530 0.808153 0.860110 -0.596257
Cl7   Cl    Cl    0.067600 0.808133 0.639878 -0.596242
Cl8   Cl    Cl    0.932410 0.191863 0.360120 -0.596247

loop_
_geom_bond_atom_site_label_1
_geom_bond_atom_site_label_2
_ccdc_geom_bond_type
O17   V3    S    
C16   O28   S    
C80   H32   S    
O18   V4    S    
O12   V1    S    
O19   V1    S    
C37   C45   A    
C8    C81   S    
C102  C110  A    
C95   Cl7   S    
C101  C109  A    
C94   C102  A    
C56   C64   A    
C17   C25   A    
O15   V4    S    
C99   C107  A    
O16   V3    S    
C4    C85   S    
C98   C106  A    
C64   H16   S    
C97   C105  A    
C20   C28   A    
C90   C98   A    
O8    V1    S    
C42   C57   A    
C15   N7    A    
C38   C46   A    
C27   C51   A    
C41   C58   A    
C26   C50   A    
C71   C111  A    
C72   H24   S    
C79   C87   A    
C66   C74   A    
C99   H35   S    
C46   C61   A    
C21   O33   S    
C34   C42   A    
C45   C62   A    
O1    V3    S    
C79   H31   S    
C97   H33   S    
C30   C38   A    
O3    C2    A    
O2    V4    S    
N1    C17   A    
C82   C90   A    
C92   Cl4   S    
C16   N8    A    
C54   C62   A    
C27   C35   A    
C21   C29   A    
C26   C34   A    
C78   H30   S    
C68   H20   S    
O11   V2    S    
C76   H28   S    
C10   N2    A    
C104  C112  A    
C55   C63   A    
C104  H40   S    
C67   C75   A    
C3    C86   S    
C56   H8    S    
C11   N3    A    
C65   C73   A    
C100  C108  A    
O9    V1    S    
C7    C82   S    
C81   C89   A    
N4    C20   A    
O15   C7    A    
N7    C23   A    
C93   C101  A    
C49   C57   A    
O16   C8    A    
O7    V2    S    
C59   H11   S    
C57   H9    S    
O12   C4    A    
C58   H10   S    
C100  H36   S    
O3    V4    S    
C101  H37   S    
C19   O31   S    
C11   O23   S    
C89   C97   A    
C80   C88   A    
C19   C27   A    
O5    V1    S    
C62   H14   S    
O17   V1    S    
O10   C2    A    
C86   C94   A    
C78   C86   A    
C72   C112  A    
N8    C111  S    
O19   V3    S    
C35   C36   A    
C76   C84   A    
C51   H3    S    
O20   V4    S    
C77   C85   A    
C50   H2    S    
C54   H6    S    
C33   C41   A    
C25   C33   A    
C96   C104  A    
N6    C109  S    
C17   O29   S    
C14   C46   A    
C89   Cl1   S    
N5    C110  S    
C13   C45   A    
C103  C111  A    
C39   C47   A    
C40   C48   A    
C23   C31   A    
N3    C108  S    
C22   O34   S    
C68   C76   A    
N2    C105  S    
C55   H7    S    
N1    C106  S    
C70   H22   S    
C74   C82   A    
O10   V2    S    
C52   C60   A    
C53   C61   A    
C74   H26   S    
O11   C3    A    
N6    C22   A    
C16   C48   A    
O8    C5    A    
C18   C26   A    
C69   C77   A    
C12   O24   S    
O9    C1    A    
C48   C63   A    
C53   H5    S    
C20   O32   S    
C31   C39   A    
C29   C53   A    
C43   C60   A    
N2    C18   A    
C88   C96   A    
O4    C1    A    
O1    C4    A    
C9    C41   A    
O6    V2    S    
C10   C42   A    
O18   V2    S    
C96   Cl8   S    
O14   C6    A    
C25   C49   A    
N7    C112  S    
C12   N4    A    
C23   O35   S    
C35   C43   A    
C13   N5    A    
C66   H18   S    
C83   C91   A    
C30   C54   A    
C95   C103  A    
C29   C37   A    
N8    C24   A    
C84   C92   A    
N4    C107  S    
C69   C109  A    
C70   C110  A    
C31   C55   A    
O2    C3    A    
O13   V3    S    
C67   C107  A    
C11   C43   A    
O14   V4    S    
C66   C106  A    
C1    C88   S    
C103  H39   S    
C65   C105  A    
C2    C87   S    
C15   O27   S    
C75   H27   S    
C36   C44   A    
O7    C6    A    
C51   C59   A    
C69   H21   S    
C50   C58   A    
C9    N1    A    
C39   C40   A    
C91   C99   A    
C60   H12   S    
C73   H25   S    
C47   C64   A    
C14   O26   S    
C75   C83   A    
O13   C5    A    
C14   N6    A    
C13   O25   S    
C6    C83   S    
C28   C52   A    
C92   C100  A    
C24   C32   A    
O5    C8    A    
C73   C81   A    
N3    C19   A    
C71   C79   A    
O6    C7    A    
O20   V2    S    
C71   H23   S    
C10   O22   S    
C24   O36   S    
C87   C95   A    
C9    O21   S    
C32   C40   A    
C91   Cl3   S    
C37   C38   A    
C61   H13   S    
C90   Cl2   S    
O4    V3    S    
C67   H19   S    
C44   C59   A    
N5    C21   A    
C98   H34   S    
C63   H15   S    
C12   C44   A    
C65   H17   S    
C28   C36   A    
C52   H4    S    
C33   C34   A    
C49   H1    S    
C18   O30   S    
C22   C30   A    
C93   Cl5   S    
C102  H38   S    
C77   H29   S    
C72   C80   A    
C85   C93   A    
C32   C56   A    
C68   C108  A    
C15   C47   A    
C94   Cl6   S    
C5    C84   S    
C70   C78   A    
