data_mof_unit_pretest_1199.cif
_audit_creation_date              2013-03-05T15:47:09-0500
_audit_creation_method            fapswitch 2.2
_symmetry_space_group_name_H-M    P1
_symmetry_Int_Tables_number       1
_space_group_crystal_system       triclinic
_cell_length_a                    10.296941
_cell_length_b                    10.803169
_cell_length_c                    13.659198
_cell_angle_alpha                 93.475233
_cell_angle_beta                  100.261336
_cell_angle_gamma                 96.081097
_cell_volume                      1481.81364551

loop_
_atom_site_label
_atom_site_type_symbol
_atom_site_description
_atom_site_fract_x
_atom_site_fract_y
_atom_site_fract_z
_atom_type_partial_charge
O1    O     O_R   0.935190 0.693030 0.507870 -0.593766
O2    O     O_R   0.064810 0.306970 0.492130 -0.602062
O3    O     O_R   0.142080 0.658430 0.482770 -0.568681
O4    O     O_R   0.857920 0.341570 0.517230 -0.574729
C1    C     C_R   0.054146 0.732430 0.496451 0.927813
C2    C     C_R   0.948279 0.268231 0.508920 0.935697
O5    O     O_R   0.969700 0.527180 0.651960 -0.615071
O6    O     O_R   0.030300 0.472820 0.348040 -0.597223
O7    O     O_R   0.176600 0.492580 0.626860 -0.595836
O8    O     O_R   0.823400 0.507420 0.373140 -0.579946
C3    C     C_R   0.092467 0.511371 0.685455 0.860645
C4    C     C_R   0.907294 0.487730 0.314522 0.872193
Zn1   Zn    Zn3+2 0.861850 0.523100 0.516760 1.085177
Zn2   Zn    Zn3+2 0.138150 0.476900 0.483240 1.083268
C5    C     C_R   0.139819 0.514063 0.792635 -0.063275
C6    C     C_R   0.856693 0.474857 0.207463 -0.068097
C7    C     C_R   0.131872 0.582700 0.962464 -0.189941
C8    C     C_R   0.852510 0.379435 0.042639 -0.191431
C9    C     C_R   0.072249 0.566456 0.862022 -0.178355
C10   C     C_R   0.918796 0.410297 0.140579 -0.179137
C11   C     C_R   0.260397 0.468754 0.824656 -0.192113
C12   C     C_R   0.734489 0.516441 0.174559 -0.195709
C13   C     C_R   0.325149 0.488345 0.923993 0.094779
C14   C     C_R   0.660425 0.476920 0.079963 0.100968
C15   C     C_R   0.260163 0.549288 0.992985 0.140237
C16   C     C_R   0.722055 0.408152 0.013038 0.152749
C17   C     C_R   0.456272 0.457402 0.954454 0.066299
C18   C     C_R   0.525897 0.499868 0.051863 0.048819
C19   C     C_R   0.457441 0.560734 0.118661 -0.120803
C20   C     C_R   0.520567 0.386968 0.890397 -0.134555
C21   C     C_R   0.326058 0.581473 0.090316 -0.175606
C22   C     C_R   0.651381 0.364569 0.918929 -0.196836
H1    H     H_    0.277651 0.627958 0.143970 0.166889
H2    H     H_    0.696485 0.310119 0.867655 0.162532
H3    H     H_    0.697481 0.575455 0.226774 0.163097
H4    H     H_    0.305752 0.425477 0.768710 0.179562
H5    H     H_    0.015251 0.379484 0.164826 0.199438
H6    H     H_    0.976763 0.599408 0.838304 0.186618
H7    H     H_    0.080875 0.627270 0.015310 0.155500
H8    H     H_    0.900270 0.327443 0.991676 0.156793
H9    H     H_    0.501128 0.593343 0.194400 0.188566
H10   H     H_    0.471955 0.344063 0.818188 0.164153
H11   H     H_    0.125456 0.110938 0.526632 0.215937
H12   H     H_    0.909075 0.898928 0.550659 0.238777
C23   C     C_2   0.088785 0.865866 0.503270 -0.313691
C24   C     C_2   0.923032 0.137354 0.522757 -0.314998
C25   C     C_2   0.002435 0.937700 0.531794 -0.129331
C26   C     C_2   0.025120 0.070001 0.529547 -0.158819
H13   H     H_    0.822983 0.095857 0.525662 0.203539
H14   H     H_    0.181801 0.905235 0.484168 0.192249
N1    N     N_2   0.322180 0.446120 0.460900 -0.053609
N2    N     N_2   0.677820 0.553880 0.539100 -0.053704
C27   C     C_2   0.432739 0.499672 0.518888 0.290980
C28   C     C_2   0.571099 0.473848 0.505701 0.299752
N3    N     N_R   0.586566 0.349359 0.470781 0.210217
O9    O     O_R   0.535809 0.255024 0.512108 -0.391850
O10   O     O_R   0.625412 0.329293 0.386322 -0.316961
N4    N     N_R   0.424697 0.575008 0.607329 0.209110
O11   O     O_R   0.494761 0.553787 0.692427 -0.420703
O12   O     O_R   0.375423 0.680614 0.599694 -0.315644
N5    N     N_R   0.659486 0.678804 0.554916 0.299924
O13   O     O_R   0.734300 0.746413 0.630094 -0.345841
O14   O     O_R   0.592257 0.734385 0.484063 -0.372947
N6    N     N_R   0.329851 0.387839 0.368777 0.295894
O15   O     O_R   0.240935 0.294990 0.330470 -0.337857
O16   O     O_R   0.399230 0.444458 0.310318 -0.409045

loop_
_geom_bond_atom_site_label_1
_geom_bond_atom_site_label_2
_geom_bond_distance
_ccdc_geom_bond_type
C15   C21   1.386118 A    
C25   C26   1.426698 S    
C20   C22   1.385011 A    
O7    Zn2   1.924224 S    
C21   H1    1.084576 S    
C16   C22   1.387230 A    
C12   H3    1.074023 S    
C9    H6    1.083070 S    
C13   C17   1.421315 A    
Zn1   N2    2.030201 S    
H11   C26   1.088371 S    
Zn2   N1    2.030201 S    
C8    C16   1.405037 A    
H12   C25   1.087209 S    
O6    C4    1.298213 A    
C6    C10   1.398353 A    
C7    C15   1.404343 A    
N6    O15   1.299727 A    
O3    C1    1.299767 A    
N3    O9    1.300926 A    
C11   C13   1.394063 A    
C3    C5    1.455810 S    
C19   C21   1.385066 A    
C11   H4    1.072729 S    
C27   C28   1.519720 S    
C17   C20   1.419594 A    
O5    C3    1.298332 A    
C10   H5    1.083111 S    
O7    C3    1.302639 A    
C24   H13   1.087532 S    
N6    O16   1.300755 A    
O2    C2    1.292594 A    
O3    Zn2   1.957649 S    
O8    C4    1.302792 A    
C23   H14   1.087425 S    
C27   N4    1.435029 S    
C12   C14   1.395168 A    
C18   C19   1.419974 A    
C7    C9    1.392080 A    
N2    C28   1.317385 D    
C8    C10   1.392509 A    
N2    N5    1.391704 S    
N3    O10   1.300128 A    
N5    O13   1.299766 A    
O2    Zn2   1.929018 S    
O1    C1    1.292857 A    
C5    C11   1.390562 A    
O1    Zn1   1.929018 S    
C6    C12   1.389221 A    
N4    O12   1.299284 A    
C24   C26   1.333621 D    
C14   C18   1.422146 A    
O5    Zn1   1.973498 S    
C13   C15   1.418492 A    
O4    C2    1.299700 A    
C7    H7    1.084018 S    
C23   C25   1.333256 D    
C17   C18   1.418180 A    
N5    O14   1.302383 A    
C8    H8    1.083979 S    
C28   N3    1.433960 S    
C20   H10   1.075983 S    
O6    Zn2   1.973498 S    
C2    C24   1.440275 S    
C19   H9    1.073847 S    
N4    O11   1.301038 A    
C5    C9    1.398589 A    
C1    C23   1.441131 S    
N1    N6    1.391380 S    
C4    C6    1.455272 S    
O4    Zn1   1.957649 S    
C14   C16   1.419342 A    
N1    C27   1.319741 D    
O8    Zn1   1.924223 S    
C22   H2    1.084464 S    
