data_mof_unit_pretest_1369.cif
_audit_creation_date              2012-12-11T14:15:35-0500
_audit_creation_method            fapswitch 2.2
_symmetry_space_group_name_H-M    P1
_symmetry_Int_Tables_number       1
_space_group_crystal_system       triclinic
_cell_length_a                    11.16869
_cell_length_b                    12.720973
_cell_length_c                    23.531123
_cell_angle_alpha                 90.499428
_cell_angle_beta                  96.901543
_cell_angle_gamma                 68.552771
_cell_volume                      3086.92758339

loop_
_atom_site_label
_atom_site_type_symbol
_atom_type_description
_atom_site_fract_x
_atom_site_fract_y
_atom_site_fract_z
_atom_type_partial_charge
C1    C     C_R   0.149433 0.616934 0.428946 0.543831
C2    C     C_R   0.662691 0.557701 0.310580 -0.127978
C3    C     C_R   0.709634 0.729975 0.318529 -0.103474
C4    C     C_R   0.701058 0.739245 0.258857 0.078684
C5    C     C_R   0.682191 0.651447 0.226260 0.018247
C6    C     C_R   0.678794 0.655004 0.167666 -0.135577
C7    C     C_R   0.690880 0.841193 0.170504 -0.119065
C8    C     C_R   0.711591 0.832744 0.230721 0.090809
C9    C     C_1   0.236314 0.161505 0.123144 0.006842
C10   C     C_2   0.181156 0.228876 0.227111 -0.061135
C11   C     C_2   0.156592 0.160612 0.263721 0.105651
C12   C     C_R   0.749326 0.604199 0.404026 0.542479
C13   C     C_1   0.132983 0.196420 0.321285 -0.047384
C14   C     C_1   0.210950 0.195186 0.170008 -0.005918
C15   C     C_1   0.116230 0.230983 0.368763 -0.012609
C16   C     C_1   0.168567 0.747660 0.123304 -0.013651
C17   C     C_2   0.150235 0.674973 0.226342 0.097274
C18   C     C_2   0.230100 0.685199 0.271951 -0.068247
C19   C     C_1   0.215607 0.656821 0.329590 -0.010056
C20   C     C_1   0.158940 0.714213 0.169834 -0.048881
C21   C     C_1   0.193535 0.636440 0.376453 0.004966
C22   C     C_1   0.625177 0.758254 0.864400 -0.015475
C23   C     C_R   0.101083 0.282306 0.423402 0.548123
C24   C     C_2   0.693665 0.720197 0.759870 0.098590
C25   C     C_2   0.615040 0.693288 0.719355 -0.063477
C26   C     C_1   0.651205 0.665149 0.662626 -0.003535
C27   C     C_1   0.658696 0.741521 0.817243 -0.051174
C28   C     C_1   0.689829 0.638615 0.616921 0.007380
C29   C     C_R   0.194396 0.180762 0.854886 0.015427
C30   C     C_R   0.105547 0.239483 0.642937 0.022569
C31   C     C_R   0.037767 0.143017 0.712968 -0.130761
C32   C     C_R   0.037907 0.171252 0.655937 -0.133398
C33   C     C_R   0.166800 0.284460 0.686410 -0.112365
C34   C     C_R   0.151654 0.617050 0.590189 0.544079
C35   C     C_R   0.166464 0.257718 0.742967 0.044422
C36   C     C_R   0.103824 0.184445 0.756549 0.044800
C37   C     C_R   0.115532 0.148549 0.813099 -0.124524
C38   C     C_R   0.248023 0.259957 0.841920 -0.129157
C39   C     C_R   0.232700 0.299545 0.785940 -0.132952
C40   C     C_R   0.136574 0.759792 0.847496 0.010366
C41   C     C_R   0.200554 0.639863 0.647199 0.008142
C42   C     C_R   0.311483 0.565220 0.741257 -0.152576
C43   C     C_R   0.297943 0.554488 0.682056 -0.145847
C44   C     C_R   0.126773 0.740089 0.671025 -0.109978
C45   C     C_R   0.749444 0.602315 0.565819 0.544507
C46   C     C_R   0.131352 0.746655 0.729633 0.055997
C47   C     C_R   0.223627 0.658425 0.765421 0.043604
C48   C     C_R   0.225812 0.665557 0.824494 -0.127650
C49   C     C_R   0.039376 0.842459 0.811139 -0.145202
C50   C     C_R   0.038999 0.837307 0.752555 -0.147555
C51   C     C_R   0.265924 0.109895 0.069434 0.542626
C52   C     C_R   0.600699 0.774648 0.081084 0.547752
C53   C     C_R   0.189952 0.787652 0.069813 0.550675
C54   C     C_R   0.240547 0.115203 0.908029 0.542760
C55   C     C_R   0.573160 0.776738 0.918045 0.547400
C56   C     C_R   0.099728 0.280018 0.585363 0.540002
C57   C     C_R   0.165362 0.788418 0.906083 0.542803
C58   C     C_R   0.668963 0.754118 0.139232 -0.019768
C59   C     C_R   0.696585 0.636316 0.344411 -0.004204
C60   C     C_R   0.659267 0.563456 0.251964 -0.139457
Cr1   Cr    Cr6+3 0.189770 0.415650 0.511620 1.028984
Cr2   Cr    Cr6+3 0.930400 0.667320 0.496770 1.029362
Cr3   Cr    Cr6+3 0.879870 0.417010 0.491650 1.029818
Cr4   Cr    Cr6+3 0.149500 0.973980 0.985330 1.027456
Cr5   Cr    Cr6+3 0.457000 0.976510 0.994660 1.028748
Cr6   Cr    Cr6+3 0.411170 0.724270 0.995270 1.020935
H1    H     H_    0.524786 0.688084 0.729323 0.106099
H2    H     H_    0.074489 0.086904 0.823450 0.123097
H3    H     H_    0.308013 0.285712 0.874426 0.123281
H4    H     H_    0.279280 0.356951 0.775784 0.105851
H5    H     H_    0.986391 0.139862 0.622203 0.115061
H6    H     H_    0.214048 0.341616 0.676197 0.127290
H7    H     H_    0.300734 0.601199 0.852334 0.120582
H8    H     H_    0.685032 0.917587 0.148401 0.132746
H9    H     H_    0.969103 0.915842 0.827821 0.134509
H10   H     H_    0.965732 0.903635 0.725172 0.099867
H11   H     H_    0.053970 0.808161 0.644316 0.131065
H12   H     H_    0.639840 0.498379 0.226762 0.113060
H13   H     H_    0.649779 0.485843 0.329503 0.145302
H14   H     H_    0.181396 0.310826 0.240429 0.101601
H15   H     H_    0.302889 0.720957 0.266476 0.104436
O1    O     O_R   0.196340 0.303200 0.448500 -0.503455
O2    O     O_R   0.811960 0.658090 0.547150 -0.489477
O3    O     O_R   0.757930 0.506140 0.547110 -0.509333
O4    O     O_R   0.988670 0.321620 0.556040 -0.497093
O5    O     O_3   0.000020 0.499990 0.500010 -0.247986
O6    O     O_R   0.113660 0.883270 0.047820 -0.502333
O7    O     O_R   0.186930 0.068530 0.043990 -0.491199
O8    O     O_R   0.377770 0.089040 0.054220 -0.513056
O9    O     O_R   0.562800 0.872960 0.056970 -0.499130
O10   O     O_R   0.555390 0.700940 0.062700 -0.519950
O11   O     O_R   0.295020 0.731920 0.049950 -0.495548
O12   O     O_R   0.199310 0.519670 0.454880 -0.493144
O13   O     O_R   0.094290 0.884230 0.921550 -0.523045
O14   O     O_R   0.168980 0.069410 0.926940 -0.507705
O15   O     O_R   0.358400 0.089990 0.927950 -0.513019
O16   O     O_R   0.544850 0.873850 0.939920 -0.491438
O17   O     O_R   0.536020 0.701900 0.936430 -0.511868
O18   O     O_R   0.277070 0.732810 0.932890 -0.504586
O19   O     O_3   0.339220 0.891590 0.991750 -0.246643
O20   O     O_R   0.045660 0.691380 0.441680 -0.510191
O21   O     O_R   0.811930 0.659460 0.430950 -0.504245
O22   O     O_R   0.757900 0.507620 0.421760 -0.517652
O23   O     O_R   0.988630 0.322990 0.439840 -0.495359
O24   O     O_R   0.196380 0.301720 0.573850 -0.520967
O25   O     O_R   0.199350 0.518300 0.571080 -0.505904
O26   O     O_R   0.045700 0.689900 0.567030 -0.518425
H16   H     H_    0.666081 0.585505 0.143925 0.139408
N1    N     N_3   0.054524 0.627154 0.233212 -0.612323
H17   H     H_    0.964203 0.686166 0.216643 0.238969
H18   H     H_    0.072889 0.556255 0.207972 0.227661
N2    N     N_3   0.812065 0.728231 0.746741 -0.604382
H19   H     H_    0.888110 0.673910 0.775345 0.241790
H20   H     H_    0.806043 0.810829 0.754602 0.232418
H21   H     H_    0.987974 0.088076 0.722970 0.101471
H22   H     H_    0.384694 0.497960 0.768118 0.102873
H23   H     H_    0.357285 0.476926 0.664112 0.128593
N3    N     N_3   0.735303 0.921095 0.263047 -0.636108
H24   H     H_    0.729922 0.987395 0.235658 0.230181
H25   H     H_    0.830928 0.887646 0.283037 0.232369
H26   H     H_    0.732844 0.791739 0.344963 0.155528
N4    N     N_3   0.156627 0.051968 0.246791 -0.606553
H27   H     H_    0.226198 0.990781 0.275008 0.233139
H28   H     H_    0.066113 0.049373 0.252057 0.230787

loop_
_geom_bond_atom_site_label_1
_geom_bond_atom_site_label_2
_ccdc_geom_bond_type
Cr2   O2    S    
C1    C21   S    
C23   O1    A    
C6    C58   A    
C52   O9    A    
C35   C36   A    
C9    C51   S    
C24   C27   S    
C4    C8    A    
C18   H15   S    
N2    H20   S    
C8    N3    S    
C7    C8    A    
Cr5   O8    S    
Cr2   O5    S    
C60   H12   S    
C34   O26   A    
C36   C37   A    
C19   C21   T    
Cr1   O1    S    
N1    H18   S    
C5    C6    A    
Cr1   O12   S    
C29   C54   S    
C40   C49   A    
C57   O18   A    
C37   H2    S    
C17   C20   S    
C18   C19   S    
Cr6   O19   S    
N3    H24   S    
C2    H13   S    
C33   H6    S    
C16   C53   S    
C12   C59   S    
Cr5   O15   S    
C47   C48   A    
C25   H1    S    
C29   C38   A    
C49   H9    S    
C7    H8    S    
Cr1   O24   S    
Cr4   O6    S    
C54   O15   A    
C5    C60   A    
Cr2   O20   S    
C15   C23   S    
C38   H3    S    
Cr3   O4    S    
C41   C43   A    
C45   O2    A    
C34   C41   S    
C31   H21   S    
N2    H19   S    
C44   C46   A    
C32   H5    S    
Cr5   O9    S    
C56   O24   A    
C28   C45   S    
C34   O25   A    
C24   C25   D    
Cr5   O19   S    
C12   O22   A    
Cr3   O22   S    
C10   C14   S    
C10   H14   S    
C2    C59   A    
Cr3   O23   S    
Cr6   O11   S    
Cr2   O26   S    
C25   C26   S    
C30   C56   S    
Cr6   O18   S    
C35   C39   A    
C9    C14   T    
C12   O21   A    
C50   H10   S    
C23   O23   A    
C16   C20   T    
C55   O16   A    
C53   O11   A    
C17   C18   D    
C53   O6    A    
Cr1   O25   S    
C54   O14   A    
C22   C55   S    
C52   C58   S    
C43   H23   S    
C42   H22   S    
C22   C27   T    
C13   C15   T    
Cr3   O5    S    
C41   C44   A    
C11   N4    S    
C42   C43   A    
N4    H28   S    
C3    C4    A    
C1    O20   A    
C40   C48   A    
C46   C47   A    
C44   H11   S    
C40   C57   S    
C7    C58   A    
C30   C33   A    
C48   H7    S    
C31   C32   A    
Cr4   O14   S    
C4    C5    A    
C17   N1    S    
C51   O7    A    
Cr6   O10   S    
C46   C50   A    
C26   C28   T    
Cr3   O3    S    
C57   O13   A    
C10   C11   D    
Cr6   O17   S    
Cr5   O16   S    
N1    H17   S    
C51   O8    A    
C30   C32   A    
C11   C13   S    
C56   O4    A    
C38   C39   A    
C55   O17   A    
C33   C35   A    
C39   H4    S    
C2    C60   A    
C42   C47   A    
N3    H25   S    
C24   N2    S    
Cr1   O5    S    
Cr4   O13   S    
C45   O3    A    
Cr4   O19   S    
C1    O12   A    
C49   C50   A    
C29   C37   A    
C6    H16   S    
C31   C36   A    
C52   O10   A    
N4    H27   S    
Cr4   O7    S    
C3    H26   S    
Cr2   O21   S    
C3    C59   A    
