data_mof_unit_pretest_132.cif
_audit_creation_date              2012-12-11T16:39:21-0500
_audit_creation_method            fapswitch 2.2
_symmetry_space_group_name_H-M    P1
_symmetry_Int_Tables_number       1
_space_group_crystal_system       triclinic
_cell_length_a                    24.738492
_cell_length_b                    6.964858
_cell_length_c                    21.914826
_cell_angle_alpha                 89.905448
_cell_angle_beta                  99.012608
_cell_angle_gamma                 89.961276
_cell_volume                      3729.30162138

loop_
_atom_site_label
_atom_site_type_symbol
_atom_type_description
_atom_site_fract_x
_atom_site_fract_y
_atom_site_fract_z
_atom_type_partial_charge
O1    O     O_R   0.188680 0.380540 0.689820 -0.526385
O2    O     O_R   0.811320 0.619460 0.310180 -0.527405
O3    O     O_R   0.311320 0.880540 0.810180 -0.521864
O4    O     O_R   0.688680 0.119460 0.189820 -0.510741
O5    O     O_R   0.300940 0.707710 0.691860 -0.484592
O6    O     O_R   0.699060 0.292290 0.308140 -0.491246
O7    O     O_R   0.199060 0.207710 0.808140 -0.486730
O8    O     O_R   0.800940 0.792290 0.191860 -0.497979
C1    C     C_R   0.317607 0.541874 0.676575 0.846784
C2    C     C_R   0.682070 0.458008 0.323128 0.837955
C3    C     C_R   0.181974 0.041909 0.823020 0.856756
C4    C     C_R   0.817460 0.958272 0.176447 0.827662
O9    O     O_R   0.188460 0.710090 0.682560 -0.539739
O10   O     O_R   0.811540 0.289910 0.317440 -0.544711
O11   O     O_R   0.311540 0.210090 0.817440 -0.550648
O12   O     O_R   0.688460 0.789910 0.182560 -0.528894
O13   O     O_R   0.198040 0.882940 0.800810 -0.540539
O14   O     O_R   0.801960 0.117060 0.199190 -0.539765
O15   O     O_R   0.301960 0.382940 0.699190 -0.544344
O16   O     O_R   0.698040 0.617060 0.300810 -0.539595
C5    C     C_R   0.166943 0.541621 0.668129 0.774292
C6    C     C_R   0.832345 0.458628 0.332482 0.782320
C7    C     C_R   0.332507 0.041195 0.832233 0.777319
C8    C     C_R   0.666851 0.958747 0.168168 0.790898
O17   O     O_3   0.253280 0.547850 0.788810 -0.365671
O18   O     O_3   0.746720 0.452150 0.211190 -0.342877
O19   O     O_3   0.246720 0.047850 0.711190 -0.357609
O20   O     O_3   0.753280 0.952150 0.288810 -0.370874
V1    V     V_3+5 0.249390 0.821720 0.742800 1.708436
V2    V     V_3+5 0.750610 0.178280 0.257200 1.723561
V3    V     V_3+5 0.250610 0.321720 0.757200 1.689111
V4    V     V_3+5 0.749390 0.678280 0.242800 1.733439
C9    C     C_R   0.475501 0.915926 0.916516 -0.200988
C10   C     C_R   0.534592 0.137447 0.069165 -0.194446
C11   C     C_R   0.031679 0.373290 0.573676 -0.184562
C12   C     C_R   0.975938 0.575713 0.416192 -0.180888
H1    H     H_    0.511643 0.840342 0.907640 0.169000
H2    H     H_    0.508389 0.262381 0.066195 0.163492
H3    H     H_    0.003680 0.254345 0.573630 0.161888
H4    H     H_    0.012800 0.644128 0.406327 0.171102
C13   C     C_R   0.429802 0.925845 0.869338 0.386329
C14   C     C_R   0.578163 0.124659 0.118521 0.442105
C15   C     C_R   0.075763 0.386757 0.622470 0.358485
C16   C     C_R   0.930315 0.566037 0.368929 0.455579
C17   C     C_R   0.382600 0.029561 0.879363 -0.169085
C18   C     C_R   0.616160 0.970201 0.120884 -0.173499
C19   C     C_R   0.116135 0.531266 0.621197 -0.157141
C20   C     C_R   0.882224 0.470029 0.379884 -0.169682
C21   C     C_R   0.382855 0.120215 0.936411 -0.219164
C22   C     C_R   0.605098 0.823290 0.076680 -0.124260
C23   C     C_R   0.107441 0.668855 0.573666 -0.155854
C24   C     C_R   0.881234 0.388854 0.438215 -0.205711
H5    H     H_    0.347405 0.198771 0.945541 0.173730
H6    H     H_    0.631713 0.699604 0.078235 0.165334
H7    H     H_    0.136413 0.783857 0.571934 0.130510
H8    H     H_    0.844909 0.317722 0.448200 0.177019
C25   C     C_R   0.427823 0.105071 0.983428 -0.109112
C26   C     C_R   0.559512 0.832282 0.029938 -0.106415
C27   C     C_R   0.061514 0.660611 0.527424 -0.103437
C28   C     C_R   0.926065 0.404861 0.485396 -0.101508
H9    H     H_    0.424566 0.170365 0.027430 0.149743
H10   H     H_    0.552122 0.712766 0.998281 0.129044
H11   H     H_    0.056185 0.773802 0.493180 0.130481
H12   H     H_    0.921777 0.347505 0.530242 0.151231
C29   C     C_R   0.475226 0.004031 0.974280 0.047772
C30   C     C_R   0.523985 0.991456 0.024662 0.039701
C31   C     C_R   0.023315 0.510158 0.525774 0.053740
C32   C     C_R   0.974580 0.496857 0.475222 0.028324
C33   C     C_R   0.095133 0.160799 0.949279 -0.168417
C34   C     C_R   0.900201 0.839756 0.046720 -0.171706
C35   C     C_R   0.401965 0.661966 0.548300 -0.166167
C36   C     C_R   0.595758 0.337299 0.449793 -0.175761
H13   H     H_    0.092063 0.267524 0.984477 0.175539
H14   H     H_    0.901416 0.735499 0.010332 0.178561
H15   H     H_    0.404032 0.768119 0.512556 0.173888
H16   H     H_    0.592752 0.229810 0.484883 0.178638
C37   C     C_R   0.136533 0.175411 0.912179 0.451990
C38   C     C_R   0.858998 0.828957 0.084218 0.417747
C39   C     C_R   0.360744 0.674138 0.585703 0.456257
C40   C     C_R   0.637018 0.323253 0.412507 0.439722
C41   C     C_R   0.140115 0.034816 0.865589 -0.173085
C42   C     C_R   0.858065 0.965442 0.132549 -0.185293
C43   C     C_R   0.358648 0.534890 0.633156 -0.167030
C44   C     C_R   0.640499 0.464863 0.366044 -0.205744
C45   C     C_R   0.101318 0.885065 0.858411 -0.062373
C46   C     C_R   0.898137 0.110712 0.139999 -0.088877
C47   C     C_R   0.397954 0.386606 0.640150 -0.072990
C48   C     C_R   0.601707 0.614869 0.359140 -0.102847
H17   H     H_    0.101786 0.778662 0.822518 0.191505
H18   H     H_    0.898911 0.215536 0.176467 0.194823
H19   H     H_    0.398057 0.279798 0.676127 0.199160
H20   H     H_    0.602011 0.721773 0.323257 0.189748
C49   C     C_R   0.060770 0.872042 0.896325 -0.069527
C50   C     C_R   0.938357 0.120613 0.101622 -0.081369
C51   C     C_R   0.438242 0.375699 0.601872 -0.068104
C52   C     C_R   0.561296 0.627279 0.397231 -0.081414
H21   H     H_    0.031690 0.754820 0.889714 0.148195
H22   H     H_    0.968660 0.233932 0.108663 0.144807
H23   H     H_    0.467873 0.259961 0.608453 0.152478
H24   H     H_    0.532203 0.744689 0.390819 0.142007
C53   C     C_R   0.057543 0.009968 0.941932 0.023959
C54   C     C_R   0.939707 0.984536 0.055005 0.030833
C55   C     C_R   0.440501 0.513799 0.555920 0.023839
C56   C     C_R   0.558194 0.488433 0.442729 0.026668
C57   C     C_1   0.015783 0.999085 0.981509 0.024244
C58   C     C_1   0.981240 0.992851 0.015088 0.021516
C59   C     C_1   0.482056 0.504764 0.516068 0.023190
C60   C     C_1   0.516550 0.498661 0.482442 0.020438
S1    S     S_3+6 0.433621 0.807022 0.798667 0.005949
O21   O     O_2   0.407568 0.927741 0.745125 -0.325729
O22   O     O_2   0.492176 0.768693 0.791799 -0.307976
O23   O     O_3   0.400157 0.596815 0.797851 -0.513853
H25   H     H_    0.418924 0.525364 0.834233 0.322875
S2    S     S_3+6 0.578881 0.291527 0.179638 -0.025624
O24   O     O_2   0.622799 0.438450 0.176874 -0.350356
O25   O     O_2   0.524595 0.392653 0.174532 -0.340465
O26   O     O_3   0.591154 0.173012 0.247397 -0.516451
H26   H     H_    0.568049 0.236671 0.274424 0.352805
S3    S     S_3+6 0.075767 0.229117 0.686192 0.013720
O27   O     O_2   0.090437 0.339333 0.745358 -0.323141
O28   O     O_2   0.020183 0.140702 0.684890 -0.303651
O29   O     O_3   0.121627 0.052580 0.683632 -0.494970
H27   H     H_    0.127986 0.048948 0.640179 0.295695
S4    S     S_3+6 0.935185 0.676106 0.297052 -0.009766
O30   O     O_2   0.907887 0.869325 0.294910 -0.356275
O31   O     O_2   0.994216 0.702252 0.289986 -0.316231
O32   O     O_3   0.903986 0.540404 0.238623 -0.520978
H28   H     H_    0.912922 0.602301 0.200725 0.359763
S5    S     S_3+6 0.182759 0.370103 0.927081 0.007227
O33   O     O_2   0.170267 0.514711 0.875930 -0.345051
O34   O     O_2   0.177332 0.464973 0.987401 -0.314827
O35   O     O_3   0.247253 0.291449 0.930113 -0.529518
H29   H     H_    0.269161 0.409251 0.927312 0.348099
S6    S     S_3+6 0.808722 0.647734 0.066645 0.007904
O36   O     O_2   0.810410 0.566747 0.003410 -0.310192
O37   O     O_2   0.819677 0.488961 0.113432 -0.344832
O38   O     O_3   0.746229 0.739964 0.068422 -0.520686
H30   H     H_    0.720924 0.630868 0.057602 0.354691
S7    S     S_3+6 0.312296 0.862224 0.569497 0.011435
O39   O     O_2   0.324357 0.014186 0.618263 -0.335143
O40   O     O_2   0.315420 0.950159 0.507443 -0.316806
O41   O     O_3   0.248797 0.776959 0.569409 -0.526366
H31   H     H_    0.225349 0.892929 0.566428 0.344183
S8    S     S_3+6 0.683090 0.127589 0.426903 0.006348
O42   O     O_2   0.677829 0.031375 0.487154 -0.309699
O43   O     O_2   0.670282 0.984384 0.375566 -0.350238
O44   O     O_3   0.747602 0.205337 0.429701 -0.526785
H32   H     H_    0.769499 0.087337 0.427067 0.350682

loop_
_geom_bond_atom_site_label_1
_geom_bond_atom_site_label_2
_ccdc_geom_bond_type
C26   H10   S    
C39   S7    S    
C48   C52   A    
O1    C5    A    
C7    C17   S    
C47   H19   S    
C34   C38   A    
O13   V1    S    
C57   C58   T    
C33   C37   A    
O44   H32   S    
C10   C14   A    
C40   C44   A    
O15   V3    S    
C10   C30   A    
S6    O38   S    
C35   C39   A    
S2    O24   D    
C9    C29   A    
C3    C41   S    
O7    C3    A    
C26   C30   A    
C22   H6    S    
O9    V1    S    
S1    O22   D    
O4    C8    A    
S7    O41   S    
C51   H23   S    
O19   V1    S    
C50   H22   S    
O1    V3    S    
C21   C25   A    
O2    V4    S    
C14   C18   A    
O3    V1    S    
C34   H14   S    
C46   C50   A    
C27   C31   A    
O3    C7    A    
C1    O15   A    
C48   H20   S    
C51   C55   A    
O35   H29   S    
C40   S8    S    
C47   C51   A    
O2    C6    A    
C59   C60   T    
C33   H13   S    
O14   V2    S    
C37   C41   A    
C11   C15   A    
C36   H16   S    
S5    O35   S    
O11   C7    A    
O12   C8    A    
C13   S1    S    
C53   C57   S    
C45   C49   A    
O10   V2    S    
S8    O44   S    
O23   H25   S    
C14   S2    S    
O5    V1    S    
S3    O28   D    
O17   V1    S    
S7    O39   D    
O7    V3    S    
O19   V3    S    
C31   C32   S    
O8    V4    S    
C12   H4    S    
S8    O43   D    
C46   H18   S    
S1    O23   S    
C49   C53   A    
C45   H17   S    
O18   V4    S    
C19   C23   A    
C36   C56   A    
C42   C46   A    
C16   S4    S    
C9    H1    S    
C22   C26   A    
C11   H3    S    
O5    C1    A    
C38   C42   A    
S2    O25   D    
O20   V4    S    
O8    C4    A    
C12   C32   A    
C17   C21   A    
C4    C42   S    
C37   S5    S    
O11   V3    S    
C38   S6    S    
C28   C32   A    
C1    C43   S    
S4    O32   S    
O6    V2    S    
C6    C20   S    
O18   V2    S    
C52   C56   A    
C12   C16   A    
C23   C27   A    
O32   H28   S    
C49   H21   S    
C56   C60   S    
S4    O31   D    
S5    O33   D    
O16   V4    S    
S3    O29   S    
C35   C55   A    
C3    O13   A    
C10   H2    S    
O17   V3    S    
C44   C48   A    
C25   C29   A    
S8    O42   D    
C43   C47   A    
O6    C2    A    
S6    O37   D    
S3    O27   D    
C34   C54   A    
C25   H9    S    
S6    O36   D    
C33   C53   A    
O12   V4    S    
O38   H30   S    
C18   C22   A    
C27   H11   S    
C28   H12   S    
C9    C13   A    
O10   C6    A    
O20   V2    S    
C8    C18   S    
C36   C40   A    
S1    O21   D    
O9    C5    A    
C35   H15   S    
S7    O40   D    
C2    O16   A    
C21   H5    S    
C52   H24   S    
C2    C44   S    
C54   C58   S    
C23   H7    S    
O4    V2    S    
S2    O26   S    
C11   C31   A    
C39   C43   A    
C16   C20   A    
C20   C24   A    
C50   C54   A    
C24   C28   A    
C29   C30   S    
C4    O14   A    
C13   C17   A    
O41   H31   S    
C55   C59   S    
S5    O34   D    
O29   H27   S    
O26   H26   S    
C15   C19   A    
C41   C45   A    
C24   H8    S    
C15   S3    S    
S4    O30   D    
C5    C19   S    
