data_mof_unit_pretest_1880.cif
_audit_creation_date              2012-12-10T18:10:24-0500
_audit_creation_method            fapswitch 2.2
_symmetry_space_group_name_H-M    P1
_symmetry_Int_Tables_number       1
_space_group_crystal_system       triclinic
_cell_length_a                    18.382122
_cell_length_b                    18.38224
_cell_length_c                    38.935657
_cell_angle_alpha                 90.018869
_cell_angle_beta                  89.995657
_cell_angle_gamma                 90.006436
_cell_volume                      13156.5359257

loop_
_atom_site_label
_atom_site_type_symbol
_atom_type_description
_atom_site_fract_x
_atom_site_fract_y
_atom_site_fract_z
_atom_type_partial_charge
C1    C     C_R   0.500003 0.139780 0.499997 0.842539
C2    C     C_R   0.860220 0.499997 0.500002 0.841246
C3    C     C_R   0.499997 0.860219 0.500004 0.842441
C4    C     C_R   0.139780 0.500003 0.500004 0.844263
C5    C     C_R   0.000003 0.639780 0.999995 0.844855
C6    C     C_R   0.360220 0.999997 0.999999 0.842959
C7    C     C_R   0.999997 0.360220 0.000003 0.843588
C8    C     C_R   0.639780 0.000003 0.000001 0.842868
C9    C     C_R   0.500018 0.000092 0.215207 0.395862
C10   C     C_R   0.999903 0.499426 0.215241 0.408782
C11   C     C_R   0.499990 0.999955 0.784884 0.467464
C12   C     C_R   0.000021 0.500026 0.784879 0.402042
C13   C     C_R   0.000026 0.500038 0.715200 0.402541
C14   C     C_R   0.499983 0.999965 0.715203 0.396652
C15   C     C_R   0.998832 0.497659 0.284874 0.455102
C16   C     C_R   0.500015 0.000080 0.284888 0.467044
C17   C     C_R   0.500002 0.000004 0.433774 0.812321
C18   C     C_R   0.999835 0.499968 0.433751 0.806669
C19   C     C_R   0.499997 0.999999 0.566223 0.802719
C20   C     C_R   0.000003 0.500010 0.566211 0.803326
C21   C     C_R   0.000002 0.500000 0.933774 0.806497
C22   C     C_R   0.500002 0.999989 0.933773 0.812853
C23   C     C_R   0.999993 0.499898 0.066248 0.803203
C24   C     C_R   0.500000 0.000011 0.066224 0.803165
C25   C     C_1   0.500009 0.217207 0.499990 -0.151937
C26   C     C_1   0.782794 0.499992 0.500001 -0.151838
C27   C     C_1   0.499991 0.782793 0.500010 -0.152181
C28   C     C_1   0.217206 0.500007 0.500007 -0.151396
C29   C     C_1   0.000008 0.717206 0.999988 -0.149792
C30   C     C_1   0.282793 0.999991 0.999998 -0.152041
C31   C     C_1   0.999992 0.282793 0.000010 -0.151905
C32   C     C_1   0.717207 0.000009 0.000003 -0.152020
C33   C     C_1   0.500007 0.282429 0.499988 -0.157162
C34   C     C_1   0.717571 0.499994 0.499999 -0.157139
C35   C     C_1   0.499993 0.717571 0.500012 -0.157397
C36   C     C_1   0.282429 0.500005 0.500005 -0.156914
C37   C     C_1   0.000006 0.782429 0.999987 -0.153939
C38   C     C_1   0.217571 0.999993 0.999997 -0.156435
C39   C     C_1   0.999994 0.217571 0.000012 -0.155926
C40   C     C_1   0.782429 0.000008 0.000003 -0.156456
C41   C     C_R   0.451715 0.045689 0.377270 -0.097557
C42   C     C_R   0.952582 0.451929 0.377455 -0.069914
C43   C     C_R   0.548305 0.954380 0.377244 -0.097536
C44   C     C_R   0.045533 0.546844 0.376859 -0.095070
C45   C     C_R   0.452911 0.953188 0.622726 -0.074030
C46   C     C_R   0.949460 0.543011 0.622683 -0.067685
C47   C     C_R   0.547071 0.046786 0.622745 -0.074047
C48   C     C_R   0.050587 0.457066 0.622666 -0.067711
C49   C     C_R   0.953504 0.547352 0.877270 -0.066587
C50   C     C_R   0.454432 0.951583 0.877251 -0.097402
C51   C     C_R   0.046518 0.452669 0.877251 -0.066575
C52   C     C_R   0.545588 0.048338 0.877256 -0.097406
C53   C     C_R   0.953245 0.452325 0.122784 -0.067143
C54   C     C_R   0.453287 0.047193 0.122744 -0.073815
C55   C     C_R   0.046766 0.546554 0.122888 -0.069993
C56   C     C_R   0.546739 0.952908 0.122735 -0.074217
C57   C     C_R   0.451527 0.045575 0.341010 0.180530
C58   C     C_R   0.952626 0.450532 0.341282 0.176980
C59   C     C_R   0.548501 0.954533 0.340983 0.180568
C60   C     C_R   0.045479 0.545762 0.340567 0.198378
C61   C     C_R   0.452872 0.952906 0.658940 0.199443
C62   C     C_R   0.948133 0.541939 0.658917 0.201776
C63   C     C_R   0.547105 0.047048 0.658958 0.199451
C64   C     C_R   0.051923 0.458146 0.658899 0.201840
C65   C     C_R   0.952093 0.546349 0.841050 0.200452
C66   C     C_R   0.454567 0.951380 0.840990 0.180007
C67   C     C_R   0.047938 0.453685 0.841031 0.200435
C68   C     C_R   0.545445 0.048526 0.840995 0.180005
C69   C     C_R   0.953572 0.451516 0.159038 0.198646
C70   C     C_R   0.453026 0.047254 0.158957 0.199167
C71   C     C_R   0.046671 0.546783 0.159065 0.196658
C72   C     C_R   0.547012 0.952889 0.158948 0.198735
C73   C     C_R   0.500015 0.000063 0.322894 -0.027356
C74   C     C_R   0.999475 0.497236 0.322806 -0.055024
C75   C     C_R   0.499987 0.999973 0.677183 -0.080670
C76   C     C_R   0.000029 0.500043 0.677159 -0.092062
C77   C     C_R   0.000018 0.500020 0.822844 -0.089902
C78   C     C_R   0.500001 0.999952 0.822891 -0.027325
C79   C     C_R   0.999472 0.499822 0.177268 -0.084430
C80   C     C_R   0.500020 0.000080 0.177186 -0.080158
C81   C     C_R   0.359867 0.500001 0.500001 0.844917
C82   C     C_R   0.500002 0.359867 0.499995 0.845035
C83   C     C_R   0.640133 0.499998 0.499999 0.844988
C84   C     C_R   0.499998 0.640133 0.500005 0.844934
C85   C     C_R   0.859867 0.000003 0.000001 0.843802
C86   C     C_R   0.000002 0.859867 0.999995 0.843966
C87   C     C_R   0.140133 0.999998 0.999999 0.843818
C88   C     C_R   0.999998 0.140133 0.000005 0.843658
C89   C     C_R   0.500007 0.000023 0.395591 -0.184576
C90   C     C_R   0.999249 0.499715 0.395530 -0.205703
C91   C     C_R   0.499992 0.999992 0.604398 -0.225069
C92   C     C_R   0.000019 0.500032 0.604376 -0.222599
C93   C     C_R   0.000008 0.500007 0.895588 -0.225550
C94   C     C_R   0.500009 0.999967 0.895588 -0.184672
C95   C     C_R   0.000016 0.499556 0.104469 -0.225662
C96   C     C_R   0.500008 0.000037 0.104401 -0.225078
Cu1   Cu    Cu3+1 0.572410 0.000000 0.500000 1.011415
Cu2   Cu    Cu3+1 0.000000 0.572410 0.500000 1.010551
Cu3   Cu    Cu3+1 0.427590 0.000000 0.500000 1.010922
Cu4   Cu    Cu3+1 0.000000 0.427590 0.500000 1.009756
Cu5   Cu    Cu3+1 0.072410 0.500000 0.000000 1.004038
Cu6   Cu    Cu3+1 0.500000 0.072410 0.000000 1.009417
Cu7   Cu    Cu3+1 0.927590 0.500000 0.000000 1.007619
Cu8   Cu    Cu3+1 0.500000 0.927590 0.000000 1.009588
Cu9   Cu    Cu3+1 0.500000 0.500000 0.465910 0.983390
Cu10  Cu    Cu3+1 0.500000 0.500000 0.534090 0.981697
Cu11  Cu    Cu3+1 1.000000 0.000000 0.965910 0.990958
Cu12  Cu    Cu3+1 0.000000 1.000000 0.034090 0.985725
N1    N     N_R   0.563277 0.006391 0.267151 -0.213607
N2    N     N_R   0.976917 0.557720 0.267450 -0.206399
N3    N     N_R   0.436755 0.993778 0.267152 -0.213953
N4    N     N_R   0.021796 0.438722 0.266896 -0.263035
N5    N     N_R   0.493422 0.063176 0.732961 -0.233511
N6    N     N_R   0.060040 0.520919 0.732954 -0.239585
N7    N     N_R   0.506546 0.936749 0.732936 -0.233515
N8    N     N_R   0.940009 0.479151 0.732948 -0.239542
N9    N     N_R   0.060072 0.520858 0.767165 -0.238809
N10   N     N_R   0.493580 0.063207 0.767159 -0.214540
N11   N     N_R   0.939973 0.479200 0.767160 -0.238792
N12   N     N_R   0.506394 0.936708 0.767135 -0.214536
N13   N     N_R   0.977113 0.558455 0.233231 -0.245252
N14   N     N_R   0.563243 0.006552 0.232952 -0.233280
N15   N     N_R   0.022214 0.439574 0.232692 -0.241337
N16   N     N_R   0.436792 0.993629 0.232953 -0.233041
O1    O     O_R   0.561130 0.105710 0.500120 -0.575229
O2    O     O_R   0.894290 0.561130 0.500120 -0.574779
O3    O     O_R   0.438870 0.894290 0.500120 -0.575444
O4    O     O_R   0.105710 0.438870 0.500120 -0.574318
O5    O     O_R   0.561130 0.894290 0.499880 -0.573749
O6    O     O_R   0.894290 0.438870 0.499880 -0.575083
O7    O     O_R   0.438870 0.105710 0.499880 -0.573770
O8    O     O_R   0.105710 0.561130 0.499880 -0.574291
O9    O     O_R   0.061130 0.605710 0.000120 -0.575394
O10   O     O_R   0.394290 0.061130 0.000120 -0.575562
O11   O     O_R   0.938870 0.394290 0.000120 -0.574927
O12   O     O_R   0.605710 0.938870 0.000120 -0.575396
O13   O     O_R   0.061130 0.394290 0.999880 -0.575077
O14   O     O_R   0.394290 0.938870 0.999880 -0.573932
O15   O     O_R   0.938870 0.605710 0.999880 -0.574394
O16   O     O_R   0.605710 0.061130 0.999880 -0.573987
O17   O     O_R   0.561130 0.999920 0.450200 -0.574646
O18   O     O_R   0.000080 0.561130 0.450200 -0.572541
O19   O     O_R   0.438870 0.000080 0.450200 -0.574959
O20   O     O_R   0.999920 0.438870 0.450200 -0.577888
O21   O     O_R   0.561130 0.000080 0.549800 -0.575667
O22   O     O_R   0.000080 0.438870 0.549800 -0.575055
O23   O     O_R   0.438870 0.999920 0.549800 -0.575681
O24   O     O_R   0.999920 0.561130 0.549800 -0.575314
O25   O     O_R   0.061130 0.499920 0.950200 -0.577029
O26   O     O_R   0.500080 0.061130 0.950200 -0.575082
O27   O     O_R   0.938870 0.500080 0.950200 -0.576954
O28   O     O_R   0.499920 0.938870 0.950200 -0.575080
O29   O     O_R   0.061130 0.500080 0.049800 -0.577484
O30   O     O_R   0.500080 0.938870 0.049800 -0.575845
O31   O     O_R   0.938870 0.499920 0.049800 -0.574367
O32   O     O_R   0.499920 0.061130 0.049800 -0.575855
O33   O     O_R   0.394020 0.499870 0.471240 -0.581963
O34   O     O_R   0.500130 0.394020 0.471240 -0.581784
O35   O     O_R   0.605980 0.500130 0.471240 -0.582186
O36   O     O_R   0.499870 0.605980 0.471240 -0.581973
O37   O     O_R   0.394020 0.500130 0.528760 -0.582503
O38   O     O_R   0.500130 0.605980 0.528760 -0.582614
O39   O     O_R   0.605980 0.499870 0.528760 -0.582362
O40   O     O_R   0.499870 0.394020 0.528760 -0.582636
O41   O     O_R   0.894020 0.999870 0.971240 -0.581004
O42   O     O_R   0.000130 0.894020 0.971240 -0.580601
O43   O     O_R   0.105980 0.000130 0.971240 -0.581079
O44   O     O_R   0.999870 0.105980 0.971240 -0.579975
O45   O     O_R   0.894020 0.000130 0.028760 -0.582586
O46   O     O_R   0.000130 0.105980 0.028760 -0.583512
O47   O     O_R   0.105980 0.999870 0.028760 -0.582305
O48   O     O_R   0.999870 0.894020 0.028760 -0.581055
C97   C     C_1   0.404955 0.096142 0.395483 0.262517
N17   N     N_1   0.367682 0.136510 0.410006 -0.269950
C98   C     C_1   0.902485 0.405029 0.395784 0.320416
N18   N     N_1   0.862397 0.367625 0.410396 -0.266758
C99   C     C_1   0.595065 0.903911 0.395428 0.262605
N19   N     N_1   0.632337 0.863530 0.409929 -0.269927
C100  C     C_1   0.096368 0.593706 0.394754 0.262263
N20   N     N_1   0.137046 0.631070 0.409030 -0.270330
C101  C     C_1   0.404491 0.904220 0.604568 0.320262
N21   N     N_1   0.365877 0.865052 0.590092 -0.270724
C102  C     C_1   0.897949 0.588391 0.604373 0.308602
N22   N     N_1   0.856797 0.624586 0.589747 -0.269237
C103  C     C_1   0.595495 0.095761 0.604605 0.320246
N23   N     N_1   0.634112 0.134936 0.590144 -0.270597
C104  C     C_1   0.102097 0.411682 0.604338 0.308496
N24   N     N_1   0.143250 0.375485 0.589699 -0.269274
C105  C     C_1   0.909790 0.600511 0.895450 0.309149
N25   N     N_1   0.874948 0.643011 0.909961 -0.269925
C106  C     C_1   0.404042 0.904736 0.895445 0.262157
N26   N     N_1   0.363724 0.867394 0.909952 -0.270714
C107  C     C_1   0.090230 0.399506 0.895409 0.309343
N27   N     N_1   0.125071 0.357003 0.909904 -0.269991
C108  C     C_1   0.595988 0.095188 0.895454 0.262184
N28   N     N_1   0.636312 0.132533 0.909964 -0.270619
C109  C     C_1   0.904471 0.403899 0.104530 0.312745
N29   N     N_1   0.865552 0.365185 0.089963 -0.268839
C110  C     C_1   0.404385 0.095670 0.104602 0.319798
N30   N     N_1   0.365268 0.134330 0.090139 -0.271983
C111  C     C_1   0.093118 0.597706 0.104905 0.319408
N31   N     N_1   0.130111 0.638607 0.090566 -0.267188
C112  C     C_1   0.595642 0.904415 0.104584 0.319877
N32   N     N_1   0.634758 0.865743 0.090113 -0.270200
N33   N     N_2   0.403627 0.092351 0.322452 -0.414463
H1    H     H_    0.352679 0.098271 0.333181 0.264782
C113  C     C_3   0.435549 0.161028 0.312363 -0.649372
H2    H     H_    0.396159 0.191862 0.296391 0.230120
H3    H     H_    0.485554 0.151996 0.296919 0.234020
H4    H     H_    0.449166 0.193888 0.335449 0.224883
N34   N     N_2   0.903626 0.403085 0.323796 -0.424889
H5    H     H_    0.925833 0.375303 0.303357 0.272221
C114  C     C_3   0.833878 0.435295 0.315807 -0.653906
H6    H     H_    0.840653 0.480368 0.297065 0.226460
H7    H     H_    0.807621 0.456429 0.339500 0.237515
H8    H     H_    0.797689 0.393414 0.304387 0.231714
N35   N     N_2   0.596405 0.907776 0.322399 -0.414182
H9    H     H_    0.647352 0.901848 0.333123 0.265140
C115  C     C_3   0.564486 0.839109 0.312275 -0.649358
H10   H     H_    0.603879 0.808292 0.296284 0.230874
H11   H     H_    0.514483 0.848154 0.296838 0.233711
H12   H     H_    0.550869 0.806225 0.335344 0.224614
N36   N     N_2   0.091886 0.593255 0.321566 -0.415563
H13   H     H_    0.097883 0.644455 0.332021 0.264080
C116  C     C_3   0.160507 0.561253 0.311446 -0.651411
H14   H     H_    0.191003 0.600274 0.295124 0.229287
H15   H     H_    0.151437 0.510795 0.296345 0.240136
H16   H     H_    0.193728 0.548396 0.334505 0.224248
N37   N     N_2   0.402302 0.907628 0.676792 -0.424832
H17   H     H_    0.379617 0.928677 0.698885 0.263991
C117  C     C_3   0.419864 0.830848 0.678526 -0.614520
H18   H     H_    0.436445 0.816134 0.705056 0.236878
H19   H     H_    0.464714 0.816015 0.660665 0.222251
H20   H     H_    0.370973 0.798658 0.671567 0.232983
N38   N     N_2   0.896759 0.586402 0.676756 -0.421472
H21   H     H_    0.914922 0.608162 0.699608 0.263020
C118  C     C_3   0.824136 0.556288 0.679169 -0.628895
H22   H     H_    0.824604 0.505111 0.694282 0.238339
H23   H     H_    0.801642 0.544885 0.653275 0.230292
H24   H     H_    0.787762 0.595966 0.692108 0.226165
N39   N     N_2   0.597675 0.092316 0.676827 -0.424826
H25   H     H_    0.620356 0.071255 0.698910 0.263995
C119  C     C_3   0.580115 0.169096 0.678594 -0.614493
H26   H     H_    0.563540 0.183799 0.705132 0.236877
H27   H     H_    0.535264 0.183939 0.660744 0.222243
H28   H     H_    0.629007 0.201287 0.671643 0.232998
N40   N     N_2   0.103293 0.413677 0.676720 -0.421454
H29   H     H_    0.085129 0.391911 0.699565 0.263014
C120  C     C_3   0.175919 0.443778 0.679136 -0.628905
H30   H     H_    0.175463 0.494894 0.694312 0.238353
H31   H     H_    0.198388 0.455291 0.653243 0.230213
H32   H     H_    0.212307 0.404039 0.692011 0.226207
N41   N     N_2   0.905046 0.595253 0.823171 -0.424181
H33   H     H_    0.924906 0.614775 0.800188 0.261998
C121  C     C_3   0.829993 0.571873 0.820966 -0.627484
H34   H     H_    0.825712 0.520972 0.805740 0.237461
H35   H     H_    0.797176 0.614771 0.808209 0.226204
H36   H     H_    0.807011 0.562414 0.846951 0.233524
N42   N     N_2   0.407886 0.903379 0.822416 -0.415669
H37   H     H_    0.402054 0.852423 0.833138 0.263900
C122  C     C_3   0.339155 0.935158 0.812316 -0.646116
H38   H     H_    0.308401 0.895700 0.796331 0.230612
H39   H     H_    0.348103 0.985177 0.796881 0.234020
H40   H     H_    0.306258 0.948712 0.835396 0.225510
N43   N     N_2   0.094989 0.404787 0.823132 -0.424163
H41   H     H_    0.075135 0.385271 0.800143 0.262013
C123  C     C_3   0.170042 0.428170 0.820934 -0.627624
H42   H     H_    0.174326 0.479070 0.805725 0.237470
H43   H     H_    0.202863 0.385279 0.808162 0.226222
H44   H     H_    0.193019 0.437628 0.846920 0.233488
N44   N     N_2   0.592125 0.096518 0.822427 -0.415671
H45   H     H_    0.597966 0.147477 0.833160 0.263906
C124  C     C_3   0.660847 0.064729 0.812306 -0.646093
H46   H     H_    0.691599 0.104180 0.796327 0.230614
H47   H     H_    0.651887 0.014708 0.796860 0.234018
H48   H     H_    0.693752 0.051175 0.835377 0.225516
N45   N     N_2   0.905060 0.404055 0.176931 -0.423134
H49   H     H_    0.884781 0.424292 0.199702 0.261214
C125  C     C_3   0.929622 0.329461 0.179802 -0.630128
H50   H     H_    0.980204 0.326444 0.195302 0.238935
H51   H     H_    0.940131 0.305708 0.154069 0.230696
H52   H     H_    0.886948 0.296361 0.192575 0.227587
N46   N     N_2   0.407848 0.097906 0.176824 -0.426143
H53   H     H_    0.428950 0.120569 0.198910 0.263418
C126  C     C_3   0.331036 0.080470 0.178580 -0.612381
H54   H     H_    0.316300 0.063949 0.205117 0.237653
H55   H     H_    0.316115 0.035621 0.160731 0.222990
H56   H     H_    0.298934 0.129403 0.171621 0.232399
N47   N     N_2   0.095505 0.593958 0.176822 -0.425167
H57   H     H_    0.073298 0.621404 0.197355 0.277251
C127  C     C_3   0.165350 0.561765 0.184612 -0.643993
H58   H     H_    0.158719 0.516161 0.203078 0.228689
H59   H     H_    0.201406 0.603440 0.196290 0.229927
H60   H     H_    0.191639 0.541396 0.160777 0.237479
N48   N     N_2   0.592205 0.902265 0.176804 -0.426014
H61   H     H_    0.571110 0.879614 0.198889 0.263601
C128  C     C_3   0.669011 0.919726 0.178556 -0.610406
H62   H     H_    0.683745 0.936276 0.205093 0.237535
H63   H     H_    0.683918 0.964562 0.160710 0.222082
H64   H     H_    0.701128 0.870795 0.171589 0.233928

loop_
_geom_bond_atom_site_label_1
_geom_bond_atom_site_label_2
_ccdc_geom_bond_type
C121  H35   S    
C23   O31   A    
C53   C95   A    
C128  H63   S    
C127  H58   S    
C53   C69   A    
C42   C58   A    
C22   O26   A    
C20   C92   S    
C43   C89   A    
C46   C62   A    
Cu3   O19   S    
C24   C96   S    
C67   N43   S    
Cu4   O6    S    
N44   H45   S    
C63   N39   S    
C124  H48   S    
C30   C38   T    
Cu1   Cu3   S    
C87   O43   A    
N36   H13   S    
C88   O44   A    
C65   N41   S    
C113  H4    S    
C59   C73   A    
C45   C61   A    
C110  N30   T    
Cu5   Cu7   S    
C81   O37   A    
C44   C100  S    
C24   O30   A    
C16   N1    A    
C114  H7    S    
Cu11  O43   S    
C65   C77   A    
C106  N26   T    
C17   C89   S    
Cu4   O20   S    
C7    O13   A    
Cu5   O13   S    
C27   C35   T    
C114  H6    S    
C85   O45   A    
C102  N22   T    
N37   H17   S    
C98   N18   T    
C54   C70   A    
C87   O47   A    
C2    C26   S    
Cu10  O39   S    
C50   C106  S    
C6    C30   S    
C23   O29   A    
C20   O22   A    
N41   C121  S    
Cu3   O23   S    
N3    N16   A    
C3    O5    A    
Cu1   O21   S    
N42   C122  S    
C35   C84   S    
Cu5   O9    S    
C8    O16   A    
C85   O41   A    
Cu8   O28   S    
C53   C109  S    
C126  H55   S    
C82   O40   A    
C1    O7    A    
C23   C95   S    
C117  H20   S    
C125  H51   S    
C12   N9    A    
C107  N27   T    
C49   C93   A    
C55   C71   A    
C70   N46   S    
C16   N3    A    
C41   C89   A    
Cu11  O41   S    
Cu12  O46   S    
C123  H43   S    
C67   C77   A    
C116  H16   S    
C71   C79   A    
N48   C128  S    
Cu9   O35   S    
C58   N34   S    
C5    O9    A    
C120  H30   S    
C21   C93   S    
C86   O48   A    
C127  H59   S    
N2    N13   A    
C122  H38   S    
C82   O34   A    
C123  H44   S    
Cu9   O36   S    
C55   C111  S    
N39   H25   S    
Cu10  O37   S    
C57   C73   A    
Cu11  Cu12  S    
C20   O24   A    
C21   O25   A    
C43   C59   A    
N45   H49   S    
Cu2   O18   S    
C22   C94   S    
C11   N12   A    
C5    O15   A    
N33   C113  S    
C37   C86   S    
C51   C107  S    
C50   C94   A    
C56   C72   A    
N35   H9    S    
C54   C110  S    
C108  N28   T    
C42   C90   A    
C14   N7    A    
C12   N11   A    
C36   C81   S    
C125  H50   S    
C119  H28   S    
C12   C77   S    
N47   H57   S    
C51   C67   A    
N43   C123  S    
C51   C93   A    
Cu12  O48   S    
C69   C79   A    
C60   N36   S    
Cu6   O32   S    
C58   C74   A    
C41   C97   S    
C120  H32   S    
C62   N38   S    
Cu8   O12   S    
Cu4   O4    S    
C15   N4    A    
C122  H40   S    
C123  H42   S    
N36   C116  S    
N45   C125  S    
C72   C80   A    
C115  H12   S    
C63   C75   A    
C124  H47   S    
C21   O27   A    
C109  N29   T    
N6    N9    A    
C24   O32   A    
C48   C92   A    
C118  H24   S    
Cu2   O8    S    
N46   H53   S    
C31   C39   T    
C11   N10   A    
N42   H37   S    
C25   C33   T    
C8    O12   A    
C86   O42   A    
C84   O36   A    
C45   C101  S    
C56   C112  S    
C101  N21   T    
C47   C63   A    
C48   C64   A    
C46   C92   A    
C119  H26   S    
C17   O17   A    
C128  H62   S    
Cu9   O33   S    
C61   N37   S    
N38   H21   S    
Cu10  O40   S    
C47   C103  S    
C33   C82   S    
C13   N6    A    
Cu7   O27   S    
C121  H36   S    
C15   N2    A    
C62   C76   A    
C52   C108  S    
C39   C88   S    
N40   C120  S    
C68   C78   A    
C66   C78   A    
C81   O33   A    
C4    O4    A    
C70   C80   A    
C113  H2    S    
C18   C90   S    
C88   O46   A    
C48   C104  S    
Cu1   O1    S    
C10   N15   A    
N48   H61   S    
Cu3   O3    S    
C97   N17   T    
C19   O23   A    
C40   C85   S    
C126  H54   S    
N34   H5    S    
C9    N14   A    
C117  H19   S    
Cu6   O16   S    
Cu1   O17   S    
N4    N15   A    
Cu7   O31   S    
Cu2   Cu4   S    
C59   N35   S    
C115  H10   S    
C84   O38   A    
C114  H8    S    
C56   C96   A    
C83   O39   A    
Cu11  O44   S    
C43   C99   S    
C47   C91   A    
C10   C79   S    
C14   N5    A    
Cu9   Cu10  S    
C38   C87   S    
C17   O19   A    
C14   C75   S    
C18   O20   A    
C41   C57   A    
C104  N24   T    
N37   C117  S    
C4    O8    A    
C103  N23   T    
N41   H33   S    
Cu2   O24   S    
C44   C60   A    
C3    C27   S    
C2    O6    A    
Cu10  O38   S    
C105  N25   T    
C45   C91   A    
C72   N48   S    
C13   N8    A    
C19   C91   S    
C100  N20   T    
Cu2   O2    S    
C15   C74   S    
C28   C36   T    
C99   N19   T    
C29   C37   T    
Cu8   O30   S    
C112  N32   T    
N46   C126  S    
C111  N31   T    
C10   N13   A    
N33   H1    S    
C61   C75   A    
C19   O21   A    
C49   C65   A    
C1    O1    A    
C126  H56   S    
C42   C98   S    
C3    O3    A    
N1    N14   A    
C49   C105  S    
C57   N33   S    
C9    N16   A    
C125  H52   S    
C60   C74   A    
Cu7   O11   S    
C116  H15   S    
C26   C34   T    
Cu9   O34   S    
Cu4   O22   S    
C119  H27   S    
C52   C94   A    
N43   H41   S    
C54   C96   A    
C52   C68   A    
Cu11  O42   S    
Cu12  O45   S    
C1    C25   S    
N38   C118  S    
C4    C28   S    
C5    C29   S    
C22   O28   A    
C120  H31   S    
C7    C31   S    
C16   C73   S    
C8    C32   S    
C18   O18   A    
C127  H60   S    
C55   C95   A    
C66   N42   S    
C122  H39   S    
N39   C119  S    
C9    C80   S    
C46   C102  S    
C6    O14   A    
Cu6   O10   S    
C7    O11   A    
C11   C78   S    
Cu7   O15   S    
C115  H11   S    
C13   C76   S    
Cu5   O29   S    
C69   N45   S    
C116  H14   S    
C64   C76   A    
Cu6   Cu8   S    
C50   C66   A    
C2    O2    A    
N34   C114  S    
Cu6   O26   S    
C118  H23   S    
C128  H64   S    
C34   C83   S    
C121  H34   S    
C44   C90   A    
C113  H3    S    
N44   C124  S    
N40   H29   S    
N35   C115  S    
N8    N11   A    
Cu3   O7    S    
Cu1   O5    S    
C6    O10   A    
C68   N44   S    
C64   N40   S    
Cu5   O25   S    
N47   C127  S    
Cu8   O14   S    
C32   C40   T    
N5    N10   A    
C83   O35   A    
N7    N12   A    
Cu12  O47   S    
C117  H18   S    
C71   N47   S    
C118  H22   S    
C124  H46   S    
