data_mof_unit_pretest_1598.cif
_audit_creation_date              2012-10-26T21:17:33-0400
_audit_creation_method            fapswitch 2.2
_symmetry_space_group_name_H-M    P1
_symmetry_Int_Tables_number       1
_space_group_crystal_system       triclinic
_cell_length_a                    17.749196
_cell_length_b                    16.445327
_cell_length_c                    11.723216
_cell_angle_alpha                 90.000015
_cell_angle_beta                  90.207111
_cell_angle_gamma                 90.0
_cell_volume                      3421.88277976

loop_
_atom_site_label
_atom_site_type_symbol
_atom_type_description
_atom_site_fract_x
_atom_site_fract_y
_atom_site_fract_z
_atom_type_partial_charge
C1    C     C_R   0.355259 0.500000 0.499879 0.556486
C2    C     C_R   0.114493 0.500000 0.499659 0.042065
C3    C     C_1   0.966222 0.500000 0.500113 0.157081
C4    C     C_1   0.033778 0.500000 0.499887 0.157081
C5    C     C_R   0.499961 0.500000 0.283551 0.558360
C6    C     C_R   0.500039 0.500000 0.716449 0.558361
C7    C     C_R   0.549200 0.828899 0.570703 -0.121068
C8    C     C_R   0.450800 0.171100 0.429297 -0.121068
C9    C     C_R   0.450800 0.828899 0.429296 -0.121067
C10   C     C_R   0.549199 0.171101 0.570704 -0.121067
C11   C     C_R   0.548327 0.743069 0.569456 0.058911
C12   C     C_R   0.644741 0.500000 0.500121 0.556486
C13   C     C_R   0.451673 0.256931 0.430544 0.058911
C14   C     C_R   0.451673 0.743069 0.430544 0.058911
C15   C     C_R   0.548327 0.256931 0.569456 0.058911
C16   C     C_1   0.500000 0.962699 0.500000 0.002564
C17   C     C_1   0.500000 0.037301 0.500000 0.002564
C18   C     C_1   0.499952 0.500000 0.162089 -0.004602
C19   C     C_1   0.500048 0.500000 0.837911 -0.004602
C20   C     C_1   0.499976 0.500000 0.059789 -0.019203
C21   C     C_1   0.500024 0.500000 0.940211 -0.019203
C22   C     C_R   0.500000 0.873070 0.500000 0.025684
C23   C     C_R   0.767428 0.573724 0.500398 -0.103533
C24   C     C_R   0.500000 0.126930 0.500000 0.025684
C25   C     C_R   0.845994 0.574020 0.500405 0.215010
C26   C     C_R   0.154006 0.425980 0.499595 0.215010
C27   C     C_R   0.154006 0.574020 0.499595 0.215010
C28   C     C_R   0.845994 0.425980 0.500405 0.215010
C29   C     C_R   0.232572 0.426275 0.499602 -0.103533
C30   C     C_R   0.232572 0.573724 0.499602 -0.103533
C31   C     C_R   0.767428 0.426275 0.500398 -0.103533
C32   C     C_R   0.727582 0.500000 0.500303 -0.070086
C33   C     C_R   0.272418 0.500000 0.499697 -0.070086
C34   C     C_R   0.885507 0.500000 0.500341 0.042065
Cl1   Cl    Cl    0.893237 0.668241 0.500428 -0.474233
Cl2   Cl    Cl    0.106763 0.331759 0.499572 -0.474233
Cl3   Cl    Cl    0.106763 0.668241 0.499571 -0.474233
Cl4   Cl    Cl    0.893237 0.331759 0.500429 -0.474233
Cu1   Cu    Cu3+1 0.500000 0.580420 0.500000 0.967978
Cu2   Cu    Cu3+1 0.500000 0.419580 0.500000 0.967978
H1    H     H_    0.588086 0.860464 0.626612 0.121485
H2    H     H_    0.262328 0.368755 0.499568 0.172076
H3    H     H_    0.262327 0.631245 0.499569 0.172076
H4    H     H_    0.737672 0.368755 0.500431 0.172077
H5    H     H_    0.411914 0.139536 0.373388 0.121485
H6    H     H_    0.411914 0.860463 0.373388 0.121485
H7    H     H_    0.588086 0.139537 0.626612 0.121485
H8    H     H_    0.586575 0.709971 0.624435 0.132033
H9    H     H_    0.413425 0.290029 0.375565 0.132033
H10   H     H_    0.413425 0.709970 0.375565 0.132033
H11   H     H_    0.586575 0.290029 0.624435 0.132033
H12   H     H_    0.737672 0.631245 0.500432 0.172076
N1    N     N_R   0.500000 0.701220 0.500000 -0.222617
N2    N     N_R   0.500000 0.298780 0.500000 -0.222617
O1    O     O_R   0.391260 0.567930 0.500000 -0.503212
O2    O     O_R   0.608740 0.432070 0.500000 -0.503212
O3    O     O_R   0.608740 0.567930 0.500000 -0.503212
O4    O     O_R   0.391260 0.432070 0.500000 -0.503212
O5    O     O_R   0.500010 0.567910 0.337200 -0.494325
O6    O     O_R   0.499990 0.432090 0.662800 -0.494325
O7    O     O_R   0.499990 0.567910 0.662800 -0.494325
O8    O     O_R   0.500010 0.432090 0.337200 -0.494325

loop_
_geom_bond_atom_site_label_1
_geom_bond_atom_site_label_2
_ccdc_geom_bond_type
C2    C4    S    
C9    C14   A    
C8    C13   A    
Cu2   O6    S    
C15   H11   S    
C29   H2    S    
C7    C22   A    
C18   C20   T    
C31   C32   A    
C3    C34   S    
C28   Cl4   S    
C25   C34   A    
C2    C27   A    
Cu1   O5    S    
C23   C32   A    
C7    H1    S    
C11   H8    S    
C1    C33   S    
C9    H6    S    
C2    C26   A    
C12   O2    A    
C1    O4    A    
C12   C32   S    
C27   C30   A    
C7    C11   A    
C6    C19   S    
C8    C24   A    
C23   H12   S    
Cu1   N1    S    
C25   Cl1   S    
C13   H9    S    
C12   O3    A    
C6    O7    A    
C26   Cl2   S    
C19   C21   T    
C27   Cl3   S    
C5    O8    A    
C13   N2    A    
Cu2   N2    S    
C10   C15   A    
C23   C25   A    
C1    O1    A    
Cu1   O7    S    
C30   H3    S    
C17   C24   S    
Cu2   O4    S    
C31   H4    S    
C14   H10   S    
C28   C34   A    
C3    C4    T    
Cu1   O3    S    
C15   N2    A    
C6    O6    A    
C10   H7    S    
C14   N1    A    
Cu2   O8    S    
C20   C21   S    
C26   C29   A    
C9    C22   A    
Cu1   Cu2   S    
C5    O5    A    
C8    H5    S    
C16   C22   S    
C5    C18   S    
C30   C33   A    
C10   C24   A    
C28   C31   A    
Cu1   O1    S    
C29   C33   A    
C16   C17   T    
Cu2   O2    S    
C11   N1    A    
