data_mof_unit_pretest_1141.cif
_audit_creation_date              2012-12-11T17:06:32-0500
_audit_creation_method            fapswitch 2.2
_symmetry_space_group_name_H-M    P1
_symmetry_Int_Tables_number       1
_space_group_crystal_system       triclinic
_cell_length_a                    6.985341
_cell_length_b                    14.594208
_cell_length_c                    15.913635
_cell_angle_alpha                 90.530756
_cell_angle_beta                  89.873215
_cell_angle_gamma                 89.856253
_cell_volume                      1622.24501943

loop_
_atom_site_label
_atom_site_type_symbol
_atom_type_description
_atom_site_fract_x
_atom_site_fract_y
_atom_site_fract_z
_atom_type_partial_charge
O1    O     O_R   0.494400 0.415450 0.412630 -0.540499
O2    O     O_R   0.823940 0.405730 0.586760 -0.497902
O3    O     O_R   0.994240 0.584550 0.587370 -0.521562
C1    C     C_R   0.655291 0.383484 0.615206 0.752878
O4    O     O_R   0.824110 0.404430 0.413240 -0.531923
O5    O     O_R   0.994420 0.583240 0.412620 -0.542542
C2    C     C_R   0.655572 0.382424 0.384295 0.712944
O6    O     O_R   0.494230 0.416760 0.587380 -0.551539
O7    O     O_3   0.660800 0.558670 0.500000 -0.391423
V1    V     V_3+5 0.935650 0.489120 0.500000 1.531991
O8    O     O_R   0.324140 0.594270 0.413240 -0.555261
C3    C     C_R   0.154982 0.618762 0.386638 0.687416
O9    O     O_R   0.323960 0.595570 0.586760 -0.546922
C4    C     C_R   0.154145 0.618324 0.614883 0.717327
V2    V     V_3+5 0.435660 0.510880 0.500000 1.434340
O10   O     O_3   0.160640 0.441330 0.500000 -0.354260
C5    C     C_3   0.991486 0.693899 0.754518 0.500134
C6    C     C_3   0.151226 0.710577 0.819659 -0.320297
C7    C     C_3   0.123816 0.814530 0.806752 -0.144333
C8    C     C_3   0.967018 0.796948 0.741258 0.473233
C9    C     C_3   0.115267 0.794458 0.669048 -0.313081
C10   C     C_3   0.275107 0.813505 0.735157 -0.129824
C11   C     C_3   0.301201 0.708775 0.747315 -0.131045
C12   C     C_3   0.140245 0.690343 0.683024 -0.129720
H1    H     H_    0.439771 0.672281 0.745494 0.178371
C13   C     C_R   0.273849 0.746317 0.186658 -0.004128
C14   C     C_R   0.117877 0.806572 0.176182 -0.137239
C15   C     C_R   0.965742 0.798681 0.234310 -0.106221
H2    H     H_    0.841584 0.842431 0.229066 0.137138
C16   C     C_R   0.977999 0.738811 0.303366 -0.160957
H3    H     H_    0.862719 0.736101 0.347878 0.136338
C17   C     C_R   0.144553 0.687864 0.318667 -0.102350
C18   C     C_R   0.292668 0.697601 0.260996 -0.003531
C19   C     C_3   0.495684 0.727118 0.272459 0.248800
C20   C     C_3   0.485343 0.762546 0.182703 0.256030
H4    H     H_    0.598804 0.669839 0.281755 0.087728
H5    H     H_    0.530081 0.835217 0.174886 0.101336
C21   C     C_R   0.490491 0.254192 0.689510 -0.160099
C22   C     C_R   0.647845 0.313237 0.682113 -0.196539
C23   C     C_R   0.790782 0.308907 0.744867 0.527434
C24   C     C_R   0.781765 0.241200 0.807898 -0.262240
H6    H     H_    0.893466 0.236920 0.854031 0.132175
C25   C     C_R   0.620695 0.185521 0.816822 -0.120545
C26   C     C_R   0.470732 0.199033 0.760802 -0.070756
C27   C     C_3   0.273951 0.235236 0.779885 0.282985
C28   C     C_3   0.285408 0.283706 0.695898 0.396944
C29   C     C_R   0.504685 0.319461 0.252724 0.007913
C30   C     C_R   0.648152 0.315604 0.313868 -0.180815
C31   C     C_R   0.791194 0.248335 0.303594 -0.217564
C32   C     C_R   0.777607 0.180419 0.239820 0.449463
C33   C     C_R   0.624790 0.182372 0.181107 -0.172782
C34   C     C_R   0.493553 0.254787 0.187868 -0.073521
C35   C     C_3   0.280002 0.252043 0.190581 -0.411077
C36   C     C_3   0.290240 0.321914 0.262177 0.364064
H7    H     H_    0.227481 0.184090 0.210725 0.198835
H8    H     H_    0.243114 0.293089 0.323230 0.077206
O11   O     O_R   0.771650 0.079500 0.908680 -0.544567
O12   O     O_R   0.441690 0.091800 0.082800 -0.543107
O13   O     O_R   0.271460 0.912980 0.083410 -0.546249
C37   C     C_R   0.610547 0.113123 0.112468 0.736969
O14   O     O_R   0.441930 0.090510 0.909280 -0.551988
O15   O     O_R   0.271690 0.911670 0.908660 -0.538888
C38   C     C_R   0.610827 0.114513 0.882553 0.696805
O16   O     O_R   0.771410 0.080810 0.083440 -0.509748
O17   O     O_3   0.605100 0.937580 0.996050 -0.384054
V3    V     V_3+5 0.330220 0.007110 0.996030 1.381345
O18   O     O_R   0.941980 0.900620 0.909250 -0.532747
C39   C     C_R   0.111129 0.881536 0.878561 0.702947
O19   O     O_R   0.941740 0.901920 0.082770 -0.540993
C40   C     C_R   0.110840 0.877886 0.109881 0.704549
V4    V     V_3+5 0.830220 0.985300 0.996000 1.416438
O20   O     O_3   0.105210 0.054870 0.996020 -0.378319
H9    H     H_    0.169703 0.676318 0.881112 0.118869
O21   O     O_3   0.514998 0.803655 0.327611 -0.576029
C41   C     C_3   0.516584 0.777431 0.412645 -0.240013
H10   H     H_    0.594770 0.830419 0.449226 0.142754
H11   H     H_    0.590842 0.711298 0.423397 0.150151
H12   H     H_    0.368422 0.775483 0.437720 0.142507
O22   O     O_3   0.576400 0.698689 0.128284 -0.570040
C42   C     C_3   0.568216 0.728255 0.044505 -0.226582
H13   H     H_    0.688091 0.775748 0.031988 0.175931
H14   H     H_    0.428276 0.759571 0.027664 0.136560
H15   H     H_    0.587402 0.667524 0.003113 0.134735
O23   O     O_3   0.934045 0.373888 0.746447 -0.548452
C43   C     C_3   0.910491 0.430309 0.818047 -0.181165
H16   H     H_    0.763691 0.459651 0.820723 0.139466
H17   H     H_    0.015573 0.486942 0.814625 0.186115
H18   H     H_    0.939840 0.392868 0.876950 0.133157
O24   O     O_3   0.273795 0.303582 0.844178 -0.565087
C44   C     C_3   0.249817 0.266790 0.925029 -0.211113
H19   H     H_    0.164418 0.203005 0.925761 0.152088
H20   H     H_    0.172853 0.317739 0.964740 0.123679
H21   H     H_    0.391512 0.256178 0.954668 0.145951
H22   H     H_    0.160964 0.181929 0.783672 0.057049
H23   H     H_    0.272796 0.359468 0.701806 0.146352
O25   O     O_3   0.156120 0.249665 0.633593 -0.541024
C45   C     C_3   0.203715 0.162080 0.600844 -0.262665
H24   H     H_    0.217569 0.110114 0.651038 0.110792
H25   H     H_    0.336138 0.165142 0.562151 0.144180
H26   H     H_    0.086227 0.139286 0.558852 0.151631
H27   H     H_    0.907999 0.244684 0.348061 0.134654
O26   O     O_3   0.836275 0.633025 0.762665 -0.552720
C46   C     C_3   0.751151 0.646126 0.842493 -0.331303
H28   H     H_    0.704431 0.718252 0.852892 0.183463
H29   H     H_    0.849061 0.624326 0.893510 0.127742
H30   H     H_    0.621930 0.602522 0.846959 0.149038
O27   O     O_3   0.912859 0.111233 0.236176 -0.558699
C47   C     C_3   0.864948 0.044233 0.295837 -0.278003
H31   H     H_    0.724813 0.011882 0.280776 0.143190
H32   H     H_    0.863308 0.072948 0.360877 0.125735
H33   H     H_    0.975975 0.989834 0.293817 0.167706
H34   H     H_    0.214175 0.278312 0.132011 0.173131
O28   O     O_3   0.192103 0.405489 0.244573 -0.544833
C48   C     C_3   0.295489 0.466075 0.192696 -0.172827
H35   H     H_    0.343263 0.432378 0.133319 0.128095
H36   H     H_    0.419213 0.495713 0.227237 0.136529
H37   H     H_    0.199658 0.523509 0.175286 0.156373
O29   O     O_3   0.785893 0.840104 0.740387 -0.557603
C49   C     C_3   0.804695 0.930149 0.710099 -0.246966
H38   H     H_    0.669194 0.967791 0.722306 0.143002
H39   H     H_    0.920840 0.968816 0.742349 0.120113
H40   H     H_    0.829055 0.929293 0.641078 0.126995
H41   H     H_    0.102294 0.828140 0.607061 0.116329
H42   H     H_    0.392469 0.863779 0.728082 0.162143

loop_
_geom_bond_atom_site_label_1
_geom_bond_atom_site_label_2
_ccdc_geom_bond_type
C24   H6    S    
C23   O23   S    
C7    C8    S    
C5    O26   S    
C8    O29   S    
C45   H24   S    
C25   C38   S    
C35   C36   S    
C34   C35   S    
C13   C14   A    
C15   H2    S    
C20   H5    S    
C6    C7    S    
O13   V3    S    
O5    C3    A    
C16   H3    S    
C43   H18   S    
O12   C37   A    
V2    O10   S    
C36   O28   S    
C5    C8    S    
C47   H31   S    
C5    C6    S    
C19   C20   S    
O16   V4    S    
C4    C12   S    
O19   V4    S    
O29   C49   S    
O8    V2    S    
O14   V3    S    
O12   V3    S    
V3    O20   S    
C28   H23   S    
C11   C12   S    
O1    V2    S    
C27   O24   S    
O7    V1    S    
C19   H4    S    
C1    O6    A    
C35   H7    S    
O9    C4    A    
C3    C17   S    
C24   C25   A    
O26   C46   S    
C42   H15   S    
C27   H22   S    
C45   H25   S    
O11   C38   A    
C49   H39   S    
C36   H8    S    
C5    C12   S    
O21   C41   S    
O15   V3    S    
C43   H17   S    
C6    C11   S    
C7    C10   S    
C18   C19   S    
O23   C43   S    
C42   H14   S    
C22   C23   A    
O4    C2    A    
O17   V4    S    
O18   C39   A    
C9    H41   S    
O2    C1    A    
C41   H10   S    
C21   C26   A    
C13   C18   A    
C44   H20   S    
C29   C30   A    
C1    C22   S    
O27   C47   S    
O25   C45   S    
O14   C38   A    
C32   C33   A    
C28   O25   S    
C7    C39   S    
C46   H29   S    
O11   V4    S    
C49   H38   S    
C10   H42   S    
C41   H11   S    
C43   H16   S    
C14   C40   S    
C19   O21   S    
C29   C36   S    
C35   H34   S    
C23   C24   A    
O17   V3    S    
O6    V2    S    
O9    V2    S    
C25   C26   A    
C32   O27   S    
O2    V1    S    
C46   H28   S    
C45   H26   S    
C26   C27   S    
C44   H21   S    
O28   C48   S    
C49   H40   S    
C30   C31   A    
O1    C2    A    
C42   H13   S    
O5    V1    S    
C48   H36   S    
O8    C3    A    
C48   H35   S    
C29   C34   A    
O3    C4    A    
C6    H9    S    
C47   H33   S    
O15   C39   A    
C37   O16   A    
C17   C18   A    
C15   C16   A    
O7    V2    S    
C33   C34   A    
O3    V1    S    
V1    O10   S    
C2    C30   S    
C16   C17   A    
C44   H19   S    
C21   C22   A    
C20   O22   S    
C47   H32   S    
C46   H30   S    
O18   V4    S    
C11   H1    S    
O19   C40   A    
C41   H12   S    
C21   C28   S    
C48   H37   S    
O13   C40   A    
O22   C42   S    
C27   C28   S    
C13   C20   S    
O4    V1    S    
V4    O20   S    
C8    C9    S    
C31   C32   A    
C9    C12   S    
C14   C15   A    
C10   C11   S    
C33   C37   S    
O24   C44   S    
C9    C10   S    
C31   H27   S    
