data_mof_unit_pretest_299.cif
_audit_creation_date              2012-12-10T19:45:44-0500
_audit_creation_method            fapswitch 2.2
_symmetry_space_group_name_H-M    P1
_symmetry_Int_Tables_number       1
_space_group_crystal_system       triclinic
_cell_length_a                    10.793203
_cell_length_b                    14.686292
_cell_length_c                    14.919866
_cell_angle_alpha                 64.758816
_cell_angle_beta                  104.230022
_cell_angle_gamma                 102.89342
_cell_volume                      2054.56994524

loop_
_atom_site_label
_atom_site_type_symbol
_atom_type_description
_atom_site_fract_x
_atom_site_fract_y
_atom_site_fract_z
_atom_type_partial_charge
C1    C     C_R   0.475875 0.119879 0.312783 0.788383
C2    C     C_R   0.669907 0.775845 0.961218 -0.163179
C3    C     C_R   0.360793 0.153725 0.137303 -0.197198
C4    C     C_R   0.639662 0.844449 0.862516 -0.204683
C5    C     C_R   0.502594 0.289730 0.175891 -0.187408
C6    C     C_R   0.494283 0.710380 0.822713 -0.125870
C7    C     C_R   0.460904 0.361492 0.080050 0.134880
C8    C     C_R   0.535348 0.637435 0.917800 0.112295
C9    C     C_R   0.381107 0.324542 0.008892 0.098909
C10   C     C_R   0.616326 0.673220 0.989652 0.074647
C11   C     C_R   0.504017 0.467599 0.050971 -0.103429
C12   C     C_R   0.523918 0.880124 0.687096 0.801224
C13   C     C_R   0.490363 0.531474 0.946026 -0.099854
C14   C     C_R   0.431311 0.486056 0.874998 0.384394
C15   C     C_R   0.560858 0.512776 0.122112 0.417601
C16   C     C_R   0.262837 0.999248 0.501665 0.783033
C17   C     C_R   0.737149 0.000601 0.498531 0.795488
C18   C     C_R   0.363993 0.388176 0.907742 -0.279281
C19   C     C_R   0.631200 0.609377 0.090740 -0.252092
C20   C     C_R   0.741876 0.298159 0.643352 -0.239395
C21   C     C_R   0.258844 0.702120 0.356108 -0.241635
C22   C     C_R   0.697808 0.211292 0.623214 0.133123
C23   C     C_R   0.870713 0.000723 0.497351 -0.065456
C24   C     C_R   0.303099 0.789226 0.375718 0.119166
C25   C     C_R   0.507843 0.279392 0.520118 0.099101
C26   C     C_R   0.490935 0.719659 0.482061 0.146186
C27   C     C_R   0.547596 0.370575 0.536740 0.031531
C28   C     C_R   0.451772 0.628841 0.464774 0.013965
C29   C     C_R   0.668517 0.378814 0.598791 0.126083
C30   C     C_R   0.331511 0.621025 0.401793 0.097692
C31   C     C_R   0.474293 0.454128 0.492279 0.100975
C32   C     C_R   0.525104 0.545323 0.509239 0.116290
C33   C     C_R   0.647180 0.549760 0.570282 -0.009085
C34   C     C_R   0.129188 0.998683 0.503214 -0.105575
C35   C     C_R   0.352453 0.449890 0.430930 -0.008607
C36   C     C_R   0.716523 0.467856 0.614781 -0.113926
C37   C     C_R   0.283462 0.531972 0.385921 -0.069502
C38   C     C_R   0.337627 0.945919 0.819542 -0.115892
C39   C     C_R   0.665159 0.056904 0.179433 -0.110786
C40   C     C_R   0.249995 0.940749 0.735194 -0.175078
C41   C     C_R   0.752239 0.060938 0.264439 -0.203392
C42   C     C_R   0.187680 0.024851 0.666905 -0.015559
C43   C     C_R   0.812385 0.975807 0.333034 -0.019440
C44   C     C_R   0.214853 0.115500 0.684538 0.391498
C45   C     C_R   0.906761 0.984977 0.420869 0.085594
C46   C     C_R   0.783515 0.885304 0.315130 0.469530
C47   C     C_R   0.304173 0.119480 0.769388 -0.182040
C48   C     C_R   0.694929 0.882459 0.229560 -0.204040
C49   C     C_R   0.365261 0.035284 0.836282 -0.186565
C50   C     C_R   0.636056 0.967704 0.162294 -0.191419
C51   C     C_R   0.963222 0.014678 0.575995 -0.103467
C52   C     C_R   0.036599 0.984539 0.424681 -0.128423
C53   C     C_R   0.093088 0.014408 0.579724 0.034501
C54   C     C_R   0.448281 0.187706 0.206547 -0.085612
C55   C     C_R   0.550708 0.811869 0.792997 -0.083535
C56   C     C_R   0.329698 0.221417 0.038236 -0.168608
Cu1   Cu    Cu3+1 0.466270 0.918260 0.475690 0.996360
Cu2   Cu    Cu3+1 0.533730 0.081740 0.524310 0.971782
H1    H     H_    0.433427 0.039116 0.901674 0.142706
H2    H     H_    0.307591 0.384163 0.415140 0.145911
H3    H     H_    0.383786 0.880340 0.872312 0.150646
H4    H     H_    0.620557 0.123223 0.126492 0.154067
H5    H     H_    0.229726 0.870610 0.723451 0.136742
H6    H     H_    0.773751 0.130954 0.276482 0.148229
H7    H     H_    0.325990 0.187738 0.784496 0.181733
H8    H     H_    0.671750 0.814268 0.214287 0.185094
H9    H     H_    0.933691 0.023732 0.635838 0.155277
H10   H     H_    0.066134 0.975766 0.364684 0.156694
H11   H     H_    0.311906 0.356778 0.852920 0.186825
H12   H     H_    0.568324 0.964759 0.096394 0.145462
H13   H     H_    0.681995 0.640280 0.146207 0.198507
H14   H     H_    0.684376 0.922803 0.840923 0.155032
H15   H     H_    0.317673 0.074962 0.159419 0.154412
H16   H     H_    0.271247 0.535818 0.666826 0.367179
H17   H     H_    0.383845 0.330503 0.297826 0.348237
H18   H     H_    0.578187 0.731013 0.531698 0.160097
H19   H     H_    0.418904 0.266863 0.472963 0.090460
H20   H     H_    0.833893 0.303051 0.691877 0.168930
H21   H     H_    0.167337 0.697491 0.306929 0.172712
H22   H     H_    0.184701 0.221917 0.472776 0.316616
H23   H     H_    0.267006 0.192944 0.984225 0.142126
H24   H     H_    0.930955 0.706618 0.555561 0.374987
H25   H     H_    0.416045 0.689851 0.771370 0.205747
H26   H     H_    0.579537 0.311782 0.227059 0.199651
H27   H     H_    0.733416 0.803256 0.015720 0.144056
H28   H     H_    0.809528 0.474766 0.661564 0.141826
H29   H     H_    0.190865 0.525292 0.338579 0.162517
H30   H     H_    0.246283 0.851413 0.341938 0.147801
H31   H     H_    0.755234 0.149545 0.656053 0.148560
H32   H     H_    0.692109 0.615737 0.585789 0.174371
N1    N     N_R   0.584450 0.204570 0.560790 -0.196998
N2    N     N_R   0.415550 0.795430 0.439210 -0.205753
O1    O     O_R   0.455540 0.022090 0.338120 -0.588872
O2    O     O_2   0.478096 0.442864 0.730665 -0.309695
O3    O     O_3   0.343652 0.590772 0.666920 -0.548817
O4    O     O_2   0.614467 0.414655 0.322673 -0.316680
O5    O     O_2   0.500645 0.561865 0.257496 -0.280936
O6    O     O_3   0.369035 0.396996 0.242542 -0.547027
O7    O     O_2   0.012963 0.212747 0.637940 -0.301177
O8    O     O_2   0.221264 0.317982 0.613162 -0.297645
O9    O     O_3   0.106563 0.237519 0.483917 -0.505902
O10   O     O_2   0.774275 0.682889 0.384150 -0.286926
O11   O     O_2   0.985984 0.786058 0.370049 -0.333938
O12   O     O_R   0.544460 0.977910 0.661880 -0.593036
O13   O     O_3   0.876096 0.761477 0.516884 -0.568565
O14   O     O_R   0.512510 0.160150 0.379180 -0.570435
O15   O     O_R   0.487490 0.839850 0.620820 -0.539597
O16   O     O_R   0.291160 0.930970 0.479480 -0.570402
O17   O     O_R   0.708840 0.069030 0.520520 -0.572033
O18   O     O_R   0.348130 0.069020 0.520540 -0.600755
O19   O     O_R   0.651870 0.930980 0.479460 -0.572914
O20   O     O_2   0.589623 0.603024 0.740655 -0.302982
S1    S     S_3+6 0.465361 0.531660 0.751438 -0.044386
S2    S     S_3+6 0.513133 0.470777 0.240462 -0.029410
S3    S     S_3+6 0.138073 0.224242 0.604699 -0.021171
S4    S     S_3+6 0.856453 0.775272 0.396610 -0.041360

loop_
_geom_bond_atom_site_label_1
_geom_bond_atom_site_label_2
_ccdc_geom_bond_type
C8    C13   A    
C23   C45   A    
Cu1   N2    S    
C27   C29   A    
Cu2   O17   S    
C14   C18   A    
O13   S4    S    
C19   H13   S    
C6    C55   A    
C16   O18   A    
C56   H23   S    
C39   C41   A    
C38   C49   A    
C15   C19   A    
C29   C36   A    
C17   C23   S    
C40   H5    S    
C25   H19   S    
C35   C37   A    
C12   O12   A    
C42   C53   S    
O7    S3    D    
C3    C54   A    
O6    S2    S    
C26   N2    A    
C24   N2    A    
C33   C36   A    
C2    H27   S    
H24   O13   S    
C16   C34   S    
Cu1   O16   S    
C11   C15   A    
C44   S3    S    
C26   H18   S    
C22   N1    A    
Cu2   N1    S    
C52   H10   S    
C44   C47   A    
C1    O14   A    
C38   H3    S    
C18   H11   S    
C40   C42   A    
Cu1   O1    S    
C13   C14   A    
C41   C43   A    
O4    S2    D    
O8    S3    D    
C42   C44   A    
C17   O19   A    
O20   S1    D    
O2    S1    D    
C20   C29   A    
C46   C48   A    
C25   N1    A    
C27   C31   A    
C5    C54   A    
C28   C32   A    
C47   C49   A    
C5    C7    A    
C5    H26   S    
C6    C8    A    
C45   C52   A    
C36   H28   S    
H17   O6    S    
C30   C37   A    
C35   H2    S    
Cu2   O14   S    
C7    C11   A    
C1    C54   S    
C24   H30   S    
C3    C56   A    
C23   C51   A    
C31   C32   A    
C10   C19   A    
C21   H21   S    
C15   S2    S    
C9    C56   A    
C51   H9    S    
C43   C45   S    
C1    O1    A    
Cu1   O15   S    
C20   C22   A    
C4    C55   A    
O9    S3    S    
C31   C35   A    
Cu2   O12   S    
C2    C10   A    
C4    H14   S    
C7    C9    A    
C39   H4    S    
C6    H25   S    
Cu2   O18   S    
C26   C28   A    
H16   O3    S    
C37   H29   S    
C17   O17   A    
C12   O15   A    
C46   S4    S    
C25   C27   A    
C14   S1    S    
C21   C30   A    
C34   C52   A    
C49   H1    S    
C20   H20   S    
H22   O9    S    
C48   H8    S    
C32   C33   A    
C28   C30   A    
O11   S4    D    
C50   H12   S    
C33   H32   S    
C38   C40   A    
C11   C13   A    
Cu1   Cu2   S    
Cu1   O19   S    
O3    S1    S    
C2    C4    A    
C48   C50   A    
C22   H31   S    
C3    H15   S    
C43   C46   A    
C12   C55   S    
O10   S4    D    
C16   O16   A    
C9    C18   A    
C39   C50   A    
C34   C53   A    
C8    C10   A    
C21   C24   A    
C41   H6    S    
C51   C53   A    
O5    S2    D    
C47   H7    S    
