data_mof_unit_pretest_1364.cif
_audit_creation_date              2012-12-10T17:34:48-0500
_audit_creation_method            fapswitch 2.2
_symmetry_space_group_name_H-M    P1
_symmetry_Int_Tables_number       1
_space_group_crystal_system       triclinic
_cell_length_a                    15.494288
_cell_length_b                    15.501555
_cell_length_c                    19.519319
_cell_angle_alpha                 77.400592
_cell_angle_beta                  98.603615
_cell_angle_gamma                 111.294528
_cell_volume                      4250.19327269

loop_
_atom_site_label
_atom_site_type_symbol
_atom_type_description
_atom_site_fract_x
_atom_site_fract_y
_atom_site_fract_z
_atom_type_partial_charge
C1    C     C_R   0.746961 0.542167 0.528909 0.501458
C2    C     C_2   0.545985 0.501050 0.025309 -0.137560
C3    C     C_2   0.470129 0.476900 0.980717 -0.136567
C4    C     C_R   0.252529 0.457724 0.473035 0.487618
C5    C     C_R   0.482743 0.481100 0.763461 0.037623
C6    C     C_R   0.975778 0.568270 0.629749 0.273909
C7    C     C_R   0.845236 0.556090 0.542893 -0.015509
C8    C     C_R   0.111117 0.423717 0.391464 -0.126182
C9    C     C_R   0.024019 0.429640 0.368245 -0.144422
C10   C     C_R   0.978506 0.460470 0.408945 -0.113746
C11   C     C_R   0.017563 0.481878 0.476263 0.040455
C12   C     C_R   0.538107 0.502842 0.098977 0.040467
C13   C     C_R   0.103513 0.468539 0.501988 0.032932
C14   C     C_R   0.974244 0.515714 0.519032 -0.009554
C15   C     C_R   0.016486 0.533046 0.587117 0.044278
C16   C     C_R   0.454199 0.249325 0.529033 0.499216
C17   C     C_R   0.096081 0.510731 0.613247 -0.132302
C18   C     C_R   0.137424 0.476938 0.572174 -0.130475
C19   C     C_R   0.888827 0.530226 0.497458 -0.145348
C20   C     C_R   0.888666 0.575748 0.608379 -0.096501
C21   C     C_R   0.153162 0.445954 0.457100 0.024208
C22   C     C_R   0.420562 0.009212 0.630912 -0.131381
C23   C     C_R   0.606256 0.570948 0.133152 -0.118275
C24   C     C_R   0.439083 0.149359 0.543127 0.035924
C25   C     C_R   0.591114 0.903387 0.391360 -0.125556
C26   C     C_R   0.588897 0.993815 0.368195 -0.143144
C27   C     C_R   0.553095 0.034179 0.408981 -0.117727
C28   C     C_R   0.545829 0.751038 0.472962 0.487295
C29   C     C_R   0.522444 0.986099 0.476244 0.034444
C30   C     C_R   0.531586 0.896319 0.501965 0.030407
C31   C     C_R   0.483589 0.024163 0.519092 0.031198
C32   C     C_R   0.458295 0.973378 0.587443 0.048301
C33   C     C_R   0.474965 0.889469 0.613437 -0.139434
C34   C     C_R   0.597597 0.575466 0.202293 -0.127835
C35   C     C_R   0.513208 0.852791 0.572172 -0.115188
C36   C     C_R   0.471234 0.112169 0.497448 -0.124572
C37   C     C_R   0.412378 0.097434 0.609233 -0.124016
C38   C     C_R   0.559909 0.852547 0.457012 0.022555
C39   C     C_R   0.487839 0.486976 0.688314 0.495905
C40   C     C_R   0.512763 0.511745 0.311659 0.504344
C41   C     C_R   0.521121 0.510990 0.238027 0.034419
C42   C     C_R   0.454060 0.441776 0.203978 -0.128575
C43   C     C_R   0.462705 0.437377 0.135250 -0.114118
C44   C     C_3   0.084086 0.676234 0.690105 -0.020337
C45   C     C_R   0.544245 0.452332 0.884387 -0.111394
C46   C     C_3   0.041989 0.749838 0.694068 -0.387035
C47   C     C_R   0.547564 0.453952 0.813206 -0.128135
C48   C     C_R   0.413165 0.504190 0.785826 -0.126876
C49   C     C_R   0.409086 0.501236 0.856951 -0.119493
C50   C     C_R   0.475511 0.477145 0.906393 0.040051
H1    H     H_    0.395112 0.390253 0.230597 0.134345
H2    H     H_    0.389131 0.127170 0.645258 0.111632
H3    H     H_    0.601474 0.435401 0.797025 0.133239
H4    H     H_    0.459877 0.852648 0.666635 0.105396
H5    H     H_    0.401423 0.970860 0.683045 0.103777
H6    H     H_    0.491585 0.156433 0.447603 0.098367
H7    H     H_    0.613887 0.871761 0.356420 0.136513
H8    H     H_    0.551206 0.103348 0.386335 0.103320
H9    H     H_    0.612219 0.031846 0.317015 0.117587
H10   H     H_    0.529964 0.790769 0.596957 0.143319
H11   H     H_    0.361751 0.524357 0.748373 0.125112
H12   H     H_    0.355063 0.519506 0.873306 0.104495
H13   H     H_    0.402026 0.462878 0.997926 0.119383
H14   H     H_    0.665253 0.621407 0.105969 0.105409
H15   H     H_    0.594694 0.430910 0.922058 0.108883
H16   H     H_    0.650803 0.628782 0.227818 0.131462
H17   H     H_    0.614858 0.525674 0.006440 0.118673
H18   H     H_    0.410748 0.382057 0.110858 0.107474
H19   H     H_    0.122335 0.697438 0.641589 0.122489
H20   H     H_    0.136783 0.675390 0.735328 0.147633
H21   H     H_    0.003879 0.728827 0.742283 0.163844
H22   H     H_    0.098082 0.818873 0.695781 0.103958
H23   H     H_    0.853492 0.594218 0.643977 0.125435
H24   H     H_    0.993462 0.757512 0.647073 0.141119
H25   H     H_    0.126276 0.517888 0.666368 0.146273
H26   H     H_    0.850828 0.515463 0.447996 0.111102
H27   H     H_    0.147299 0.405400 0.356556 0.136083
H28   H     H_    0.912766 0.466196 0.386027 0.102891
H29   H     H_    0.992861 0.413416 0.317038 0.116851
H30   H     H_    0.195571 0.455874 0.597005 0.140385
O1    O     O_3   0.500000 0.500000 0.500000 -0.436089
O2    O     O_R   0.533750 0.444440 0.667550 -0.549295
O3    O     O_R   0.573150 0.573190 0.344350 -0.547426
O4    O     O_R   0.446010 0.535260 0.643730 -0.556381
O5    O     O_R   0.447090 0.447110 0.344370 -0.549048
O6    O     O_3   0.015370 0.585438 0.696048 -0.568024
O7    O     O_R   0.412670 0.287020 0.475980 -0.542199
O8    O     O_R   0.592640 0.718300 0.442410 -0.547953
O9    O     O_R   0.691640 0.476740 0.569450 -0.534645
O10   O     O_R   0.303050 0.517940 0.512160 -0.544549
O11   O     O_R   0.716100 0.590510 0.475920 -0.540620
O12   O     O_R   0.289200 0.414810 0.442470 -0.547717
O13   O     O_R   0.514260 0.299330 0.569480 -0.535945
O14   O     O_R   0.480430 0.695350 0.512130 -0.543720
Zn1   Zn    Zn3+2 0.413740 0.413730 0.441720 0.931265
Zn2   Zn    Zn3+2 0.558890 0.431320 0.575310 0.937429
Zn3   Zn    Zn3+2 0.433530 0.561080 0.541290 0.921109
Zn4   Zn    Zn3+2 0.593840 0.593870 0.441680 0.931612

loop_
_geom_bond_atom_site_label_1
_geom_bond_atom_site_label_2
_ccdc_geom_bond_type
C27   C29   A    
C11   C13   A    
C41   C42   A    
C2    C12   S    
C34   H16   S    
C10   H28   S    
C5    C47   A    
C12   C23   A    
C26   C27   A    
C24   C36   A    
C22   C32   A    
C13   C18   A    
O4    Zn3   S    
C19   H26   S    
C39   O4    A    
C12   C43   A    
C31   C36   A    
O1    Zn1   S    
C11   C14   A    
O1    Zn4   S    
C30   C38   A    
C28   O14   A    
C9    H29   S    
C6    C15   A    
C8    C9    A    
O3    Zn4   S    
O7    Zn1   S    
C28   O8    A    
C16   O7    A    
C44   H20   S    
C9    C10   A    
O10   Zn3   S    
C46   H22   S    
C42   H1    S    
C47   H3    S    
C16   C24   S    
C40   O3    A    
C34   C41   A    
C25   H7    S    
C44   O6    S    
C3    C50   S    
C44   C46   S    
C24   C37   A    
C4    O10   A    
C45   C47   A    
C5    C48   A    
O2    Zn2   S    
C37   H2    S    
C23   H14   S    
C2    H17   S    
O1    Zn2   S    
C43   H18   S    
O14   Zn3   S    
C25   C26   A    
C22   C37   A    
O12   Zn1   S    
C35   H10   S    
C40   O5    A    
C29   C30   A    
C36   H6    S    
C25   C38   A    
C31   C32   A    
C28   C38   S    
C23   C34   A    
C17   C18   A    
C16   O13   A    
C13   C21   A    
C44   H19   S    
C46   H21   S    
C30   C35   A    
C48   C49   A    
C7    C20   A    
O13   Zn2   S    
C7    C19   A    
C5    C39   S    
C45   H15   S    
C8    H27   S    
C42   C43   A    
C46   H24   S    
C26   H9    S    
C33   H4    S    
C15   C17   A    
C40   C41   S    
C1    O9    A    
C49   H12   S    
C1    C7    S    
C14   C19   A    
C39   O2    A    
C27   H8    S    
C8    C21   A    
C22   H5    S    
C3    H13   S    
C6    C20   A    
C6    O6    S    
C32   C33   A    
O9    Zn2   S    
C2    C3    D    
C29   C31   A    
C4    C21   S    
O5    Zn1   S    
C48   H11   S    
O1    Zn3   S    
C45   C50   A    
C33   C35   A    
C20   H23   S    
O11   Zn4   S    
C10   C11   A    
C18   H30   S    
C49   C50   A    
C1    O11   A    
C17   H25   S    
C14   C15   A    
O8    Zn4   S    
C4    O12   A    
