data_mof_unit_pretest_1752.cif
_audit_creation_date              2012-12-10T16:39:47-0500
_audit_creation_method            fapswitch 2.2
_symmetry_space_group_name_H-M    P1
_symmetry_Int_Tables_number       1
_space_group_crystal_system       triclinic
_cell_length_a                    10.924703
_cell_length_b                    10.852527
_cell_length_c                    16.044133
_cell_angle_alpha                 91.332032
_cell_angle_beta                  97.45745
_cell_angle_gamma                 98.512083
_cell_volume                      1863.58749414

loop_
_atom_site_label
_atom_site_type_symbol
_atom_type_description
_atom_site_fract_x
_atom_site_fract_y
_atom_site_fract_z
_atom_type_partial_charge
C1    C     C_R   0.837739 0.524544 0.518192 0.922840
C2    C     C_R   0.527504 0.835962 0.518667 0.860079
C3    C     C_R   0.472864 0.163153 0.481705 0.904423
C4    C     C_R   0.483855 0.515710 0.275960 0.822172
C5    C     C_R   0.515722 0.484302 0.723889 0.819704
C6    C     C_1   0.477875 0.520913 0.186444 -0.117004
C7    C     C_2   0.470667 0.527668 0.021107 -0.195447
C8    C     C_2   0.537791 0.459589 0.978740 0.117915
C9    C     C_3   0.621629 0.375078 0.024188 -0.377390
C10   C     C_3   0.689105 0.302499 0.965694 -0.360203
C11   C     C_3   0.770790 0.219710 0.015488 -0.818279
C12   C     C_1   0.528685 0.469835 0.888501 -0.016081
C13   C     C_1   0.473879 0.524587 0.111205 0.001838
C14   C     C_1   0.522067 0.477268 0.813324 -0.137675
C15   C     C_2   0.025282 0.465254 0.476778 0.086801
C16   C     C_2   0.970925 0.537222 0.526344 0.139867
C17   C     C_2   0.461446 0.028080 0.474977 -0.323696
C18   C     C_2   0.538324 0.969455 0.525675 -0.271869
C19   C     C_R   0.160665 0.475868 0.482019 0.868265
Cl1   Cl    Cl    0.933863 0.353485 0.402869 -0.603406
Cl2   Cl    Cl    0.049050 0.656200 0.600049 -0.573775
H1    H     H_    0.411574 0.587742 0.987633 0.160204
H2    H     H_    0.563658 0.307120 0.059355 0.211068
H3    H     H_    0.390117 0.976016 0.428434 0.155979
H4    H     H_    0.611053 0.019403 0.572108 0.169958
H5    H     H_    0.843055 0.277242 0.061220 0.272107
H6    H     H_    0.712858 0.150837 0.049903 0.265575
H7    H     H_    0.818151 0.168473 0.971682 0.255274
H8    H     H_    0.619339 0.242772 0.919450 0.234936
H9    H     H_    0.749233 0.368876 0.930883 0.237837
H10   H     H_    0.692736 0.433171 0.070527 0.215337
O1    O     O_3   0.500000 0.500000 0.500000 -0.518084
O2    O     O_R   0.566290 0.591070 0.323460 -0.627860
O3    O     O_R   0.580640 0.419420 0.684420 -0.641085
O4    O     O_R   0.407770 0.434760 0.307690 -0.631762
O5    O     O_R   0.445300 0.554750 0.684430 -0.619970
O6    O     O_R   0.452040 0.769470 0.559450 -0.616573
O7    O     O_R   0.554760 0.223750 0.537250 -0.634259
O8    O     O_R   0.782610 0.596300 0.470630 -0.624242
O9    O     O_R   0.210590 0.410470 0.432660 -0.604065
O10   O     O_R   0.777820 0.443700 0.559450 -0.628611
O11   O     O_R   0.228980 0.549520 0.537250 -0.599892
O12   O     O_R   0.592170 0.786730 0.470640 -0.627722
O13   O     O_R   0.401030 0.220040 0.432660 -0.635255
Zn1   Zn    Zn3+2 0.408180 0.591840 0.569080 1.030568
Zn2   Zn    Zn3+2 0.608390 0.616500 0.442190 1.021085
Zn3   Zn    Zn3+2 0.381900 0.393170 0.419650 1.020747
Zn4   Zn    Zn3+2 0.601540 0.398480 0.569080 1.009626

loop_
_geom_bond_atom_site_label_1
_geom_bond_atom_site_label_2
_ccdc_geom_bond_type
O9    Zn3   S    
C19   O11   A    
C16   Cl2   S    
C2    C18   S    
C7    H1    S    
O1    Zn1   S    
C10   H9    S    
O7    Zn4   S    
C10   H8    S    
O13   Zn3   S    
C11   H6    S    
C2    O12   A    
C8    C12   S    
O4    Zn3   S    
C5    O3    A    
C7    C13   S    
C17   C18   D    
C4    O4    A    
C7    C8    D    
C1    C16   S    
C6    C13   T    
C15   C19   S    
O2    Zn2   S    
O1    Zn4   S    
C2    O6    A    
C5    C14   S    
C18   H4    S    
C11   H7    S    
O8    Zn2   S    
C1    O10   A    
O12   Zn2   S    
O10   Zn4   S    
C12   C14   T    
C3    C17   S    
C10   C11   S    
C15   Cl1   S    
O1    Zn3   S    
C3    O13   A    
C17   H3    S    
O3    Zn4   S    
C19   O9    A    
C1    O8    A    
O6    Zn1   S    
C15   C16   D    
C5    O5    A    
O5    Zn1   S    
C4    C6    S    
C9    C10   S    
C9    H10   S    
C4    O2    A    
C9    H2    S    
C11   H5    S    
O1    Zn2   S    
C3    O7    A    
C8    C9    S    
O11   Zn1   S    
