data_mof_unit_pretest_1490.cif
_audit_creation_date              2012-12-10T19:05:16-0500
_audit_creation_method            fapswitch 2.2
_symmetry_space_group_name_H-M    P1
_symmetry_Int_Tables_number       1
_space_group_crystal_system       triclinic
_cell_length_a                    9.52096
_cell_length_b                    10.816565
_cell_length_c                    17.334735
_cell_angle_alpha                 90.088888
_cell_angle_beta                  85.047136
_cell_angle_gamma                 89.908946
_cell_volume                      1778.53114977

loop_
_atom_site_label
_atom_site_type_symbol
_atom_type_description
_atom_site_fract_x
_atom_site_fract_y
_atom_site_fract_z
_atom_type_partial_charge
C1    C     C_R   0.500208 0.737772 0.498466 0.802463
C2    C     C_R   0.338399 0.508787 0.782045 -0.125405
C3    C     C_R   0.441522 0.409058 0.149211 0.499682
C4    C     C_R   0.429583 0.427027 0.229134 -0.307121
C5    C     C_R   0.655081 0.534276 0.220234 -0.025927
C6    C     C_R   0.666295 0.517006 0.140248 -0.271394
C7    C     C_R   0.558505 0.458185 0.104717 0.062382
C8    C     C_2   0.463194 0.504026 0.983071 -0.124763
C9    C     C_2   0.566758 0.454331 0.020452 -0.239153
C10   C     C_R   0.535013 0.489239 0.265332 -0.138333
C11   C     C_R   0.376224 0.936677 0.487529 0.136554
C12   C     C_R   0.480314 0.501051 0.650385 0.810825
C13   C     C_R   0.501850 0.870809 0.490326 -0.097282
C14   C     C_R   0.630375 0.935332 0.481566 -0.210004
C15   C     C_R   0.630499 0.064189 0.481530 -0.219436
C16   C     C_R   0.502106 0.129236 0.490193 -0.097841
C17   C     C_R   0.376373 0.063879 0.487465 0.114798
C18   C     C_3   0.242504 0.071067 0.538999 -0.457916
C19   C     C_3   0.242281 0.930662 0.539054 -0.479500
C20   C     C_R   0.930833 0.401172 0.471031 0.253553
C21   C     C_R   0.919670 0.590904 0.536124 -0.057516
C22   C     C_R   0.068677 0.590848 0.536168 -0.043289
C23   C     C_R   0.500400 0.262257 0.498370 0.798525
C24   C     C_R   0.078441 0.401602 0.470573 0.260285
C25   C     C_3   0.095817 0.354376 0.389459 -0.510880
C26   C     C_3   0.936347 0.351748 0.390585 -0.493114
C27   C     C_R   0.519911 0.499619 0.349942 0.816818
C28   C     C_R   0.468983 0.502750 0.735861 -0.150354
C29   C     C_R   0.594943 0.500060 0.772287 -0.203293
C30   C     C_R   0.593254 0.501855 0.852017 -0.214854
C31   C     C_R   0.465139 0.503543 0.898190 0.051982
C32   C     C_R   0.336999 0.507171 0.863266 0.403136
Cu1   Cu    Cu3+1 0.359330 0.500020 0.500000 0.953806
Cu2   Cu    Cu3+1 0.640670 0.499980 0.500000 0.953744
H1    H     H_    0.696722 0.497791 0.739140 0.184523
H2    H     H_    0.756389 0.553862 0.105071 0.158930
H3    H     H_    0.730437 0.887022 0.478746 0.167138
H4    H     H_    0.730602 0.112083 0.478789 0.159968
H5    H     H_    0.257614 0.112076 0.596571 0.200851
H6    H     H_    0.154740 0.111618 0.508986 0.193028
H7    H     H_    0.257133 0.889919 0.596666 0.196864
H8    H     H_    0.154409 0.890513 0.508992 0.195782
H9    H     H_    0.859310 0.665571 0.564250 0.137590
H10   H     H_    0.119954 0.665196 0.564533 0.140343
H11   H     H_    0.143981 0.424036 0.348397 0.224926
H12   H     H_    0.338441 0.390171 0.262832 0.155948
H13   H     H_    0.144912 0.261028 0.385451 0.188229
H14   H     H_    0.894575 0.417622 0.349128 0.233555
H15   H     H_    0.892867 0.256609 0.388697 0.185580
H16   H     H_    0.660349 0.414405 0.990098 0.149874
H17   H     H_    0.371779 0.543156 0.016461 0.208429
H18   H     H_    0.693496 0.504341 0.876946 0.153168
N1    N     N_R   0.852130 0.499070 0.499500 -0.185282
N2    N     N_R   0.148040 0.499110 0.499500 -0.186472
O1    O     O_R   0.381190 0.680360 0.500000 -0.585068
O2    O     O_R   0.618770 0.680320 0.499990 -0.588788
O3    O     O_R   0.367430 0.500040 0.613600 -0.575515
O4    O     O_R   0.605020 0.500000 0.613590 -0.583077
O5    O     O_R   0.381230 0.319680 0.500010 -0.582178
O6    O     O_R   0.618810 0.319640 0.500000 -0.586914
O7    O     O_R   0.394980 0.500000 0.386410 -0.581755
O8    O     O_R   0.632570 0.499960 0.386400 -0.577248
C33   C     C_1   0.764529 0.603881 0.253422 0.251564
N3    N     N_1   0.852191 0.659763 0.279914 -0.291954
O9    O     O_3   0.210534 0.518842 0.908667 -0.621672
C34   C     C_3   0.157031 0.399800 0.927130 0.049883
H19   H     H_    0.236038 0.342358 0.954758 0.160731
H20   H     H_    0.127187 0.352138 0.873942 0.140465
C35   C     C_3   0.026028 0.412912 0.984116 -0.291878
H21   H     H_    0.055446 0.459050 0.037763 0.238635
H22   H     H_    0.946580 0.471429 0.957995 0.211864
C36   C     C_3   0.960619 0.287422 0.005154 -0.937999
H23   H     H_    0.925015 0.241841 0.952804 0.254893
H24   H     H_    0.868088 0.300192 0.048005 0.253423
H25   H     H_    0.038297 0.226961 0.031057 0.263348
O10   O     O_3   0.333964 0.351844 0.113741 -0.627139
C37   C     C_3   0.336985 0.222763 0.126873 0.038350
H26   H     H_    0.228566 0.187239 0.122555 0.169602
H27   H     H_    0.365541 0.197767 0.185964 0.127993
C38   C     C_3   0.436564 0.158644 0.064990 -0.358490
H28   H     H_    0.407313 0.184906 0.006510 0.222670
H29   H     H_    0.546660 0.189010 0.070583 0.214443
C39   C     C_3   0.429497 0.018308 0.073154 -0.894839
H30   H     H_    0.460246 0.989875 0.130916 0.257830
H31   H     H_    0.503198 0.974728 0.027888 0.259626
H32   H     H_    0.321094 0.984994 0.065933 0.256807
C40   C     C_1   0.204736 0.518144 0.748560 0.309997
N4    N     N_1   0.097350 0.525521 0.722273 -0.311759

loop_
_geom_bond_atom_site_label_1
_geom_bond_atom_site_label_2
_ccdc_geom_bond_type
C10   C27   S    
Cu1   O1    S    
C34   H20   S    
C40   N4    T    
Cu2   O2    S    
C22   N2    A    
C4    H12   S    
C37   H26   S    
C23   O5    A    
C11   C19   S    
C12   C28   S    
C28   C29   A    
C1    O2    A    
C3    C7    A    
C36   H25   S    
C5    C6    A    
C38   H28   S    
C34   C35   S    
C16   C17   A    
C24   N2    A    
C15   C16   A    
Cu2   O8    S    
C5    C33   S    
C2    C32   A    
C18   C19   S    
C35   H22   S    
C18   H6    S    
C27   O7    A    
C21   H9    S    
C22   H10   S    
C31   C32   A    
C8    C9    D    
C25   H13   S    
C19   H8    S    
C26   H14   S    
C12   O4    A    
C34   H19   S    
Cu1   O5    S    
C21   C22   A    
Cu2   O6    S    
C38   C39   S    
C17   C18   S    
C37   H27   S    
C23   O6    A    
C20   C24   A    
O10   C37   S    
C36   H24   S    
C26   H15   S    
C20   N1    A    
C25   C26   S    
C35   C36   S    
C18   H5    S    
C15   H4    S    
C29   C30   A    
C27   O8    A    
C39   H30   S    
Cu1   Cu2   S    
C2    C40   S    
C24   C25   S    
C3    O10   S    
C8    H17   S    
C12   O3    A    
C38   H29   S    
C39   H31   S    
C16   C23   S    
C1    C13   S    
C4    C10   A    
C3    C4    A    
C25   H11   S    
C37   C38   S    
Cu1   N2    S    
C7    C9    S    
C30   H18   S    
C11   C17   A    
Cu1   O3    S    
C8    C31   S    
C9    H16   S    
C36   H23   S    
C6    C7    A    
C29   H1    S    
C1    O1    A    
C5    C10   A    
C14   H3    S    
C21   N1    A    
C11   C13   A    
C30   C31   A    
C20   C26   S    
C6    H2    S    
C35   H21   S    
C33   N3    T    
C39   H32   S    
Cu2   N1    S    
Cu1   O7    S    
O9    C34   S    
Cu2   O4    S    
C14   C15   A    
C2    C28   A    
C13   C14   A    
C19   H7    S    
C32   O9    S    
