data_mof_unit_pretest_497.cif
_audit_creation_date              2012-12-10T18:37:07-0500
_audit_creation_method            fapswitch 2.2
_symmetry_space_group_name_H-M    P1
_symmetry_Int_Tables_number       1
_space_group_crystal_system       triclinic
_cell_length_a                    14.938339
_cell_length_b                    15.228698
_cell_length_c                    23.441688
_cell_angle_alpha                 90.612472
_cell_angle_beta                  104.54949
_cell_angle_gamma                 82.122258
_cell_volume                      5111.4861164

loop_
_atom_site_label
_atom_site_type_symbol
_atom_type_description
_atom_site_fract_x
_atom_site_fract_y
_atom_site_fract_z
_atom_type_partial_charge
C1    C     C_R   0.442252 0.663235 0.493136 0.870716
C2    C     C_R   0.488450 0.419673 0.296426 0.433550
C3    C     C_R   0.428539 0.500047 0.753418 0.124579
C4    C     C_R   0.484341 0.420064 0.236108 0.139014
C5    C     C_R   0.516245 0.497772 0.794465 0.080501
C6    C     C_R   0.506432 0.495374 0.210487 0.053244
C7    C     C_R   0.411673 0.756313 0.503666 -0.146314
C8    C     C_R   0.593810 0.241998 0.523007 -0.165074
C9    C     C_R   0.307311 0.866312 0.539697 -0.215204
C10   C     C_R   0.725100 0.124358 0.549305 -0.189264
C11   C     C_R   0.326373 0.782325 0.517531 -0.302056
C12   C     C_R   0.558076 0.336595 0.509637 0.875238
C13   C     C_R   0.690006 0.212857 0.534417 -0.301701
C14   C     C_R   0.476905 0.816016 0.510742 0.436354
C15   C     C_R   0.532339 0.181213 0.527513 0.449779
C16   C     C_R   0.501040 0.500849 0.610698 0.924685
C17   C     C_R   0.499241 0.499858 0.389692 0.941755
C18   C     C_R   0.465934 0.892886 0.543495 -0.066140
C19   C     C_R   0.569684 0.095651 0.552058 -0.063821
C20   C     C_R   0.377330 0.921999 0.554304 0.031983
C21   C     C_R   0.665274 0.064246 0.556605 0.080666
C22   C     C_R   0.537643 0.946571 0.559215 0.027600
C23   C     C_R   0.597344 0.499712 0.774519 0.522371
C24   C     C_R   0.511986 0.037002 0.565324 -0.008228
C25   C     C_R   0.426997 0.065490 0.580011 -0.180409
C26   C     C_R   0.632876 0.914343 0.566003 -0.231982
C27   C     C_R   0.360837 0.007612 0.576888 0.190433
C28   C     C_R   0.697639 0.972914 0.566759 0.177499
C29   C     C_R   0.829550 0.661774 0.568510 -0.289210
C30   C     C_R   0.157544 0.364575 0.406884 -0.284573
C31   C     C_R   0.746437 0.628285 0.562994 0.020455
C32   C     C_R   0.247580 0.385655 0.425059 0.022766
C33   C     C_R   0.796173 0.507018 0.508887 0.010658
C34   C     C_R   0.525465 0.570844 0.244127 0.536914
C35   C     C_R   0.201880 0.492974 0.489758 0.037622
C36   C     C_R   0.879245 0.541427 0.508613 -0.039473
C37   C     C_R   0.107260 0.479453 0.469660 -0.048689
C38   C     C_R   0.897325 0.618312 0.541985 0.033119
C39   C     C_R   0.086661 0.409875 0.430021 0.032067
C40   C     C_R   0.581369 0.443825 0.134055 0.465276
C41   C     C_R   0.468343 0.569047 0.876493 0.527541
C42   C     C_R   0.945068 0.501262 0.477863 -0.067135
C43   C     C_R   0.033990 0.531087 0.488990 -0.059718
C44   C     C_R   0.044709 0.614771 0.515570 0.091561
C45   C     C_R   0.591654 0.495516 0.714543 -0.383516
C46   C     C_R   0.923613 0.436879 0.433508 0.078106
C47   C     C_R   0.980621 0.653336 0.546588 0.424456
C48   C     C_R   0.995484 0.388603 0.412119 0.427602
C49   C     C_R   0.445380 0.552720 0.111179 0.598087
C50   C     C_R   0.577258 0.436147 0.893800 0.573774
C51   C     C_R   0.450248 0.558510 0.052785 -0.085059
C52   C     C_R   0.582195 0.439134 0.954037 -0.062570
C53   C     C_R   0.518784 0.501140 0.033962 -0.062994
C54   C     C_R   0.519878 0.502361 0.974136 -0.055424
C55   C     C_R   0.585490 0.442171 0.074703 -0.043776
C56   C     C_R   0.518294 0.572739 0.301969 -0.396302
C57   C     C_R   0.458113 0.566031 0.934345 -0.077708
C58   C     C_R   0.386585 0.618959 0.012888 -0.177156
C59   C     C_R   0.647157 0.379808 0.994082 -0.235588
C60   C     C_R   0.389738 0.624019 0.954121 0.223419
C61   C     C_R   0.651975 0.382858 0.054365 0.219737
C62   C     C_3   0.060120 0.712200 0.631842 0.034931
C63   C     C_3   0.010614 0.699611 0.680468 -0.357208
C64   C     C_3   0.079477 0.687741 0.741064 -0.943219
C65   C     C_3   0.959896 0.247021 0.391893 0.061082
C66   C     C_3   0.043125 0.175128 0.394302 -0.353040
C67   C     C_R   0.504585 0.502873 0.673582 -0.267245
C68   C     C_3   0.021291 0.084288 0.409106 -0.960226
C69   C     C_3   0.082972 0.702432 0.442265 -0.755596
C70   C     C_3   0.786307 0.498794 0.359343 -0.722256
C71   C     C_3   0.328969 0.773727 0.916553 -0.707364
C72   C     C_3   0.808674 0.361663 0.116022 -0.677264
C73   C     C_3   0.695376 0.589616 0.829254 0.082581
C74   C     C_3   0.742553 0.631543 0.787376 -0.379331
C75   C     C_3   0.766090 0.723087 0.807542 -0.936706
C76   C     C_3   0.640961 0.637725 0.221284 0.073749
C77   C     C_3   0.686935 0.702561 0.265831 -0.359204
C78   C     C_R   0.499362 0.497941 0.328005 -0.263061
C79   C     C_3   0.789293 0.702221 0.266236 -0.947129
C80   C     C_3   0.327998 0.632401 0.640349 0.061266
C81   C     C_3   0.320082 0.692861 0.692400 -0.381436
C82   C     C_3   0.306639 0.790593 0.674490 -0.953456
C83   C     C_3   0.578350 0.304442 0.354810 0.070919
C84   C     C_3   0.610879 0.222577 0.323079 -0.301559
C85   C     C_3   0.696286 0.167021 0.362677 -0.993516
C86   C     C_3   0.338232 0.407568 0.792935 -0.759310
C87   C     C_3   0.363421 0.330260 0.194106 -0.738571
C88   C     C_3   0.208280 0.094423 0.548984 -0.807324
C89   C     C_R   0.422222 0.513783 0.693395 0.414544
C90   C     C_3   0.814983 0.913876 0.517301 -0.771306
C91   C     C_3   0.396352 0.160011 0.457001 0.054277
C92   C     C_3   0.428701 0.183118 0.402667 -0.379473
C93   C     C_3   0.368627 0.148550 0.346647 -0.928644
C94   C     C_3   0.533106 0.856794 0.433517 0.083500
C95   C     C_3   0.522726 0.801400 0.378259 -0.340687
C96   C     C_3   0.506236 0.859368 0.322919 -0.950714
H1    H     H_    0.332524 0.662062 0.026927 0.198779
H2    H     H_    0.692298 0.663665 0.581016 0.140019
H3    H     H_    0.587362 0.753507 0.382420 0.224248
H4    H     H_    0.462776 0.763793 0.374205 0.217785
H5    H     H_    0.442123 0.908144 0.318061 0.266105
H6    H     H_    0.497105 0.817029 0.283590 0.293535
H7    H     H_    0.566900 0.895270 0.325170 0.259768
H8    H     H_    0.838871 0.722835 0.591825 0.177876
H9    H     H_    0.143785 0.314387 0.374030 0.180366
H10   H     H_    0.655638 0.489807 0.700138 0.208577
H11   H     H_    0.529759 0.631865 0.327026 0.183405
H12   H     H_    0.738155 0.258144 0.530394 0.179798
H13   H     H_    0.275427 0.737083 0.512322 0.183155
H14   H     H_    0.098079 0.770292 0.642745 0.179318
H15   H     H_    0.113770 0.653640 0.631428 0.136895
H16   H     H_    0.957810 0.758493 0.680821 0.223023
H17   H     H_    0.696687 0.332320 0.978999 0.190219
H18   H     H_    0.974586 0.639903 0.671778 0.220427
H19   H     H_    0.130451 0.626895 0.742633 0.258673
H20   H     H_    0.040964 0.680982 0.775241 0.269410
H21   H     H_    0.117453 0.746111 0.751165 0.267894
H22   H     H_    0.897387 0.225491 0.361505 0.177322
H23   H     H_    0.945368 0.252828 0.436388 0.106038
H24   H     H_    0.060652 0.172392 0.350893 0.234274
H25   H     H_    0.104654 0.191366 0.428411 0.209892
H26   H     H_    0.005788 0.084646 0.453052 0.265280
H27   H     H_    0.082369 0.033346 0.409863 0.263041
H28   H     H_    0.238421 0.885893 0.546354 0.159182
H29   H     H_    0.960331 0.066209 0.375313 0.270153
H30   H     H_    0.128263 0.715904 0.532295 0.235521
H31   H     H_    0.137236 0.740672 0.434745 0.232840
H32   H     H_    0.015481 0.747253 0.433995 0.244149
H33   H     H_    0.076532 0.647764 0.410384 0.254878
H34   H     H_    0.815422 0.368101 0.389248 0.229304
H35   H     H_    0.821436 0.492560 0.322691 0.249853
H36   H     H_    0.790643 0.565403 0.378776 0.247067
H37   H     H_    0.711568 0.491828 0.341397 0.230783
H38   H     H_    0.290015 0.657423 0.874057 0.269536
H39   H     H_    0.799092 0.103366 0.554914 0.181838
H40   H     H_    0.266746 0.812880 0.886994 0.229836
H41   H     H_    0.391783 0.783087 0.901343 0.266116
H42   H     H_    0.336459 0.798899 0.961931 0.231978
H43   H     H_    0.734802 0.262148 0.077153 0.216400
H44   H     H_    0.857932 0.315041 0.149246 0.239655
H45   H     H_    0.795026 0.425710 0.137596 0.254576
H46   H     H_    0.841611 0.372488 0.079571 0.210213
H47   H     H_    0.741639 0.587584 0.874600 0.173822
H48   H     H_    0.628977 0.632104 0.830978 0.137655
H49   H     H_    0.807856 0.588028 0.785559 0.240333
H50   H     H_    0.411358 0.132973 0.593359 0.204021
H51   H     H_    0.695301 0.638418 0.742289 0.213998
H52   H     H_    0.701514 0.768109 0.808805 0.269729
H53   H     H_    0.799722 0.751628 0.776194 0.262829
H54   H     H_    0.815154 0.718208 0.852053 0.267426
H55   H     H_    0.647365 0.655844 0.176831 0.168540
H56   H     H_    0.679655 0.569290 0.231959 0.138724
H57   H     H_    0.649278 0.770682 0.254409 0.241580
H58   H     H_    0.682213 0.684238 0.310603 0.216504
H59   H     H_    0.828902 0.634882 0.277321 0.266203
H60   H     H_    0.820713 0.748668 0.299795 0.266879
H61   H     H_    0.657294 0.843845 0.570107 0.181639
H62   H     H_    0.795182 0.723899 0.222391 0.268282
H63   H     H_    0.263850 0.648834 0.604345 0.152112
H64   H     H_    0.386629 0.647250 0.622355 0.135379
H65   H     H_    0.260493 0.679137 0.709474 0.229579
H66   H     H_    0.384900 0.679981 0.728388 0.260258
H67   H     H_    0.368880 0.806644 0.661100 0.279002
H68   H     H_    0.297660 0.832022 0.712451 0.274367
H69   H     H_    0.243693 0.806660 0.637480 0.246506
H70   H     H_    0.577279 0.284551 0.399849 0.142783
H71   H     H_    0.631301 0.351251 0.360787 0.117560
H72   H     H_    0.224211 0.538964 0.523954 0.158520
H73   H     H_    0.554012 0.180862 0.309897 0.239889
H74   H     H_    0.628544 0.244057 0.282558 0.241564
H75   H     H_    0.752263 0.208575 0.379594 0.251717
H76   H     H_    0.723011 0.112058 0.337250 0.271251
H77   H     H_    0.677394 0.138203 0.400687 0.266975
H78   H     H_    0.284954 0.524769 0.745467 0.256757
H79   H     H_    0.274945 0.410784 0.809995 0.233170
H80   H     H_    0.399732 0.381916 0.829057 0.251640
H81   H     H_    0.331884 0.361172 0.755657 0.248405
H82   H     H_    0.480710 0.336923 0.163939 0.245299
H83   H     H_    0.780525 0.444519 0.489963 0.146873
H84   H     H_    0.351799 0.268234 0.169702 0.227845
H85   H     H_    0.316006 0.386585 0.168160 0.239920
H86   H     H_    0.346238 0.323345 0.237100 0.274834
H87   H     H_    0.249161 0.991965 0.612358 0.227671
H88   H     H_    0.146246 0.117707 0.565881 0.244407
H89   H     H_    0.186126 0.056167 0.508534 0.243377
H90   H     H_    0.237605 0.153427 0.538023 0.256877
H91   H     H_    0.817791 0.888674 0.604174 0.227400
H92   H     H_    0.891452 0.893906 0.524988 0.273725
H93   H     H_    0.793673 0.970701 0.485184 0.234981
H94   H     H_    0.301134 0.353616 0.405552 0.149424
H95   H     H_    0.778758 0.857065 0.498460 0.248437
H96   H     H_    0.319441 0.178887 0.447553 0.168343
H97   H     H_    0.409114 0.087039 0.464074 0.141004
H98   H     H_    0.424254 0.255872 0.398322 0.267278
H99   H     H_    0.502404 0.152850 0.407949 0.207520
H100  H     H_    0.373699 0.075195 0.349610 0.255073
H101  H     H_    0.393064 0.166653 0.307955 0.281245
H102  H     H_    0.294488 0.178460 0.339925 0.254708
H103  H     H_    0.594609 0.892384 0.438118 0.166305
H104  H     H_    0.470531 0.908595 0.427902 0.119361
N1    N     N_R   0.510387 0.496312 0.150244 -0.335506
N2    N     N_2   0.459690 0.344321 0.202454 -0.276626
N3    N     N_2   0.276823 0.038924 0.593316 -0.301461
N4    N     N_2   0.793106 0.938692 0.572529 -0.313527
N5    N     N_R   0.521391 0.501075 0.856393 -0.323662
N6    N     N_R   0.731690 0.552740 0.533440 -0.108056
N7    N     N_R   0.268310 0.447260 0.466560 -0.105793
N8    N     N_2   0.109126 0.667642 0.502325 -0.330963
N9    N     N_2   0.829102 0.430120 0.403638 -0.319149
N10   N     N_2   0.316883 0.681069 0.915276 -0.298520
N11   N     N_2   0.722819 0.324579 0.093599 -0.254061
N12   N     N_2   0.346391 0.495070 0.773160 -0.277743
O1    O     O_R   0.383120 0.605620 0.483150 -0.628344
O2    O     O_2   0.427576 0.639580 0.840592 -0.613538
O3    O     O_2   0.376209 0.602998 0.129068 -0.542903
O4    O     O_2   0.627188 0.368688 0.872669 -0.528519
O5    O     O_3   0.994712 0.731266 0.576594 -0.665933
O6    O     O_3   0.974708 0.327450 0.368114 -0.643071
O7    O     O_3   0.683513 0.501084 0.813653 -0.600760
O8    O     O_3   0.544573 0.645630 0.219072 -0.616650
O9    O     O_3   0.335568 0.540971 0.655394 -0.641124
O10   O     O_3   0.486120 0.341294 0.324839 -0.651941
O11   O     O_3   0.436350 0.206805 0.507846 -0.637413
O12   O     O_R   0.616880 0.394380 0.516850 -0.632972
O13   O     O_3   0.549812 0.799571 0.483550 -0.648102
O14   O     O_R   0.531890 0.639510 0.504600 -0.569509
O15   O     O_R   0.468110 0.360490 0.495400 -0.558638
O16   O     O_R   0.425590 0.483070 0.573110 -0.574241
O17   O     O_R   0.574410 0.516930 0.426890 -0.620800
O18   O     O_R   0.574360 0.516970 0.594570 -0.635926
O19   O     O_R   0.425640 0.483030 0.405430 -0.600447
O20   O     O_2   0.646099 0.392704 0.175426 -0.560772
Zn1   Zn    Zn3+2 0.400660 0.477370 0.485670 0.980843
Zn2   Zn    Zn3+2 0.599340 0.522630 0.514330 0.943269

loop_
_geom_bond_atom_site_label_1
_geom_bond_atom_site_label_2
_ccdc_geom_bond_type
C1    O14   A    
C66   C68   S    
C34   C56   A    
C8    C13   A    
H38   N10   S    
C96   H6    S    
C11   H13   S    
C81   H66   S    
C14   C18   A    
C74   H49   S    
C36   C42   A    
C95   C96   S    
C44   N8    S    
C79   H60   S    
C92   H99   S    
C54   C57   A    
C9    H28   S    
C87   H86   S    
C81   C82   S    
C17   O19   A    
C71   H41   S    
C48   O6    S    
C53   C54   A    
C15   C19   A    
C47   O5    S    
C85   H75   S    
C90   H92   S    
C27   N3    S    
C35   C37   A    
C86   N12   S    
C86   H79   S    
C84   H74   S    
C1    C7    S    
C89   O9    S    
C65   O6    S    
C91   H97   S    
C34   O8    S    
C80   H64   S    
C72   N11   S    
C33   H83   S    
C82   H67   S    
C76   H56   S    
C75   H54   S    
C58   C60   A    
C2    C4    A    
C55   C61   A    
C67   C89   A    
C33   C36   A    
C56   C78   A    
C73   O7    S    
C26   H61   S    
C94   H103  S    
C61   N11   S    
C31   H2    S    
C16   O18   A    
O17   Zn2   S    
O12   Zn2   S    
C12   O12   A    
C94   O13   S    
C77   H57   S    
C87   H84   S    
C63   H18   S    
C4    N2    S    
C7    C14   A    
C62   H15   S    
C69   H32   S    
H30   N8    S    
C49   C51   A    
C5    C23   A    
C29   C38   A    
C45   C67   A    
C70   H37   S    
C85   H77   S    
C65   H22   S    
O18   Zn2   S    
C25   H50   S    
C40   O20   S    
C87   N2    S    
C86   H80   S    
C44   C47   A    
C59   H17   S    
C71   N10   S    
C77   C79   S    
C80   O9    S    
C92   H98   S    
C64   H19   S    
C18   C22   A    
C96   H5    S    
C15   O11   S    
C83   O10   S    
C58   H1    S    
C23   C45   A    
C79   H62   S    
C13   H12   S    
O1    Zn1   S    
C68   H27   S    
C5    N5    S    
C52   C54   A    
C71   H42   S    
C90   N4    S    
C90   H95   S    
C53   C55   A    
C10   C21   A    
C72   H45   S    
O15   Zn1   S    
C83   H70   S    
C49   N1    A    
C33   N6    A    
C59   C61   A    
C85   H76   S    
C74   C75   S    
C28   N4    S    
C62   O5    S    
C74   H51   S    
C84   C85   S    
C14   O13   S    
C4    C6    A    
C84   H73   S    
C68   H26   S    
C91   C92   S    
C16   C67   S    
C17   O17   A    
C95   H4    S    
C80   H63   S    
C76   H55   S    
H43   N11   S    
C2    O10   S    
C83   H71   S    
C64   H20   S    
C86   H81   S    
C64   H21   S    
C6    C34   A    
C29   H8    S    
C51   C53   A    
C37   C43   A    
C7    C11   A    
C43   C44   A    
C79   H59   S    
C56   H11   S    
C62   C63   S    
C2    C78   A    
C52   C59   A    
C77   H58   S    
C9    C20   A    
C50   C52   A    
C83   C84   S    
C62   H14   S    
C50   O4    S    
C23   O7    S    
C8    C12   S    
C40   C55   A    
C70   H36   S    
C35   H72   S    
C65   H23   S    
C66   H25   S    
C32   H94   S    
O19   Zn1   S    
C51   C58   A    
C24   C25   A    
C32   N7    A    
C9    C11   A    
C38   C47   A    
C31   N6    A    
C35   N7    A    
C88   H89   S    
C70   H35   S    
C21   C28   A    
C8    C15   A    
H82   N2    S    
C30   H9    S    
C42   C46   A    
C22   C24   A    
C93   H100  S    
C42   C43   A    
C91   O11   S    
C73   C74   S    
C50   N5    A    
C71   H40   S    
C45   H10   S    
N7    Zn1   S    
C73   H47   S    
C3    N12   S    
C16   O16   A    
C69   N8    S    
C19   C21   A    
C63   H16   S    
C81   H65   S    
C95   H3    S    
C80   C81   S    
C3    C5    A    
C10   C13   A    
C87   H85   S    
C18   C20   A    
C41   O2    S    
C20   C27   A    
C75   H52   S    
C25   C27   A    
C46   N9    S    
C91   H96   S    
C49   O3    S    
C26   C28   A    
O14   Zn2   S    
C3    C89   A    
N6    Zn2   S    
C17   C78   S    
C36   C38   A    
C19   C24   A    
C57   C60   A    
H87   N3    S    
C10   H39   S    
C29   C31   A    
C72   H46   S    
H78   N12   S    
C1    O1    A    
C76   C77   S    
C82   H68   S    
C75   H53   S    
C69   H33   S    
C93   H101  S    
H91   N4    S    
C12   O15   A    
C88   H90   S    
C92   C93   S    
C30   C39   A    
C93   H102  S    
C94   H104  S    
C30   C32   A    
C88   N3    S    
C41   N5    A    
C94   C95   S    
C88   H88   S    
C41   C57   A    
C63   C64   S    
C46   C48   A    
C72   H44   S    
C82   H69   S    
C40   N1    A    
C69   H31   S    
C37   C39   A    
C65   C66   S    
C22   C26   A    
C96   H7    S    
C70   N9    S    
C76   O8    S    
H34   N9    S    
C66   H24   S    
C6    N1    S    
C60   N10   S    
C68   H29   S    
C73   H48   S    
C39   C48   A    
C90   H93   S    
O16   Zn1   S    
