data_mof_unit_pretest_868.cif
_audit_creation_date              2013-03-05T16:11:51-0500
_audit_creation_method            fapswitch 2.2
_symmetry_space_group_name_H-M    P1
_symmetry_Int_Tables_number       1
_space_group_crystal_system       triclinic
_cell_length_a                    11.366434
_cell_length_b                    10.08262
_cell_length_c                    23.691049
_cell_angle_alpha                 90.735549
_cell_angle_beta                  93.272983
_cell_angle_gamma                 91.862211
_cell_volume                      2708.92159666

loop_
_atom_site_label
_atom_site_type_symbol
_atom_site_description
_atom_site_fract_x
_atom_site_fract_y
_atom_site_fract_z
_atom_type_partial_charge
O1    O     O_R   0.317570 0.620260 0.500030 -0.533569
O2    O     O_R   0.317570 0.379740 0.500030 -0.486441
C1    C     C_R   0.257702 0.500735 0.498111 0.796844
O3    O     O_R   0.499840 0.620290 0.417900 -0.486216
O4    O     O_R   0.499840 0.379710 0.417900 -0.470940
C2    C     C_R   0.500968 0.498784 0.390390 0.918638
Cu1   Cu    Cu3+1 0.499860 0.642410 0.500030 1.102612
Cu2   Cu    Cu3+1 0.499860 0.357590 0.500030 1.131665
O5    O     O_R   0.682190 0.620260 0.500010 -0.539819
O6    O     O_R   0.682190 0.379740 0.500010 -0.580869
O7    O     O_R   0.499920 0.620230 0.582140 -0.540708
O8    O     O_R   0.499920 0.379770 0.582140 -0.510784
C3    C     C_R   0.736170 0.501736 0.503950 0.819739
C4    C     C_R   0.499529 0.500844 0.608059 0.880304
C5    C     C_R   0.545328 0.444456 0.881660 0.654178
N1    N     N_R   0.460084 0.505830 0.849692 -0.436015
C6    C     C_R   0.372757 0.572716 0.874246 0.687192
C7    C     C_R   0.363969 0.572402 0.933858 -0.183749
C8    C     C_R   0.453393 0.510932 0.966967 -0.031092
C9    C     C_R   0.546227 0.450287 0.940598 -0.067568
C10   C     C_R   0.270515 0.632303 0.961184 0.240798
C11   C     C_R   0.265158 0.627598 0.020794 0.318599
C12   C     C_R   0.351797 0.557246 0.053157 -0.168367
C13   C     C_R   0.450426 0.508740 0.026397 -0.088789
C14   C     C_R   0.546784 0.458050 0.059231 -0.105424
C15   C     C_R   0.640318 0.397617 0.031981 0.401909
C16   C     C_R   0.637791 0.394466 0.973151 -0.163110
C17   C     C_R   0.344478 0.530643 0.111526 0.672187
N2    N     N_R   0.442330 0.494733 0.143193 -0.449442
C18   C     C_R   0.545386 0.471958 0.118168 0.672008
O9    O     O_2   0.629022 0.377184 0.856231 -0.465864
O10   O     O_2   0.295914 0.639279 0.840791 -0.396979
O11   O     O_2   0.240674 0.534755 0.136093 -0.405351
O12   O     O_2   0.645985 0.465907 0.150499 -0.408313
H1    H     H_    0.708560 0.347866 0.952466 0.237407
C19   C     C_R   0.487591 0.374981 0.232436 0.232220
C20   C     C_R   0.537626 0.395975 0.288239 0.311612
C21   C     C_R   0.490396 0.495755 0.324139 -0.178553
C22   C     C_R   0.426462 0.593191 0.294415 -0.106934
H2    H     H_    0.393995 0.676901 0.314186 0.295755
C23   C     C_R   0.409599 0.593242 0.235860 -0.132542
H3    H     H_    0.372287 0.678900 0.215313 0.230704
C24   C     C_R   0.440206 0.484558 0.204005 0.160054
C25   C     C_R   0.377890 0.444204 0.752896 0.373482
C26   C     C_R   0.386120 0.454418 0.693862 0.246680
C27   C     C_R   0.491519 0.502274 0.670799 -0.261472
C28   C     C_R   0.583889 0.553604 0.708727 0.294288
C29   C     C_R   0.566926 0.561027 0.766421 -0.126363
H4    H     H_    0.635784 0.605264 0.794880 0.221245
C30   C     C_R   0.466765 0.504779 0.789143 0.088341
C31   C     C_3   0.061110 0.633503 0.533709 0.141385
C32   C     C_3   0.058942 0.389511 0.532938 0.120764
H5    H     H_    0.072212 0.600413 0.578194 0.176780
H6    H     H_    0.105233 0.405151 0.574747 0.192860
C33   C     C_3   0.925088 0.640832 0.524866 -0.377704
C34   C     C_3   0.925531 0.401214 0.544443 -0.423767
H7    H     H_    0.889649 0.674038 0.565093 0.251764
H8    H     H_    0.917447 0.430071 0.589459 0.211846
H9    H     H_    0.898182 0.716375 0.493775 0.262651
H10   H     H_    0.875729 0.304816 0.539120 0.246506
H11   H     H_    0.845961 0.539560 0.421758 0.199892
H12   H     H_    0.880930 0.370859 0.434650 0.266860
C35   C     C_3   0.034053 0.514131 0.430885 0.516101
C36   C     C_3   0.111935 0.510784 0.494833 -0.312266
C37   C     C_3   0.870961 0.505307 0.505462 -0.133301
C38   C     C_3   0.905098 0.476343 0.445306 -0.328401
C39   C     C_3   0.620660 0.083673 0.503518 -0.267850
C40   C     C_3   0.618536 0.924975 0.515953 -0.299643
H13   H     H_    0.683732 0.134229 0.533966 0.251457
H14   H     H_    0.645450 0.906617 0.560388 0.215884
H15   H     H_    0.665848 0.105924 0.465186 0.240422
H16   H     H_    0.692523 0.879068 0.496227 0.251081
C41   C     C_3   0.452246 0.083887 0.553564 0.242855
C42   C     C_3   0.423098 0.925071 0.544048 0.095479
C43   C     C_3   0.439597 0.070218 0.444602 0.360837
C44   C     C_3   0.468630 0.905327 0.441500 0.483071
N3    N     N_3   0.500250 0.143650 0.501250 -0.306703
N4    N     N_3   0.500250 0.856350 0.501250 -0.310477
H17   H     H_    0.368531 0.132160 0.560895 0.202967
H18   H     H_    0.334034 0.914253 0.525415 0.187278
N5    N     N_R   0.178318 0.694377 0.928493 0.209110
O13   O     O_R   0.073974 0.637282 0.922535 -0.225809
O14   O     O_R   0.196163 0.812230 0.908181 -0.202051
N6    N     N_R   0.284465 0.422670 0.657586 0.132590
O15   O     O_R   0.285736 0.323563 0.622229 -0.307138
O16   O     O_R   0.185503 0.478561 0.666489 -0.291327
S1    S     S_3+6 0.725528 0.604449 0.689217 0.051249
O17   O     O_2   0.748152 0.748450 0.704560 -0.162510
O18   O     O_2   0.816050 0.524652 0.721199 -0.197389
O19   O     O_3   0.739086 0.582609 0.620276 -0.589847
H19   H     H_    0.737888 0.485154 0.615512 0.330183
N7    N     N_R   0.110058 0.770607 0.540883 0.186412
O20   O     O_R   0.075105 0.860741 0.506198 -0.173158
O21   O     O_R   0.121892 0.814600 0.592904 -0.214685
N8    N     N_R   0.079470 0.250233 0.521009 0.218055
O22   O     O_R   0.007815 0.185262 0.485096 -0.237627
O23   O     O_R   0.118861 0.182705 0.564299 -0.208321
S2    S     S_3+6 0.015043 0.666697 0.384363 0.076899
O24   O     O_2   0.111465 0.690181 0.344683 -0.162642
O25   O     O_2   0.909101 0.640456 0.344301 -0.254698
O26   O     O_3   0.987020 0.811275 0.414833 -0.456660
H20   H     H_    0.973621 0.873730 0.383338 0.428403
S3    S     S_3+6 0.070709 0.394880 0.375763 0.114361
O27   O     O_2   0.052890 0.253399 0.391368 -0.165951
O28   O     O_2   0.989637 0.411095 0.324057 -0.144287
O29   O     O_3   0.208500 0.423086 0.355632 -0.508269
H21   H     H_    0.203281 0.417585 0.313785 0.389362
S4    S     S_3+6 0.158860 0.724446 0.054439 0.137812
O30   O     O_2   0.056036 0.635067 0.067831 -0.159226
O31   O     O_2   0.213333 0.786109 0.108291 -0.221816
O32   O     O_3   0.108981 0.848182 0.013616 -0.436121
H22   H     H_    0.047150 0.889326 0.035172 0.401967
S5    S     S_3+6 0.546721 0.126632 0.620796 0.093945
O33   O     O_2   0.466740 0.170255 0.665304 -0.185224
O34   O     O_2   0.616382 0.015673 0.644451 -0.233004
O35   O     O_3   0.653737 0.244723 0.615513 -0.557598
H23   H     H_    0.682105 0.266558 0.654979 0.385335
S6    S     S_3+6 0.390916 0.848454 0.611919 0.163873
O36   O     O_2   0.317543 0.944426 0.642461 -0.105976
O37   O     O_2   0.317652 0.723203 0.602777 -0.233151
O38   O     O_3   0.503413 0.811573 0.657496 -0.418078
H24   H     H_    0.571249 0.794934 0.634570 0.385669
S7    S     S_3+6 0.279982 0.106212 0.437738 0.150480
O39   O     O_2   0.222241 0.072905 0.490358 -0.215540
O40   O     O_2   0.266431 0.247507 0.426568 -0.175344
O41   O     O_3   0.191782 0.040051 0.384194 -0.349266
H25   H     H_    0.204023 0.094059 0.350345 0.390062
S8    S     S_3+6 0.333356 0.815896 0.407684 0.114965
O42   O     O_2   0.231813 0.841958 0.442181 -0.204079
O43   O     O_2   0.312418 0.871003 0.349654 -0.205076
O44   O     O_3   0.310856 0.653668 0.395033 -0.516818
H26   H     H_    0.238326 0.625633 0.411718 0.389839
S9    S     S_3+6 0.479139 0.136868 0.374254 0.126189
O45   O     O_2   0.601197 0.197281 0.378989 -0.193030
O46   O     O_2   0.474865 0.036185 0.327425 -0.168873
O47   O     O_3   0.385012 0.247396 0.346207 -0.521410
H27   H     H_    0.352840 0.211758 0.309105 0.358124
S10   S     S_3+6 0.598112 0.864731 0.394116 0.092199
O48   O     O_2   0.554701 0.817780 0.336242 -0.214054
O49   O     O_2   0.683902 0.977894 0.386452 -0.222669
O50   O     O_3   0.687576 0.746447 0.416278 -0.553251
H28   H     H_    0.752145 0.748970 0.390162 0.395968
S11   S     S_3+6 0.755884 0.311764 0.068125 0.122239
O51   O     O_2   0.817369 0.225040 0.027780 -0.238870
O52   O     O_2   0.844139 0.411238 0.094927 -0.157409
O53   O     O_3   0.700349 0.215507 0.118339 -0.431301
H29   H     H_    0.769484 0.190926 0.142893 0.413098
N9    N     N_R   0.492044 0.248232 0.203358 0.160699
O54   O     O_R   0.430285 0.226543 0.155972 -0.291144
O55   O     O_R   0.534748 0.146008 0.229106 -0.205382
S12   S     S_3+6 0.690436 0.370573 0.294358 0.173656
O56   O     O_2   0.723025 0.229270 0.284694 -0.094750
O57   O     O_2   0.753202 0.457449 0.253874 -0.154318
O58   O     O_3   0.734017 0.416906 0.359106 -0.519616
H30   H     H_    0.715193 0.511951 0.359052 0.327562
S13   S     S_3+6 0.261981 0.345675 0.780397 0.153032
O59   O     O_2   0.156846 0.429882 0.787186 -0.158972
O60   O     O_2   0.227394 0.232352 0.740362 -0.134999
O61   O     O_3   0.304784 0.282829 0.843436 -0.517270
H31   H     H_    0.231742 0.244787 0.858529 0.400850

loop_
_geom_bond_atom_site_label_1
_geom_bond_atom_site_label_2
_geom_bond_distance
_ccdc_geom_bond_type
S11   O53   1.682597 S    
S1    O17   1.502602 D    
O41   H25   0.988930 S    
C33   H9    1.104564 S    
C7    C10   1.422117 A    
C23   H3    1.083386 S    
C8    C9    1.408883 A    
C39   N3    1.512604 S    
S8    O42   1.480223 D    
N5    O13   1.300915 A    
Cu1   Cu2   2.871731 S    
C4    C27   1.494256 S    
C3    C37   1.529710 S    
C1    C36   1.660677 S    
O35   H23   0.991122 S    
Cu1   O7    1.960896 S    
C39   H13   1.096295 S    
C15   C16   1.392321 A    
O26   H20   0.990845 S    
C43   S7    1.860183 S    
C17   N2    1.367060 A    
N6    O16   1.300981 A    
S5    O33   1.501769 D    
C35   S2    1.914595 S    
O4    C2    1.373450 A    
O7    C4    1.358294 A    
S7    O40   1.463762 D    
O29   H21   0.990540 S    
C34   C37   1.529990 S    
C41   S5    1.906012 S    
S4    O30   1.503316 D    
C32   N8    1.457730 S    
S11   O52   1.503645 D    
C7    C8    1.412416 A    
C41   C42   1.634750 S    
S12   O58   1.642063 S    
O5    C3    1.362808 A    
S6    O36   1.502926 D    
C33   C37   1.534253 S    
H11   C38   1.078648 S    
C19   N9    1.447716 S    
O32   H22   0.990608 S    
C34   H8    1.111514 S    
N1    C6    1.370326 A    
S9    O47   1.686245 S    
C12   C13   1.416582 A    
C2    C21   1.567127 S    
C13   C14   1.419561 A    
N2    C18   1.367339 A    
C39   H15   1.090809 S    
Cu2   O8    1.955187 S    
S5    O35   1.685238 S    
C29   C30   1.394048 A    
C35   C38   1.560298 S    
C42   H18   1.082655 S    
C10   C11   1.418337 A    
N2    C24   1.447186 S    
C23   C24   1.387408 A    
C20   S12   1.761979 S    
O3    Cu1   1.955628 S    
N5    O14   1.301861 A    
C32   H6    1.101758 S    
C40   N4    1.512485 S    
C5    C9    1.396245 A    
C42   S6    1.843028 S    
C6    O10   1.346921 S    
C18   O12   1.342994 S    
C39   C40   1.630359 S    
C25   S13   1.782330 S    
C28   C29   1.392642 A    
S7    O39   1.478984 D    
N9    O54   1.301784 A    
O3    C2    1.381038 A    
C32   C36   1.647869 S    
C22   H2    1.047742 S    
H12   C38   1.112001 S    
S7    O41   1.687842 S    
C16   H1    1.082414 S    
C14   C15   1.424332 A    
C26   C27   1.417935 A    
S10   O50   1.663126 S    
C34   H10   1.110833 S    
C31   H5    1.111077 S    
S6    O38   1.680111 S    
C28   S1    1.762311 S    
C43   C44   1.706927 S    
C20   C21   1.445319 A    
C31   N7    1.477348 S    
S9    O45   1.494634 D    
O61   H31   0.990436 S    
C40   H16   1.097495 S    
N7    O21   1.302644 A    
C6    C7    1.421513 A    
C41   H17   1.104210 S    
S3    O28   1.504161 D    
N8    O23   1.304283 A    
C12   C17   1.418555 A    
N6    O15   1.296609 A    
C43   N3    1.631027 S    
O58   H30   0.988660 S    
O38   H24   0.985683 S    
S10   O49   1.496289 D    
Cu1   N4    2.156755 S    
N9    O55   1.298027 A    
C35   S3    1.838211 S    
C29   H4    1.084152 S    
C10   N5    1.432531 S    
C17   O11   1.346680 S    
S2    O24   1.499144 D    
S2    O25   1.504391 D    
S1    O18   1.503492 D    
Cu2   N3    2.157785 S    
C44   S8    1.889376 S    
C26   N6    1.425361 S    
C15   S11   1.781163 S    
S8    O44   1.667983 S    
S3    O27   1.488599 D    
C25   C26   1.411870 A    
O53   H29   0.990700 S    
C25   C30   1.406530 A    
C14   C18   1.402563 A    
Cu1   O5    2.091671 S    
C27   C28   1.422176 A    
C19   C20   1.419568 A    
O1    Cu1   2.076759 S    
C8    C13   1.410731 A    
S13   O61   1.682259 S    
O2    Cu2   2.091190 S    
C31   C36   1.670605 S    
C44   N4    1.532377 S    
O47   H27   0.991017 S    
O6    C3    1.356334 A    
S8    O43   1.498742 D    
O4    Cu2   1.961319 S    
C43   S9    1.877716 S    
C5    O9    1.350878 S    
C9    C16   1.397234 A    
C44   S10   1.951865 S    
S2    O26   1.666409 S    
S4    O32   1.681540 S    
C33   H7    1.107693 S    
S11   O51   1.503694 D    
O8    C4    1.359672 A    
O50   H28   0.986481 S    
O19   H19   0.987182 S    
C21   C22   1.412383 A    
C11   S4    1.793134 S    
S13   O60   1.503356 D    
N7    O20   1.290086 A    
S4    O31   1.504000 D    
O2    C1    1.416064 A    
S3    O29   1.679623 S    
C31   C33   1.552600 S    
S12   O57   1.501739 D    
O44   H26   0.969907 S    
N1    C30   1.440705 S    
S6    O37   1.496402 D    
S10   O48   1.496105 D    
C35   C36   1.711763 S    
C32   C34   1.563871 S    
S13   O59   1.503045 D    
C22   C23   1.389544 A    
Cu2   O6    2.077241 S    
C37   C38   1.525375 S    
C42   N4    1.549249 S    
S1    O19   1.661801 S    
N8    O22   1.299317 A    
S9    O46   1.491796 D    
C40   H14   1.099066 S    
C41   N3    1.507281 S    
C11   C12   1.426157 A    
C19   C24   1.407383 A    
O1    C1    1.363536 A    
S12   O56   1.501674 D    
C5    N1    1.364737 A    
S5    O34   1.488487 D    
