data_mof_unit_pretest_946.cif
_audit_creation_date              2012-12-11T14:11:06-0500
_audit_creation_method            fapswitch 2.2
_symmetry_space_group_name_H-M    P1
_symmetry_Int_Tables_number       1
_space_group_crystal_system       triclinic
_cell_length_a                    19.662651
_cell_length_b                    17.392861
_cell_length_c                    15.40124
_cell_angle_alpha                 89.999749
_cell_angle_beta                  52.532301
_cell_angle_gamma                 89.999582
_cell_volume                      4180.45161163

loop_
_atom_site_label
_atom_site_type_symbol
_atom_type_description
_atom_site_fract_x
_atom_site_fract_y
_atom_site_fract_z
_atom_type_partial_charge
C1    C     C_R   0.374095 0.196556 0.995809 -0.241920
C2    C     C_3   0.665659 0.723611 0.462830 -0.396268
C3    C     C_3   0.064717 0.518056 0.358361 -0.940856
C4    C     C_3   0.285361 0.492177 0.998827 0.305331
C5    C     C_3   0.328097 0.525199 0.046329 -0.844646
C6    C     C_3   0.943456 0.547098 0.727691 0.363598
C7    C     C_3   0.935296 0.518099 0.641615 -0.940891
C8    C     C_3   0.482706 0.714820 0.670986 0.261980
C9    C     C_3   0.394570 0.691133 0.772338 -0.871980
C10   C     C_3   0.431097 0.244228 0.350753 0.265048
C11   C     C_3   0.484128 0.295772 0.368500 -0.885477
C12   C     C_3   0.517259 0.714746 0.329118 0.261754
C13   C     C_3   0.753346 0.227891 0.444028 -0.362082
C14   C     C_3   0.605377 0.691330 0.227481 -0.871719
C15   C     C_3   0.568946 0.244123 0.649078 0.265065
C16   C     C_3   0.515856 0.295624 0.631383 -0.885411
C17   C     C_3   0.982738 0.214721 0.670944 0.261644
C18   C     C_3   0.894636 0.191315 0.772621 -0.871617
C19   C     C_3   0.931079 0.744190 0.350843 0.265050
C20   C     C_3   0.984180 0.795740 0.368464 -0.885335
C21   C     C_3   0.017341 0.214920 0.328905 0.262318
C22   C     C_3   0.105513 0.190889 0.227929 -0.872329
C23   C     C_3   0.068900 0.744224 0.649231 0.265001
C24   C     C_3   0.334338 0.723604 0.537155 -0.396515
C25   C     C_3   0.015771 0.795776 0.631658 -0.885352
C26   C     C_3   0.746708 0.727932 0.555931 -0.362270
C27   C     C_3   0.165646 0.223588 0.462867 -0.396540
C28   C     C_3   0.253256 0.727963 0.444097 -0.362314
C29   C     C_3   0.834338 0.223627 0.537202 -0.395988
C30   C     C_2   0.189497 0.743541 0.095914 -0.151687
C31   C     C_2   0.716434 0.309640 0.041631 -0.197771
C32   C     C_2   0.810503 0.743541 0.904084 -0.151537
C33   C     C_R   0.660250 0.824238 0.951005 -0.190707
C34   C     C_2   0.283603 0.309659 0.958309 -0.197817
C35   C     C_2   0.689502 0.243544 0.095895 -0.151742
C36   C     C_2   0.216388 0.809664 0.041709 -0.197925
C37   C     C_2   0.310511 0.243546 0.904080 -0.151810
C38   C     C_2   0.783616 0.809666 0.958284 -0.198046
C39   C     C_R   0.390178 0.803856 0.214573 -0.113406
C40   C     C_R   0.651475 0.171408 0.778663 -0.083369
C41   C     C_R   0.609815 0.803853 0.785432 -0.113401
C42   C     C_R   0.348520 0.171403 0.221340 -0.083351
C43   C     C_R   0.890194 0.303850 0.214562 -0.113401
C44   C     C_R   0.625908 0.196553 0.004183 -0.242052
C45   C     C_R   0.151474 0.671409 0.778660 -0.083397
C46   C     C_R   0.109829 0.303858 0.785424 -0.113437
C47   C     C_R   0.848525 0.671409 0.221340 -0.083351
C48   C     C_R   0.325354 0.915224 0.960818 0.482530
C49   C     C_R   0.629572 0.113659 0.108484 0.504758
C50   C     C_R   0.674645 0.915222 0.039183 0.482619
C51   C     C_R   0.370434 0.113660 0.891508 0.504766
C52   C     C_R   0.825369 0.415220 0.960780 0.482588
C53   C     C_R   0.129570 0.613659 0.108487 0.504637
C54   C     C_R   0.174642 0.415222 0.039193 0.482450
C55   C     C_R   0.339752 0.824236 0.048991 -0.190575
C56   C     C_R   0.870425 0.613659 0.891519 0.504205
C57   C     C_R   0.356490 0.079432 0.317071 -0.210630
C58   C     C_R   0.603074 0.895843 0.689277 -0.169523
C59   C     C_R   0.643514 0.079435 0.682929 -0.210652
C60   C     C_R   0.396924 0.895846 0.310724 -0.169491
C61   C     C_R   0.856491 0.579436 0.317073 -0.210624
C62   C     C_R   0.103084 0.395847 0.689271 -0.169408
C63   C     C_R   0.143505 0.579439 0.682926 -0.210683
C64   C     C_R   0.896933 0.395839 0.310719 -0.169533
C65   C     C_R   0.348114 0.186741 0.931629 0.008443
C66   C     C_R   0.874092 0.696556 0.995813 -0.241994
C67   C     C_R   0.714486 0.851867 0.971969 -0.025504
C68   C     C_R   0.651898 0.186736 0.068354 0.008499
C69   C     C_R   0.285514 0.851867 0.028028 -0.025478
C70   C     C_R   0.848107 0.686739 0.931638 0.008670
C71   C     C_R   0.214483 0.351866 0.971981 -0.025428
C72   C     C_R   0.151892 0.686739 0.068364 0.008506
C73   C     C_R   0.785520 0.351871 0.028008 -0.025439
C74   C     C_R   0.373752 0.821472 0.312552 0.114296
C75   C     C_R   0.692686 0.138861 0.676344 0.105973
C76   C     C_R   0.626240 0.821466 0.687453 0.114110
C77   C     C_R   0.160249 0.324237 0.951011 -0.190382
C78   C     C_R   0.307318 0.138858 0.323660 0.105926
C79   C     C_R   0.873776 0.321459 0.312539 0.113872
C80   C     C_R   0.192673 0.638868 0.676339 0.105953
C81   C     C_R   0.126262 0.321474 0.687441 0.114283
C82   C     C_R   0.807321 0.638864 0.323659 0.105961
C83   C     C_3   0.210470 0.154354 0.540454 -0.275233
C84   C     C_3   0.701925 0.797198 0.478958 -0.277460
C85   C     C_3   0.789639 0.154317 0.459540 -0.275020
C86   C     C_3   0.298072 0.797203 0.521050 -0.277474
C87   C     C_3   0.710418 0.654338 0.540458 -0.275164
C88   C     C_R   0.125908 0.696555 0.004186 -0.241957
C89   C     C_3   0.201915 0.297194 0.478950 -0.277540
C90   C     C_3   0.289544 0.654356 0.459546 -0.275240
C91   C     C_3   0.798069 0.297196 0.521035 -0.277421
C92   C     C_3   0.627960 0.698429 0.580724 0.676311
C93   C     C_3   0.283637 0.253756 0.440010 0.689773
C94   C     C_3   0.372012 0.698432 0.419266 0.676390
C95   C     C_3   0.716387 0.253715 0.559912 0.689682
C96   C     C_3   0.127994 0.198423 0.580752 0.676408
C97   C     C_3   0.783627 0.753739 0.440052 0.689711
C98   C     C_3   0.872080 0.198431 0.419298 0.676164
C99   C     C_R   0.839742 0.324249 0.049004 -0.190702
C100  C     C_3   0.216358 0.753759 0.559973 0.689707
C101  C     C_3   0.664182 0.770332 0.595564 -0.030819
C102  C     C_3   0.248573 0.181350 0.423412 -0.021730
C103  C     C_3   0.335792 0.770347 0.404450 -0.030627
C104  C     C_3   0.751449 0.181347 0.576592 -0.021899
C105  C     C_3   0.164217 0.270345 0.595547 -0.030632
C106  C     C_3   0.748566 0.681352 0.423411 -0.021785
C107  C     C_3   0.835854 0.270316 0.404419 -0.031093
C108  C     C_3   0.251419 0.681359 0.576591 -0.021734
C109  C     C_3   0.214620 0.992214 0.001310 0.305205
C110  C     C_3   0.246761 0.227968 0.555882 -0.362304
C111  C     C_3   0.171880 0.025363 0.953878 -0.844614
C112  C     C_3   0.556553 0.047054 0.272289 0.363526
C113  C     C_3   0.564712 0.018065 0.358369 -0.940743
C114  C     C_3   0.785375 0.992210 0.998701 0.305253
C115  C     C_3   0.828124 0.025340 0.046131 -0.844469
C116  C     C_3   0.443445 0.047040 0.727714 0.363590
C117  C     C_3   0.435278 0.018046 0.641642 -0.940771
C118  C     C_3   0.714694 0.492060 0.000722 0.305638
C119  C     C_3   0.672002 0.524700 0.952966 -0.844895
C120  C     C_3   0.056550 0.547058 0.272293 0.363582
H1    H     H_    0.381045 0.250278 0.024813 0.131997
H2    H     H_    0.670546 0.222339 0.798950 0.110145
H3    H     H_    0.507996 0.776772 0.320967 0.088030
H4    H     H_    0.608925 0.699695 0.153291 0.259609
H5    H     H_    0.655492 0.727189 0.219931 0.210741
H6    H     H_    0.617874 0.629954 0.233142 0.250640
H7    H     H_    0.526657 0.221864 0.734089 0.127225
H8    H     H_    0.591179 0.193812 0.593136 0.066203
H9    H     H_    0.556562 0.318640 0.546631 0.252585
H10   H     H_    0.462428 0.262011 0.644053 0.216016
H11   H     H_    0.488673 0.344211 0.690341 0.265974
H12   H     H_    0.984110 0.206640 0.598273 0.083588
H13   H     H_    0.611841 0.747501 0.813449 0.106182
H14   H     H_    0.992008 0.276752 0.679061 0.088076
H15   H     H_    0.891126 0.199687 0.846782 0.259630
H16   H     H_    0.844508 0.227176 0.780204 0.210768
H17   H     H_    0.882126 0.129940 0.766984 0.250600
H18   H     H_    0.973352 0.721900 0.265847 0.127209
H19   H     H_    0.908868 0.693900 0.406819 0.066200
H20   H     H_    0.943482 0.818805 0.453189 0.252592
H21   H     H_    0.037610 0.762152 0.355822 0.215996
H22   H     H_    0.011362 0.844294 0.309450 0.265941
H23   H     H_    0.015641 0.207659 0.401937 0.082803
H24   H     H_    0.329446 0.222334 0.201055 0.110207
H25   H     H_    0.008350 0.276785 0.319619 0.088421
H26   H     H_    0.109344 0.198328 0.153406 0.259654
H27   H     H_    0.155621 0.227031 0.219978 0.210839
H28   H     H_    0.117779 0.129690 0.234827 0.250686
H29   H     H_    0.026648 0.721929 0.734225 0.127218
H30   H     H_    0.091094 0.693940 0.593251 0.066231
H31   H     H_    0.056444 0.818838 0.546931 0.252591
H32   H     H_    0.962325 0.762189 0.644341 0.216001
H33   H     H_    0.988613 0.844330 0.690669 0.265945
H34   H     H_    0.888175 0.247499 0.186540 0.106170
H35   H     H_    0.170544 0.722341 0.798945 0.110204
H36   H     H_    0.111861 0.247505 0.813436 0.106245
H37   H     H_    0.829454 0.722340 0.201054 0.110179
H38   H     H_    0.345223 0.045702 0.383547 0.114073
H39   H     H_    0.598290 0.923802 0.630483 0.085811
H40   H     H_    0.654789 0.045701 0.616450 0.114073
H41   H     H_    0.667391 0.773056 0.906637 0.123383
H42   H     H_    0.401705 0.923804 0.369520 0.085808
H43   H     H_    0.845222 0.545703 0.383549 0.114072
H44   H     H_    0.098304 0.423806 0.630474 0.085805
H45   H     H_    0.154770 0.545711 0.616449 0.114068
H46   H     H_    0.901720 0.423796 0.369511 0.085813
H47   H     H_    0.212804 0.094986 0.564981 0.155077
H48   H     H_    0.699846 0.856432 0.453811 0.148740
H49   H     H_    0.787350 0.094933 0.435020 0.155089
H50   H     H_    0.300168 0.856433 0.546194 0.148738
H51   H     H_    0.712731 0.594962 0.564981 0.155069
H52   H     H_    0.618952 0.250277 0.975187 0.131995
H53   H     H_    0.199812 0.356421 0.453803 0.148741
H54   H     H_    0.287220 0.594984 0.435021 0.155079
H55   H     H_    0.800124 0.356438 0.546183 0.148743
H56   H     H_    0.279541 0.231117 0.594346 0.153391
H57   H     H_    0.633760 0.720368 0.423338 0.146462
H58   H     H_    0.720609 0.230982 0.405502 0.153364
H59   H     H_    0.366254 0.720344 0.576624 0.146545
H60   H     H_    0.779461 0.731054 0.594432 0.153364
H61   H     H_    0.133713 0.220315 0.423421 0.146674
H62   H     H_    0.220491 0.731102 0.405613 0.153384
H63   H     H_    0.332613 0.773052 0.093354 0.123324
H64   H     H_    0.866205 0.220413 0.576736 0.146472
H65   H     H_    0.206336 0.726147 0.148303 0.156450
H66   H     H_    0.698960 0.326975 0.990000 0.156652
H67   H     H_    0.793662 0.726145 0.851699 0.156507
H68   H     H_    0.301117 0.327021 0.009888 0.156616
H69   H     H_    0.706296 0.226177 0.148341 0.156433
H70   H     H_    0.198857 0.827037 0.990151 0.156629
H71   H     H_    0.293686 0.226162 0.851673 0.156433
H72   H     H_    0.801150 0.827040 0.009838 0.156653
H73   H     H_    0.224279 0.039116 0.041825 0.085380
H74   H     H_    0.881040 0.750279 0.024818 0.132003
H75   H     H_    0.168609 0.950847 0.065942 0.076559
H76   H     H_    0.162454 0.979345 0.912122 0.245175
H77   H     H_    0.108455 0.049794 0.020719 0.207920
H78   H     H_    0.211471 0.071791 0.894462 0.278141
H79   H     H_    0.547324 0.995852 0.238350 0.116864
H80   H     H_    0.500025 0.085461 0.312556 0.041976
H81   H     H_    0.569116 0.067342 0.400606 0.252993
H82   H     H_    0.507670 0.982657 0.418464 0.205108
H83   H     H_    0.622923 0.981775 0.319848 0.284506
H84   H     H_    0.775710 0.039122 0.958205 0.085204
H85   H     H_    0.167390 0.273051 0.906649 0.123274
H86   H     H_    0.831384 0.950851 0.934052 0.076485
H87   H     H_    0.837564 0.979306 0.087856 0.245107
H88   H     H_    0.891542 0.049783 0.979293 0.207978
H89   H     H_    0.788530 0.071754 0.105574 0.278156
H90   H     H_    0.452666 0.995839 0.761662 0.116846
H91   H     H_    0.499981 0.085437 0.687435 0.041935
H92   H     H_    0.430874 0.067321 0.599402 0.253006
H93   H     H_    0.492317 0.982635 0.581547 0.205099
H94   H     H_    0.377065 0.981759 0.680172 0.284508
H95   H     H_    0.724234 0.539240 0.040997 0.085531
H96   H     H_    0.118963 0.750278 0.975178 0.132009
H97   H     H_    0.668710 0.450817 0.065608 0.076192
H98   H     H_    0.662492 0.478348 0.911694 0.244823
H99   H     H_    0.608620 0.549342 0.019557 0.207961
H100  H     H_    0.711690 0.570858 0.893053 0.278515
H101  H     H_    0.047309 0.495861 0.238359 0.116850
H102  H     H_    0.000026 0.585471 0.312570 0.041956
H103  H     H_    0.069132 0.567327 0.400596 0.253011
H104  H     H_    0.007673 0.482652 0.418459 0.205116
H105  H     H_    0.122924 0.481759 0.319831 0.284534
H106  H     H_    0.275725 0.539149 0.958378 0.085361
H107  H     H_    0.832596 0.273066 0.093374 0.123359
H108  H     H_    0.331363 0.450841 0.934128 0.076456
H109  H     H_    0.337554 0.479097 0.087955 0.245075
H110  H     H_    0.391509 0.549685 0.979544 0.207947
H111  H     H_    0.288484 0.571559 0.105871 0.278234
H112  H     H_    0.952743 0.495903 0.761586 0.116968
H113  H     H_    0.999955 0.585540 0.687430 0.041953
H114  H     H_    0.930860 0.567371 0.599400 0.252960
H115  H     H_    0.992355 0.482714 0.581503 0.205166
H116  H     H_    0.877105 0.481783 0.680133 0.284600
H117  H     H_    0.484236 0.707112 0.598143 0.083128
H118  H     H_    0.388147 0.747504 0.186562 0.106226
H119  H     H_    0.491849 0.776778 0.679633 0.088201
H120  H     H_    0.390904 0.699087 0.846672 0.259633
H121  H     H_    0.344457 0.727121 0.780071 0.210789
H122  H     H_    0.382173 0.629833 0.766133 0.250654
H123  H     H_    0.473413 0.221997 0.265727 0.127251
H124  H     H_    0.408908 0.193897 0.406655 0.066228
H125  H     H_    0.443387 0.318767 0.453264 0.252580
H126  H     H_    0.537577 0.262201 0.355831 0.216020
H127  H     H_    0.511279 0.344374 0.309567 0.265979
H128  H     H_    0.515855 0.706688 0.401816 0.083447
N1    N     N_R   0.408680 0.130810 0.995780 -0.065572
N2    N     N_R   0.578590 0.132790 0.846380 -0.045207
N3    N     N_R   0.578590 0.867210 0.846380 -0.037936
N4    N     N_R   0.421410 0.132790 0.153620 -0.045225
N5    N     N_R   0.921410 0.367210 0.153620 -0.037917
N6    N     N_R   0.078590 0.632790 0.846380 -0.045216
N7    N     N_R   0.078590 0.367210 0.846380 -0.037973
N8    N     N_R   0.921410 0.632790 0.153620 -0.045215
N9    N     N_R   0.403840 0.921910 0.935760 -0.103835
N10   N     N_R   0.596160 0.078090 0.064240 -0.119037
N11   N     N_R   0.596160 0.921910 0.064240 -0.103819
N12   N     N_R   0.591320 0.869190 0.004220 -0.065267
N13   N     N_R   0.403840 0.078090 0.935760 -0.119027
N14   N     N_R   0.903840 0.421910 0.935760 -0.103744
N15   N     N_R   0.096160 0.578090 0.064240 -0.119032
N16   N     N_R   0.096160 0.421910 0.064240 -0.103838
N17   N     N_R   0.903840 0.578090 0.935760 -0.119055
N18   N     N_R   0.426250 0.076100 0.213650 -0.068786
N19   N     N_R   0.573750 0.923900 0.786350 -0.043808
N20   N     N_R   0.573750 0.076100 0.786350 -0.068782
N21   N     N_R   0.426250 0.923900 0.213650 -0.043821
N22   N     N_R   0.926250 0.576100 0.213650 -0.068782
N23   N     N_R   0.591320 0.130810 0.004220 -0.065569
N24   N     N_R   0.073750 0.423900 0.786350 -0.043821
N25   N     N_R   0.073750 0.576100 0.786350 -0.068777
N26   N     N_R   0.926250 0.423900 0.213650 -0.043792
N27   N     N_R   0.408680 0.869190 0.995780 -0.065276
N28   N     N_R   0.908680 0.630810 0.995780 -0.065547
N29   N     N_R   0.091320 0.369190 0.004220 -0.065293
N30   N     N_R   0.091320 0.630810 0.004220 -0.065568
N31   N     N_R   0.908680 0.369190 0.995780 -0.065256
N32   N     N_R   0.421410 0.867210 0.153620 -0.037961
Ni1   Ni    Ni4+2 0.500000 0.131570 0.000000 0.192304
Ni2   Ni    Ni4+2 0.500000 0.868430 0.000000 0.201644
Ni3   Ni    Ni4+2 0.000000 0.631570 0.000000 0.192323
Ni4   Ni    Ni4+2 0.000000 0.368430 0.000000 0.201649
Ni5   Ni    Ni4+2 0.488900 1.000000 0.862310 0.199734
Ni6   Ni    Ni4+2 0.511100 1.000000 0.137690 0.199750
Ni7   Ni    Ni4+2 0.988900 0.500000 0.862310 0.199780
Ni8   Ni    Ni4+2 0.011100 0.500000 0.137690 0.199716
O1    O     O_3   0.294506 0.958658 0.916357 -0.629081
O2    O     O_3   0.364839 0.287833 0.363323 -0.642518
O3    O     O_3   0.454309 0.668161 0.338449 -0.633939
O4    O     O_3   0.635164 0.287782 0.636524 -0.642488
O5    O     O_3   0.045705 0.168146 0.661588 -0.633958
O6    O     O_3   0.864837 0.787815 0.363403 -0.642494
O7    O     O_3   0.954382 0.168107 0.338605 -0.633931
O8    O     O_3   0.135156 0.787845 0.636635 -0.642492
O9    O     O_3   0.631502 0.087383 0.192020 -0.631741
O10   O     O_3   0.705490 0.958650 0.083651 -0.629064
O11   O     O_3   0.368504 0.087383 0.807973 -0.631746
O12   O     O_3   0.794659 0.458491 0.916023 -0.629198
O13   O     O_3   0.131503 0.587381 0.192018 -0.631764
O14   O     O_3   0.205457 0.458617 0.083722 -0.629108
O15   O     O_3   0.868477 0.587375 0.808004 -0.631867
O16   O     O_3   0.545662 0.668135 0.661489 -0.633944

loop_
_geom_bond_atom_site_label_1
_geom_bond_atom_site_label_2
_ccdc_geom_bond_type
C105  C110  S    
C8    O16   S    
C3    H104  S    
C83   C102  S    
C46   N7    A    
C19   C20   S    
C96   C105  S    
C54   O14   S    
C114  C115  S    
C12   O3    S    
C25   H32   S    
C49   C68   A    
C61   C82   A    
C86   C103  S    
C15   O4    S    
C39   C74   A    
N27   Ni2   S    
C48   O1    S    
C2    C84   S    
C5    H111  S    
C118  H95   S    
C2    H57   S    
C113  H81   S    
C111  H76   S    
C63   C80   A    
C43   N5    A    
C23   H29   S    
C15   H7    S    
C21   C22   S    
C92   O16   S    
C66   H74   S    
N13   Ni5   S    
N9    N27   A    
C97   O6    S    
C11   H125  S    
C91   C107  S    
C19   O6    S    
C109  H73   S    
C85   H49   S    
N21   N32   A    
N3    Ni2   S    
C18   H17   S    
C33   H41   S    
C44   H52   S    
C84   H48   S    
C77   H85   S    
C59   H40   S    
N17   N28   A    
C87   H51   S    
C41   N3    A    
C118  H97   S    
C117  H93   S    
C16   H9    S    
C62   C81   A    
C22   H28   S    
N25   Ni7   S    
C64   C79   A    
N26   Ni8   S    
C23   O8    S    
N3    N19   A    
C120  O13   S    
C29   C91   S    
C7    H116  S    
C120  H102  S    
C57   C78   A    
C117  H92   S    
C10   H123  S    
C4    C5    S    
C6    C7    S    
C110  H56   S    
C40   H2    S    
C90   H54   S    
C14   H6    S    
C30   C36   D    
C47   N8    A    
C50   O10   S    
N4    Ni1   S    
C41   C76   A    
C66   C70   A    
N14   N31   A    
C45   C80   A    
C113  H83   S    
C38   C67   S    
C19   H19   S    
C13   C85   S    
C112  H80   S    
C6    H112  S    
C98   O7    S    
C9    H121  S    
C41   H13   S    
C58   C76   A    
C10   O2    S    
C17   O5    S    
C93   O2    S    
C36   H70   S    
C116  H91   S    
C58   H39   S    
C109  C111  S    
C1    N1    A    
C56   O15   S    
C13   H58   S    
C16   H11   S    
C28   H62   S    
C96   O5    S    
C99   N31   A    
C39   N32   A    
C63   N25   A    
C22   H26   S    
C26   C87   S    
C37   C65   S    
C58   N19   A    
C1    C65   A    
C18   H16   S    
C60   N21   A    
C43   H34   S    
C50   C67   A    
C7    H114  S    
C115  H88   S    
N16   N29   A    
N7    N24   A    
C81   C105  S    
C100  C108  S    
C14   H4    S    
N16   Ni8   S    
C30   H65   S    
N21   Ni6   S    
C32   C70   S    
C83   H47   S    
C2    C106  S    
C29   C104  S    
N11   Ni6   S    
C34   H68   S    
C27   H61   S    
C40   N2    A    
C17   C18   S    
C83   C110  S    
C4    O14   S    
C55   C69   A    
N4    N18   A    
N29   Ni4   S    
C57   N18   A    
N30   Ni3   S    
C119  H100  S    
N2    Ni1   S    
C114  H84   S    
C71   C77   A    
C86   C100  S    
C47   H37   S    
C3    H103  S    
C32   H67   S    
C86   H50   S    
C20   H21   S    
C30   C72   S    
N15   N30   A    
C46   H36   S    
C93   C110  S    
C27   C102  S    
C38   H72   S    
C53   N15   A    
C25   H31   S    
C52   O12   S    
C61   N22   A    
C53   O13   S    
C12   H3    S    
C83   C96   S    
C109  H75   S    
C82   C106  S    
C89   C93   S    
C1    H1    S    
C10   C11   S    
N17   Ni7   S    
C26   C97   S    
C91   C95   S    
C63   H45   S    
N19   Ni5   S    
C89   C105  S    
C5    H110  S    
C24   C86   S    
C99   H107  S    
C57   H38   S    
C29   H64   S    
N20   Ni5   S    
C78   C102  S    
C34   C37   D    
C66   N28   A    
C21   O7    S    
C89   H53   S    
C100  O8    S    
C51   O11   S    
C109  O1    S    
C95   C104  S    
N24   Ni7   S    
C51   N13   A    
N1    Ni1   S    
C29   C98   S    
C84   C97   S    
C111  H78   S    
N23   Ni1   S    
C51   C65   A    
C116  H90   S    
C62   H44   S    
C54   C71   A    
C116  O11   S    
N2    N20   A    
C119  H98   S    
C24   C108  S    
C4    H106  S    
C16   H10   S    
N8    Ni3   S    
C45   N6    A    
C42   N4    A    
C35   H69   S    
C87   C92   S    
C17   H12   S    
C27   C96   S    
C94   O3    S    
N6    N25   A    
C90   C94   S    
C7    H115  S    
C48   N9    A    
C115  H89   S    
C25   H33   S    
C10   H124  S    
C64   N26   A    
C12   H128  S    
N8    N22   A    
C98   C107  S    
C21   H25   S    
N18   Ni6   S    
N9    Ni5   S    
C79   C107  S    
C113  H82   S    
C85   C104  S    
C92   C101  S    
C44   N23   A    
C97   C106  S    
C23   H30   S    
C94   C103  S    
C15   H8    S    
C42   H24   S    
C75   C104  S    
C31   C35   D    
C52   N14   A    
C80   C108  S    
N15   Ni8   S    
C11   H126  S    
C64   H46   S    
C93   C102  S    
C26   H60   S    
C55   N27   A    
C40   C75   A    
N5    N26   A    
C54   N16   A    
C20   H20   S    
C28   C103  S    
C4    H108  S    
C117  H94   S    
C90   C108  S    
C22   H27   S    
C17   H14   S    
C114  O10   S    
C55   H63   S    
C28   C90   S    
C53   C72   A    
C120  H101  S    
C115  H87   S    
C48   C69   A    
C13   C107  S    
C8    H117  S    
C14   H5    S    
C59   N20   A    
C13   C95   S    
N32   Ni2   S    
C26   C101  S    
C31   C73   S    
C50   N11   A    
C43   C79   A    
C15   C16   S    
C116  C117  S    
C33   N12   A    
C47   C82   A    
C77   N29   A    
C118  C119  S    
C85   C98   S    
C8    C9    S    
N7    Ni4   S    
C27   C89   S    
C45   H35   S    
C32   C38   D    
C3    H105  S    
C112  H79   S    
N5    Ni4   S    
N6    Ni3   S    
C28   C100  S    
N14   Ni7   S    
C119  H99   S    
C84   C101  S    
C9    H120  S    
C9    H122  S    
C112  C113  S    
C72   C88   A    
C20   H22   S    
C21   H23   S    
C52   C73   A    
C3    C120  S    
N31   Ni4   S    
C114  H86   S    
C49   O9    S    
N10   N23   A    
C24   C94   S    
C46   C81   A    
C49   N10   A    
C60   H42   S    
C24   H59   S    
C91   H55   S    
C18   H15   S    
C95   O4    S    
C2    C92   S    
C56   N17   A    
C37   H71   S    
C6    H113  S    
C12   C14   S    
C42   C78   A    
C56   C70   A    
C5    H109  S    
C44   C68   A    
N11   N12   A    
C59   C75   A    
C36   C69   S    
C33   C67   A    
C8    H119  S    
C76   C101  S    
C73   C99   A    
C88   H96   S    
C61   H43   S    
N22   Ni8   S    
N12   Ni2   S    
N28   Ni3   S    
C112  O9    S    
N10   Ni6   S    
C11   H127  S    
C111  H77   S    
C87   C106  S    
C88   N30   A    
C35   C68   S    
C19   H18   S    
C31   H66   S    
C60   C74   A    
C118  O12   S    
C23   C25   S    
C6    O15   S    
N1    N13   A    
C34   C71   S    
C39   H118  S    
C62   N24   A    
C74   C103  S    
