data_mof_unit_pretest_1521.cif
_audit_creation_date              2012-12-10T19:41:38-0500
_audit_creation_method            fapswitch 2.2
_symmetry_space_group_name_H-M    P1
_symmetry_Int_Tables_number       1
_space_group_crystal_system       triclinic
_cell_length_a                    18.266061
_cell_length_b                    30.585764
_cell_length_c                    30.656755
_cell_angle_alpha                 90.001015
_cell_angle_beta                  90.597929
_cell_angle_gamma                 89.970399
_cell_volume                      17126.4248326

loop_
_atom_site_label
_atom_site_type_symbol
_atom_type_description
_atom_site_fract_x
_atom_site_fract_y
_atom_site_fract_z
_atom_type_partial_charge
C1    C     C_R   0.500754 0.689852 0.309949 0.875126
C2    C     C_R   0.556299 0.623419 0.595619 0.147656
C3    C     C_R   0.141024 0.749827 0.250048 0.931612
C4    C     C_R   0.358977 0.249828 0.749971 0.931747
C5    C     C_R   0.358976 0.250147 0.249972 0.927220
C6    C     C_R   0.641025 0.250145 0.750008 0.927462
C7    C     C_R   0.641024 0.249827 0.250047 0.931512
C8    C     C_3   0.427373 0.910112 0.192841 -0.456034
C9    C     C_3   0.572597 0.910079 0.807144 -0.455702
C10   C     C_3   0.927372 0.410112 0.192841 -0.456096
C11   C     C_3   0.072595 0.410080 0.807144 -0.455786
C12   C     C_3   0.926782 0.909905 0.692685 -0.459184
C13   C     C_R   0.947264 0.125660 0.406800 0.147597
C14   C     C_3   0.072027 0.910223 0.306989 -0.455354
C15   C     C_3   0.427302 0.410091 0.692820 -0.455964
C16   C     C_3   0.572524 0.410099 0.307124 -0.455995
C17   C     C_R   0.499709 0.939323 0.940662 0.886621
C18   C     C_R   0.500317 0.939324 0.059338 0.886680
C19   C     C_R   0.999709 0.439323 0.940662 0.886679
C20   C     C_R   0.000317 0.439324 0.059338 0.886657
C21   C     C_R   0.999709 0.939339 0.440648 0.886698
C22   C     C_R   0.000317 0.939305 0.559323 0.886502
C23   C     C_R   0.499709 0.439326 0.440660 0.886644
C24   C     C_R   0.937897 0.117413 0.601411 0.152897
C25   C     C_R   0.500317 0.439320 0.559335 0.886594
C26   C     C_R   0.499640 0.560175 0.439807 0.880653
C27   C     C_R   0.500337 0.560178 0.560191 0.880677
C28   C     C_R   0.999639 0.060211 0.439888 0.882399
C29   C     C_R   0.000121 0.060136 0.560356 0.880788
C30   C     C_R   0.999640 0.560176 0.939807 0.880675
C31   C     C_R   0.000337 0.560177 0.060191 0.880695
C32   C     C_R   0.499640 0.060176 0.939807 0.880641
C33   C     C_R   0.500337 0.060178 0.060191 0.880724
C34   C     C_R   0.500624 0.809972 0.189979 0.895477
C35   C     C_R   0.943662 0.623453 0.904380 0.147563
C36   C     C_R   0.499378 0.809972 0.810021 0.895486
C37   C     C_R   0.000624 0.309972 0.189979 0.895495
C38   C     C_R   0.999377 0.309972 0.810021 0.895405
C39   C     C_R   0.000649 0.809969 0.689981 0.895335
C40   C     C_R   0.999375 0.809972 0.310022 0.895531
C41   C     C_R   0.500630 0.309972 0.689980 0.895692
C42   C     C_R   0.499378 0.309972 0.310021 0.895437
C43   C     C_1   0.282418 0.749518 0.249973 -0.194964
C44   C     C_1   0.282417 0.750445 0.749936 -0.191392
C45   C     C_1   0.717582 0.750440 0.250018 -0.191195
C46   C     C_R   0.056301 0.623418 0.095621 0.147664
C47   C     C_1   0.717583 0.749514 0.750073 -0.194931
C48   C     C_1   0.782418 0.249520 0.249970 -0.194780
C49   C     C_1   0.782418 0.250433 0.749918 -0.192880
C50   C     C_1   0.217582 0.250441 0.250017 -0.191010
C51   C     C_1   0.217584 0.249517 0.750084 -0.194191
C52   C     C_1   0.782418 0.749518 0.749973 -0.194937
C53   C     C_1   0.782417 0.750445 0.249936 -0.191192
C54   C     C_1   0.217582 0.750440 0.750018 -0.191379
C55   C     C_1   0.217583 0.749513 0.250073 -0.194961
C56   C     C_1   0.282419 0.249517 0.749980 -0.195000
C57   C     C_R   0.443655 0.123449 0.904375 0.147200
C58   C     C_1   0.282417 0.250445 0.249936 -0.190961
C59   C     C_1   0.717584 0.250437 0.750006 -0.191972
C60   C     C_1   0.717583 0.249514 0.250072 -0.194754
C61   C     C_R   0.445016 0.655859 0.373364 0.109536
C62   C     C_R   0.554958 0.655823 0.626637 0.109476
C63   C     C_R   0.948504 0.157929 0.375615 0.113136
C64   C     C_R   0.938656 0.149833 0.632388 0.100963
C65   C     C_R   0.945021 0.655862 0.873368 0.109516
C66   C     C_R   0.054960 0.655822 0.126638 0.109470
C67   C     C_R   0.445013 0.155857 0.873363 0.108656
C68   C     C_R   0.556298 0.123420 0.095618 0.147639
C69   C     C_R   0.554957 0.155823 0.126636 0.109473
C70   C     C_R   0.499584 0.656177 0.342068 -0.082673
C71   C     C_R   0.500387 0.656180 0.657930 -0.082664
C72   C     C_R   0.999213 0.156107 0.342111 -0.087833
C73   C     C_R   0.000713 0.156359 0.658096 -0.071614
C74   C     C_R   0.999584 0.656177 0.842068 -0.082693
C75   C     C_R   0.000387 0.656180 0.157930 -0.082633
C76   C     C_R   0.499583 0.156177 0.842068 -0.082797
C77   C     C_R   0.500387 0.156180 0.157930 -0.082632
C78   C     C_R   0.547759 0.620623 0.338755 -0.211453
C79   C     C_3   0.421327 0.654499 0.439420 -0.502649
C80   C     C_R   0.452182 0.620670 0.661231 -0.211478
C81   C     C_R   0.043218 0.118835 0.337159 -0.209041
C82   C     C_R   0.058602 0.126329 0.656820 -0.215888
C83   C     C_R   0.047753 0.620620 0.838753 -0.211435
C84   C     C_R   0.952179 0.620671 0.161230 -0.211472
C85   C     C_R   0.547760 0.120624 0.838756 -0.211266
C86   C     C_R   0.452183 0.120669 0.161232 -0.211434
C87   C     C_R   0.547736 0.588442 0.370863 -0.223275
C88   C     C_R   0.452189 0.588494 0.629117 -0.223300
C89   C     C_R   0.043400 0.086768 0.369366 -0.224420
C90   C     C_3   0.578652 0.654455 0.560583 -0.502557
C91   C     C_R   0.058545 0.093960 0.624866 -0.215980
C92   C     C_R   0.047730 0.588440 0.870861 -0.223272
C93   C     C_R   0.952187 0.588495 0.129116 -0.223310
C94   C     C_R   0.547737 0.088444 0.870864 -0.223244
C95   C     C_R   0.452190 0.088494 0.129117 -0.223332
C96   C     C_R   0.497920 0.591420 0.405205 -0.095640
C97   C     C_R   0.502018 0.591434 0.594781 -0.095708
C98   C     C_R   0.997870 0.091629 0.405526 -0.089812
C99   C     C_R   0.999530 0.091253 0.595297 -0.110040
C100  C     C_R   0.997920 0.591421 0.905205 -0.095638
C101  C     C_3   0.933152 0.157604 0.442582 -0.524670
C102  C     C_R   0.002018 0.591434 0.094782 -0.095700
C103  C     C_R   0.497920 0.091420 0.905205 -0.095678
C104  C     C_R   0.502018 0.091434 0.094781 -0.095708
C105  C     C_3   0.574157 0.853183 0.041037 -0.894670
C106  C     C_3   0.425977 0.853205 0.958991 -0.894686
C107  C     C_3   0.074158 0.353183 0.041037 -0.894720
C108  C     C_3   0.925978 0.353205 0.958991 -0.894552
C109  C     C_3   0.074696 0.853282 0.541161 -0.895046
C110  C     C_3   0.926481 0.853111 0.459119 -0.894612
C111  C     C_3   0.574248 0.353197 0.541058 -0.895427
C112  C     C_R   0.499237 0.689854 0.690052 0.875187
C113  C     C_3   0.897064 0.145276 0.569364 -0.488525
C114  C     C_3   0.426054 0.353192 0.459010 -0.893465
C115  C     C_3   0.921343 0.654503 0.939424 -0.502640
C116  C     C_3   0.078659 0.654452 0.060585 -0.502560
C117  C     C_3   0.421321 0.154497 0.939417 -0.502377
C118  C     C_3   0.578648 0.154455 0.060582 -0.502504
C119  C     C_3   0.423108 0.690319 0.405152 -0.470465
C120  C     C_3   0.576890 0.690271 0.594858 -0.470495
C121  C     C_3   0.934479 0.193211 0.408126 -0.457603
C122  C     C_3   0.898007 0.181085 0.603661 -0.487372
C123  C     C_3   0.923125 0.690324 0.905157 -0.470417
C124  C     C_R   0.000760 0.189826 0.309965 0.875267
C125  C     C_3   0.076898 0.690269 0.094860 -0.470497
C126  C     C_3   0.423101 0.190317 0.905149 -0.470255
C127  C     C_3   0.576887 0.190271 0.094857 -0.470493
C128  C     C_R   0.470238 0.882549 0.162237 0.133935
C129  C     C_R   0.529808 0.882524 0.837769 0.133634
C130  C     C_R   0.970238 0.382549 0.162237 0.133962
C131  C     C_R   0.029807 0.382524 0.837768 0.133899
C132  C     C_R   0.970011 0.882459 0.662166 0.132869
C133  C     C_R   0.029582 0.882583 0.337709 0.134156
C134  C     C_R   0.470214 0.382540 0.662228 0.134114
C135  C     C_R   0.000829 0.189914 0.690124 0.875162
C136  C     C_R   0.529777 0.382533 0.337760 0.133966
C137  C     C_R   0.503174 0.842349 0.156760 -0.149869
C138  C     C_R   0.496864 0.842346 0.843245 -0.149874
C139  C     C_R   0.003174 0.342349 0.156760 -0.149879
C140  C     C_R   0.996863 0.342346 0.843245 -0.149860
C141  C     C_R   0.003222 0.842337 0.656763 -0.148742
C142  C     C_R   0.996876 0.842345 0.343252 -0.150154
C143  C     C_R   0.503186 0.342349 0.656762 -0.149557
C144  C     C_R   0.496866 0.342346 0.343246 -0.149898
C145  C     C_R   0.537449 0.833396 0.116777 -0.222011
C146  C     C_R   0.000755 0.689852 0.809949 0.875150
C147  C     C_R   0.462631 0.833407 0.883239 -0.222090
C148  C     C_R   0.037449 0.333396 0.116777 -0.222023
C149  C     C_R   0.962630 0.333407 0.883239 -0.222057
C150  C     C_R   0.037753 0.833445 0.616847 -0.222311
C151  C     C_R   0.962886 0.833352 0.383311 -0.222009
C152  C     C_R   0.537501 0.333405 0.616789 -0.222266
C153  C     C_R   0.462666 0.333400 0.383249 -0.221904
C154  C     C_R   0.537366 0.864800 0.083298 0.167981
C155  C     C_R   0.462737 0.864806 0.916722 0.168017
C156  C     C_R   0.037366 0.364800 0.083298 0.168011
C157  C     C_R   0.999238 0.689854 0.190052 0.875147
C158  C     C_R   0.962737 0.364806 0.916722 0.167994
C159  C     C_R   0.037648 0.864841 0.583358 0.168462
C160  C     C_R   0.962989 0.864761 0.416784 0.167864
C161  C     C_R   0.537414 0.364806 0.583308 0.168496
C162  C     C_R   0.462773 0.364800 0.416730 0.167439
C163  C     C_R   0.501394 0.905279 0.090587 -0.100158
C164  C     C_R   0.498687 0.905268 0.909427 -0.100142
C165  C     C_R   0.001394 0.405279 0.090587 -0.100156
C166  C     C_R   0.998687 0.405268 0.909427 -0.100153
C167  C     C_R   0.001399 0.905249 0.590570 -0.100516
C168  C     C_R   0.500754 0.189852 0.809949 0.875200
C169  C     C_R   0.998688 0.905286 0.409414 -0.099983
C170  C     C_R   0.501399 0.405275 0.590584 -0.100084
C171  C     C_R   0.498688 0.405271 0.409425 -0.100117
C172  C     C_R   0.468329 0.912307 0.130272 0.082889
C173  C     C_R   0.531740 0.912276 0.869739 0.082570
C174  C     C_R   0.968328 0.412307 0.130271 0.082901
C175  C     C_R   0.031739 0.412277 0.869739 0.082850
C176  C     C_R   0.968071 0.912202 0.630190 0.077987
C177  C     C_R   0.031501 0.912350 0.369665 0.083124
C178  C     C_R   0.468301 0.412295 0.630260 0.082964
C179  C     C_R   0.499238 0.189854 0.190052 0.875078
C180  C     C_R   0.531708 0.412287 0.369728 0.082913
C181  C     C_3   0.425998 0.944593 0.156196 -0.499102
C182  C     C_3   0.573993 0.944555 0.843794 -0.498742
C183  C     C_3   0.925997 0.444592 0.156196 -0.499103
C184  C     C_3   0.073992 0.444556 0.843794 -0.499212
C185  C     C_3   0.925367 0.944376 0.656034 -0.488040
C186  C     C_3   0.073399 0.944716 0.343623 -0.500553
C187  C     C_3   0.425922 0.444569 0.656172 -0.499008
C188  C     C_3   0.573920 0.444577 0.343773 -0.499228
C189  C     C_R   0.358976 0.749830 0.249968 0.931587
C190  C     C_R   0.443657 0.623450 0.404377 0.147586
C191  C     C_R   0.358975 0.750147 0.749972 0.927257
C192  C     C_R   0.641024 0.750144 0.250012 0.927287
C193  C     C_R   0.641024 0.749827 0.750048 0.931651
C194  C     C_R   0.858976 0.249832 0.249966 0.931902
C195  C     C_R   0.858976 0.250131 0.749954 0.929710
C196  C     C_R   0.141024 0.250145 0.250011 0.927818
C197  C     C_R   0.141025 0.249836 0.750058 0.927065
C198  C     C_R   0.858976 0.749830 0.749968 0.931663
C199  C     C_R   0.858976 0.750147 0.249972 0.927286
C200  C     C_R   0.141024 0.750144 0.750012 0.927135
H1    H     H_    0.587514 0.619014 0.312814 0.155871
H2    H     H_    0.412535 0.562201 0.630426 0.158036
H3    H     H_    0.866222 0.349452 0.953187 0.247189
H4    H     H_    0.066031 0.877981 0.515217 0.248947
H5    H     H_    0.134454 0.849663 0.547068 0.246944
H6    H     H_    0.052745 0.821754 0.528745 0.235605
H7    H     H_    0.949018 0.821716 0.471533 0.235621
H8    H     H_    0.934972 0.877913 0.484981 0.248525
H9    H     H_    0.866734 0.849193 0.453401 0.247153
H10   H     H_    0.565682 0.377946 0.515150 0.248788
H11   H     H_    0.633999 0.349425 0.546895 0.246797
H12   H     H_    0.552042 0.321735 0.528636 0.235616
H13   H     H_    0.079947 0.059002 0.366668 0.154707
H14   H     H_    0.448349 0.321733 0.471418 0.235646
H15   H     H_    0.434627 0.377945 0.484909 0.248537
H16   H     H_    0.366299 0.349415 0.453219 0.247370
H17   H     H_    0.105015 0.072102 0.622493 0.167603
H18   H     H_    0.087367 0.562114 0.869544 0.157991
H19   H     H_    0.912531 0.562203 0.130424 0.158017
H20   H     H_    0.587380 0.062120 0.869550 0.158253
H21   H     H_    0.412538 0.062200 0.130427 0.158013
H22   H     H_    0.365333 0.647539 0.451450 0.210994
H23   H     H_    0.536056 0.658333 0.534712 0.191514
H24   H     H_    0.463928 0.658337 0.465290 0.191519
H25   H     H_    0.412421 0.619092 0.687170 0.155879
H26   H     H_    0.634643 0.647450 0.548553 0.211002
H27   H     H_    0.878318 0.152946 0.457265 0.209213
H28   H     H_    0.841299 0.132417 0.562258 0.207350
H29   H     H_    0.979490 0.159760 0.466303 0.195940
H30   H     H_    0.930067 0.153307 0.540224 0.195627
H31   H     H_    0.865350 0.647547 0.951458 0.210992
H32   H     H_    0.036065 0.658332 0.034714 0.191519
H33   H     H_    0.963949 0.658340 0.965292 0.191521
H34   H     H_    0.134651 0.647446 0.048557 0.210996
H35   H     H_    0.365327 0.147536 0.951446 0.210817
H36   H     H_    0.079881 0.115713 0.309773 0.158543
H37   H     H_    0.536052 0.158333 0.034712 0.191520
H38   H     H_    0.463919 0.158337 0.965288 0.191556
H39   H     H_    0.634639 0.147451 0.048552 0.211034
H40   H     H_    0.368144 0.704081 0.397445 0.203807
H41   H     H_    0.533129 0.714920 0.588907 0.216949
H42   H     H_    0.466885 0.714930 0.411106 0.216955
H43   H     H_    0.631862 0.703985 0.602569 0.203818
H44   H     H_    0.880347 0.209068 0.402818 0.203008
H45   H     H_    0.842790 0.188840 0.616463 0.203121
H46   H     H_    0.981415 0.216081 0.411997 0.216175
H47   H     H_    0.104959 0.129278 0.678971 0.150940
H48   H     H_    0.931474 0.209915 0.594351 0.218894
H49   H     H_    0.868161 0.704089 0.897453 0.203814
H50   H     H_    0.033139 0.714919 0.088908 0.216976
H51   H     H_    0.966907 0.714932 0.911108 0.216956
H52   H     H_    0.131870 0.703981 0.102573 0.203805
H53   H     H_    0.368137 0.204077 0.897441 0.203592
H54   H     H_    0.533125 0.214919 0.088907 0.216976
H55   H     H_    0.466875 0.214929 0.911104 0.217037
H56   H     H_    0.631858 0.203986 0.102568 0.203815
H57   H     H_    0.564132 0.802176 0.111571 0.174162
H58   H     H_    0.087504 0.619009 0.812809 0.155888
H59   H     H_    0.435954 0.802202 0.888448 0.174166
H60   H     H_    0.064132 0.302176 0.111571 0.174152
H61   H     H_    0.935954 0.302201 0.888449 0.174194
H62   H     H_    0.064637 0.802276 0.611702 0.173926
H63   H     H_    0.936392 0.802102 0.388577 0.174305
H64   H     H_    0.564215 0.302192 0.611593 0.173475
H65   H     H_    0.436016 0.302188 0.388466 0.174363
H66   H     H_    0.458460 0.974396 0.163909 0.201213
H67   H     H_    0.629508 0.950486 0.857753 0.211490
H68   H     H_    0.370498 0.950536 0.142206 0.211266
H69   H     H_    0.912417 0.619094 0.187168 0.155863
H70   H     H_    0.541485 0.974366 0.836103 0.200983
H71   H     H_    0.958459 0.474396 0.163908 0.201196
H72   H     H_    0.129507 0.450486 0.857752 0.211296
H73   H     H_    0.870497 0.450536 0.142206 0.211286
H74   H     H_    0.041483 0.474367 0.836103 0.201193
H75   H     H_    0.957585 0.974257 0.663808 0.202528
H76   H     H_    0.128947 0.950786 0.357471 0.211560
H77   H     H_    0.869898 0.950172 0.641938 0.213017
H78   H     H_    0.040645 0.974441 0.335975 0.200133
H79   H     H_    0.458353 0.474383 0.663891 0.201103
H80   H     H_    0.587516 0.119016 0.812815 0.156457
H81   H     H_    0.629440 0.450521 0.357719 0.211256
H82   H     H_    0.370427 0.450493 0.642168 0.211499
H83   H     H_    0.541385 0.474379 0.336089 0.201212
H84   H     H_    0.460130 0.920131 0.221916 0.209586
H85   H     H_    0.627248 0.895855 0.800150 0.199118
H86   H     H_    0.372724 0.895901 0.199802 0.198907
H87   H     H_    0.539783 0.920111 0.778090 0.209333
H88   H     H_    0.960130 0.420131 0.221916 0.209565
H89   H     H_    0.127246 0.395856 0.800149 0.199042
H90   H     H_    0.872724 0.395901 0.199802 0.198908
H91   H     H_    0.412424 0.119091 0.187171 0.155926
H92   H     H_    0.039780 0.420111 0.778089 0.209559
H93   H     H_    0.959309 0.920006 0.721822 0.209565
H94   H     H_    0.126728 0.896120 0.299896 0.198915
H95   H     H_    0.872196 0.895552 0.699537 0.199499
H96   H     H_    0.038994 0.920168 0.277993 0.209416
H97   H     H_    0.460029 0.420122 0.721902 0.209447
H98   H     H_    0.627181 0.395889 0.300117 0.198916
H99   H     H_    0.372661 0.395863 0.699767 0.199247
H100  H     H_    0.539684 0.420121 0.278077 0.209561
H101  H     H_    0.565604 0.877940 0.015136 0.248650
H102  H     H_    0.587377 0.562118 0.369548 0.157992
H103  H     H_    0.633907 0.849386 0.046859 0.247182
H104  H     H_    0.551905 0.821732 0.028614 0.235556
H105  H     H_    0.448231 0.821737 0.971400 0.235556
H106  H     H_    0.434562 0.877951 0.984896 0.248662
H107  H     H_    0.366222 0.849452 0.953187 0.247125
H108  H     H_    0.065605 0.377941 0.015136 0.248647
H109  H     H_    0.133907 0.349386 0.046859 0.247175
H110  H     H_    0.051905 0.321733 0.028614 0.235555
H111  H     H_    0.948232 0.321736 0.971400 0.235536
H112  H     H_    0.934563 0.377951 0.984897 0.248630
O1    O     O_R   0.500000 0.730040 0.321660 -0.625285
O2    O     O_R   0.500000 0.678320 0.730060 -0.622784
O3    O     O_R   0.000000 0.178320 0.269940 -0.623519
O4    O     O_R   0.000000 0.178320 0.730060 -0.621886
O5    O     O_R   0.000000 0.678320 0.769940 -0.622787
O6    O     O_R   0.000000 0.678320 0.230060 -0.622793
O7    O     O_R   0.500000 0.178320 0.769940 -0.623136
O8    O     O_R   0.500000 0.178320 0.230060 -0.622748
O9    O     O_R   0.392670 0.775850 0.275850 -0.622931
O10   O     O_R   0.392670 0.775850 0.724150 -0.618370
O11   O     O_R   0.607330 0.775850 0.275850 -0.618134
O12   O     O_R   0.500000 0.730040 0.678340 -0.625307
O13   O     O_R   0.607330 0.775850 0.724150 -0.622878
O14   O     O_R   0.892670 0.275850 0.275850 -0.622917
O15   O     O_R   0.892670 0.275850 0.724150 -0.619819
O16   O     O_R   0.107330 0.275850 0.275850 -0.618184
O17   O     O_R   0.107330 0.275850 0.724150 -0.620813
O18   O     O_R   0.892670 0.775850 0.775850 -0.622846
O19   O     O_R   0.892670 0.775850 0.224150 -0.618164
O20   O     O_R   0.107330 0.775850 0.775850 -0.618284
O21   O     O_R   0.107330 0.775850 0.224150 -0.622938
O22   O     O_R   0.392670 0.275850 0.775850 -0.622847
O23   O     O_R   0.000000 0.230040 0.321660 -0.625585
O24   O     O_R   0.392670 0.275850 0.224150 -0.618239
O25   O     O_R   0.607330 0.275850 0.775850 -0.617916
O26   O     O_R   0.607330 0.275850 0.224150 -0.622994
O27   O     O_R   0.392690 0.724130 0.224130 -0.616494
O28   O     O_R   0.392690 0.724130 0.775870 -0.623747
O29   O     O_R   0.607310 0.724130 0.224130 -0.623830
O30   O     O_R   0.607310 0.724130 0.775870 -0.616499
O31   O     O_R   0.892690 0.224130 0.224130 -0.616424
O32   O     O_R   0.892690 0.224130 0.775870 -0.620512
O33   O     O_R   0.107310 0.224130 0.224130 -0.623810
O34   O     O_R   1.000000 0.230040 0.678340 -0.624522
O35   O     O_R   0.107310 0.224130 0.775870 -0.620068
O36   O     O_R   0.892690 0.724130 0.724130 -0.616486
O37   O     O_R   0.892690 0.724130 0.275870 -0.623796
O38   O     O_R   0.107310 0.724130 0.724130 -0.623812
O39   O     O_R   0.107310 0.724130 0.275870 -0.616493
O40   O     O_R   0.392690 0.224130 0.724130 -0.616573
O41   O     O_R   0.392690 0.224130 0.275870 -0.623535
O42   O     O_R   0.607310 0.224130 0.724130 -0.624626
O43   O     O_R   0.607310 0.224130 0.275870 -0.616359
O44   O     O_R   0.500000 0.821650 0.230050 -0.622309
O45   O     O_R   0.000000 0.730040 0.821660 -0.625277
O46   O     O_R   0.500000 0.821650 0.769950 -0.622440
O47   O     O_R   0.000000 0.321650 0.230050 -0.622299
O48   O     O_R   0.000000 0.321650 0.769950 -0.622369
O49   O     O_R   0.000000 0.821650 0.730050 -0.622349
O50   O     O_R   0.000000 0.821650 0.269950 -0.622371
O51   O     O_R   0.500000 0.321650 0.730050 -0.622387
O52   O     O_R   0.500000 0.321650 0.269950 -0.622339
O53   O     O_R   0.500000 0.769930 0.178330 -0.628344
O54   O     O_R   0.500000 0.769930 0.821670 -0.628310
O55   O     O_R   0.000000 0.269930 0.178330 -0.628336
O56   O     O_R   0.000000 0.730040 0.178340 -0.625289
O57   O     O_R   0.000000 0.269930 0.821670 -0.628367
O58   O     O_R   0.000000 0.769930 0.678330 -0.628299
O59   O     O_R   0.000000 0.769930 0.321670 -0.628381
O60   O     O_R   0.500000 0.269930 0.678330 -0.628186
O61   O     O_R   0.500000 0.269930 0.321670 -0.628284
O62   O     O_R   0.439370 0.954170 0.954170 -0.616749
O63   O     O_R   0.439370 0.954170 0.045830 -0.629551
O64   O     O_R   0.560630 0.954170 0.954170 -0.629478
O65   O     O_R   0.560630 0.954170 0.045830 -0.616627
O66   O     O_R   0.939370 0.454170 0.954170 -0.616615
O67   O     O_R   0.500000 0.230040 0.821660 -0.625147
O68   O     O_R   0.939370 0.454170 0.045830 -0.629548
O69   O     O_R   0.060630 0.454170 0.954170 -0.629556
O70   O     O_R   0.060630 0.454170 0.045830 -0.616634
O71   O     O_R   0.939370 0.954170 0.454170 -0.616710
O72   O     O_R   0.939370 0.954170 0.545830 -0.627818
O73   O     O_R   0.060630 0.954170 0.454170 -0.629326
O74   O     O_R   0.060630 0.954170 0.545830 -0.618789
O75   O     O_R   0.439370 0.454170 0.454170 -0.616567
O76   O     O_R   0.439370 0.454170 0.545830 -0.629360
O77   O     O_R   0.560630 0.454170 0.454170 -0.629599
O78   O     O_R   0.500000 0.230040 0.178340 -0.625313
O79   O     O_R   0.560630 0.454170 0.545830 -0.616733
O80   O     O_R   0.439410 0.545780 0.454170 -0.618555
O81   O     O_R   0.439410 0.545780 0.545830 -0.624776
O82   O     O_R   0.560590 0.545780 0.454170 -0.624779
O83   O     O_R   0.560590 0.545780 0.545830 -0.618562
O84   O     O_R   0.939410 0.045780 0.454170 -0.620144
O85   O     O_R   0.939410 0.045780 0.545830 -0.622135
O86   O     O_R   0.060590 0.045780 0.454170 -0.621879
O87   O     O_R   0.060590 0.045780 0.545830 -0.623402
O88   O     O_R   0.939410 0.545780 0.954170 -0.618556
O89   O     O_R   0.500000 0.678320 0.269940 -0.622798
O90   O     O_R   0.939410 0.545780 0.045830 -0.624793
O91   O     O_R   0.060590 0.545780 0.954170 -0.624775
O92   O     O_R   0.060590 0.545780 0.045830 -0.618553
O93   O     O_R   0.439410 0.045780 0.954170 -0.618730
O94   O     O_R   0.439410 0.045780 0.045830 -0.624808
O95   O     O_R   0.560590 0.045780 0.954170 -0.624636
O96   O     O_R   0.560590 0.045780 0.045830 -0.618530
Zn1   Zn    Zn3+2 0.500000 0.784520 0.284530 0.951919
Zn2   Zn    Zn3+2 0.500000 0.715450 0.784540 0.956661
Zn3   Zn    Zn3+2 0.000000 0.215450 0.215460 0.956208
Zn4   Zn    Zn3+2 0.000000 0.215450 0.784540 0.957331
Zn5   Zn    Zn3+2 0.000000 0.715450 0.715460 0.956679
Zn6   Zn    Zn3+2 0.000000 0.715450 0.284540 0.956647
Zn7   Zn    Zn3+2 0.500000 0.215450 0.715460 0.955529
Zn8   Zn    Zn3+2 0.500000 0.215450 0.284540 0.957237
Zn9   Zn    Zn3+2 0.419100 0.999980 0.000000 0.952536
Zn10  Zn    Zn3+2 0.580900 0.999980 0.000000 0.953064
Zn11  Zn    Zn3+2 0.919100 0.499980 0.000000 0.952863
Zn12  Zn    Zn3+2 0.500000 0.784520 0.715470 0.951502
Zn13  Zn    Zn3+2 0.080900 0.499980 0.000000 0.952870
Zn14  Zn    Zn3+2 0.919100 0.999980 0.500000 0.952405
Zn15  Zn    Zn3+2 0.080900 0.999980 0.500000 0.951705
Zn16  Zn    Zn3+2 0.419100 0.499980 0.500000 0.953146
Zn17  Zn    Zn3+2 0.580900 0.499980 0.500000 0.952773
Zn18  Zn    Zn3+2 0.000000 0.284520 0.284530 0.951545
Zn19  Zn    Zn3+2 1.000000 0.284520 0.715470 0.953381
Zn20  Zn    Zn3+2 0.000000 0.784520 0.784530 0.951788
Zn21  Zn    Zn3+2 0.000000 0.784520 0.215470 0.951810
Zn22  Zn    Zn3+2 0.500000 0.284520 0.784530 0.951980
Zn23  Zn    Zn3+2 0.500000 0.284520 0.215470 0.951864
Zn24  Zn    Zn3+2 0.500000 0.715450 0.215460 0.956640

loop_
_geom_bond_atom_site_label_1
_geom_bond_atom_site_label_2
_ccdc_geom_bond_type
C118  H39   S    
C61   C70   A    
C121  H44   S    
C146  O5    A    
C199  O37   A    
O49   Zn20  S    
C127  H54   S    
C73   C82   A    
C111  C161  S    
O13   Zn12  S    
C191  O28   A    
C29   O85   A    
C23   O75   A    
C113  H30   S    
C130  C174  A    
C21   O73   A    
C170  C178  A    
C57   C117  S    
C14   H94   S    
C5    O41   A    
O11   Zn1   S    
C123  H49   S    
C185  H75   S    
C186  H76   S    
C119  H40   S    
C183  H73   S    
C107  H110  S    
C189  O9    A    
O29   Zn24  S    
C40   O50   A    
C2    C90   S    
O44   Zn1   S    
O77   Zn17  S    
C131  C140  A    
C51   C197  S    
C134  C143  A    
C113  C122  S    
C39   C141  S    
C26   O82   A    
C35   C115  S    
C80   H25   S    
O17   Zn19  S    
C147  C155  A    
C117  C126  S    
C74   C83   A    
O18   Zn20  S    
C88   C97   A    
C8    H86   S    
C75   C157  S    
O56   Zn21  S    
C15   H99   S    
O43   Zn8   S    
C4    C56   S    
O61   Zn8   S    
C129  C173  A    
C148  H60   S    
C149  H61   S    
C47   C193  S    
C124  O23   A    
O84   Zn14  S    
C20   O68   A    
C115  C123  S    
C150  C159  A    
C29   C99   S    
C18   O65   A    
C145  H57   S    
C114  H16   S    
C79   H24   S    
C16   C188  S    
O80   Zn16  S    
C108  H111  S    
C82   C91   A    
O36   Zn5   S    
O16   Zn18  S    
C142  C151  A    
C91   H17   S    
O4    Zn4   S    
C17   C164  S    
O5    Zn5   S    
C18   C163  S    
C28   O84   A    
C166  C175  A    
C164  C173  A    
C77   C179  S    
C163  C172  A    
C6    O42   A    
C118  H37   S    
C11   H92   S    
C173  C182  S    
C33   O94   A    
O31   Zn3   S    
C40   O59   A    
O93   Zn9   S    
C29   O87   A    
C30   O88   A    
C79   H22   S    
C36   O46   A    
C12   H93   S    
C27   C97   S    
O21   Zn21  S    
C12   C132  S    
C90   H26   S    
C185  H77   S    
C41   C143  S    
C47   C52   T    
C187  H79   S    
C107  H108  S    
O90   Zn11  S    
C1    C70   S    
C9    H85   S    
C196  O16   A    
O25   Zn22  S    
O14   Zn18  S    
C90   H23   S    
C80   C88   A    
O1    Zn1   S    
O71   Zn14  S    
C12   C185  S    
C159  C167  A    
C76   C168  S    
C120  H41   S    
C86   C95   A    
C181  H66   S    
C192  O29   A    
C23   C171  S    
O42   Zn7   S    
C15   H97   S    
C37   O47   A    
C38   O57   A    
C35   C65   A    
C88   H2    S    
C76   C85   A    
C179  O8    A    
C78   C87   A    
O62   Zn9   S    
C20   O70   A    
O19   Zn21  S    
C33   C104  S    
C114  H14   S    
C69   C77   A    
O53   Zn24  S    
C10   H90   S    
C20   C165  S    
C133  C142  A    
C194  O14   A    
C5    C58   S    
C31   O92   A    
C108  H112  S    
C75   C84   A    
O33   Zn3   S    
C28   O86   A    
C30   C100  S    
C83   H58   S    
C105  H103  S    
C96   C190  A    
C111  H12   S    
C68   C118  S    
C197  O35   A    
C3    C55   S    
C172  C181  S    
C106  H106  S    
C33   O96   A    
C64   C73   A    
C110  H7    S    
C9    C182  S    
C16   H98   S    
O2    Zn2   S    
C149  C158  A    
C152  C161  A    
C84   C93   A    
C12   H95   S    
O86   Zn15  S    
C45   C53   T    
C116  H32   S    
O72   Zn14  S    
C50   C196  S    
C169  C177  A    
C141  C150  A    
C111  H11   S    
C26   C96   S    
C139  C148  A    
C81   H36   S    
C183  H71   S    
C9    H87   S    
C53   C199  S    
C10   H88   S    
O60   Zn7   S    
C34   O53   A    
O3    Zn3   S    
C112  O12   A    
C165  C174  A    
C42   O52   A    
C65   C74   A    
C120  H43   S    
C90   C120  S    
C124  O3    A    
C19   O66   A    
C197  O17   A    
O54   Zn2   S    
C181  H68   S    
C135  O4    A    
C182  H67   S    
C71   C112  S    
C191  O10   A    
C63   C72   A    
C109  H5    S    
O48   Zn19  S    
C145  C154  A    
C43   C55   T    
O75   Zn16  S    
C116  C125  S    
C118  C127  S    
C35   C100  A    
C109  C159  S    
O67   Zn22  S    
C110  C160  S    
C189  O27   A    
C132  C141  A    
O94   Zn9   S    
C38   O48   A    
C86   H91   S    
C135  O34   A    
C6    C59   S    
C109  H4    S    
C11   C184  S    
O76   Zn16  S    
C110  H8    S    
C14   C133  S    
C21   O71   A    
C16   H100  S    
C49   C59   T    
C89   C98   A    
C93   H19   S    
C111  H10   S    
O58   Zn5   S    
C36   C138  S    
C107  H109  S    
C21   C169  S    
O50   Zn21  S    
C62   C71   A    
C147  H59   S    
C23   O77   A    
C44   C54   T    
C116  H34   S    
O22   Zn22  S    
C91   C99   A    
C140  C149  A    
C19   O69   A    
O81   Zn16  S    
C72   C124  S    
C186  H78   S    
C16   C136  S    
C25   C170  S    
C8    C181  S    
O92   Zn13  S    
O39   Zn6   S    
C78   H1    S    
O7    Zn7   S    
C39   O58   A    
O63   Zn9   S    
C176  C185  S    
C15   C134  S    
C5    O24   A    
C168  O7    A    
O85   Zn14  S    
C95   H21   S    
C17   O62   A    
O23   Zn18  S    
C137  C145  A    
C46   C66   A    
C108  H3    S    
C1    O1    A    
C8    H84   S    
C114  C162  S    
C70   C78   A    
C117  H35   S    
C41   O60   A    
C3    O21   A    
O52   Zn23  S    
C132  C176  A    
C39   O49   A    
O9    Zn1   S    
C180  C188  S    
O28   Zn2   S    
O74   Zn15  S    
C2    C97   A    
C68   C69   A    
C79   C119  S    
O34   Zn19  S    
O47   Zn18  S    
C160  C169  A    
C42   O61   A    
C157  O56   A    
C62   C120  S    
C72   C81   A    
C151  H63   S    
C200  O20   A    
O68   Zn11  S    
C81   C89   A    
C152  H64   S    
C193  O30   A    
C24   C64   A    
O27   Zn24  S    
C112  O2    A    
C10   C183  S    
C31   O90   A    
C195  O32   A    
C32   O95   A    
C25   O79   A    
C130  C139  A    
O12   Zn12  S    
C184  H74   S    
C57   C103  A    
C26   O80   A    
C32   O93   A    
O59   Zn6   S    
C14   H96   S    
C184  H72   S    
C31   C102  S    
C7    O26   A    
C177  C186  S    
C67   C126  S    
O73   Zn15  S    
C3    O39   A    
C73   C135  S    
C50   C58   T    
C153  H65   S    
C10   C130  S    
C45   C192  S    
C1    O89   A    
C94   H20   S    
C32   C103  S    
O10   Zn12  S    
C134  C178  A    
C92   H18   S    
O87   Zn15  S    
C7    O43   A    
C150  H62   S    
C122  H45   S    
C22   C167  S    
C84   H69   S    
C143  C152  A    
C182  H70   S    
C94   C103  A    
O38   Zn5   S    
C42   C144  S    
C61   C190  A    
O15   Zn19  S    
C7    C60   S    
C115  H33   S    
C158  C166  A    
C89   H13   S    
C28   C98   S    
C188  H81   S    
C101  H27   S    
C17   O64   A    
C48   C194  S    
C4    O40   A    
C114  H15   S    
C74   C146  S    
C68   C104  A    
O24   Zn23  S    
C93   C102  A    
O51   Zn22  S    
C49   C195  S    
C46   C116  S    
C153  C162  A    
C196  O33   A    
O30   Zn2   S    
O35   Zn4   S    
C136  C144  A    
C22   O74   A    
C133  C177  A    
C156  C165  A    
C66   C75   A    
C131  C175  A    
O83   Zn17  S    
C65   C123  S    
C119  H42   S    
C101  C121  S    
O66   Zn11  S    
C106  H107  S    
C11   H89   S    
O40   Zn7   S    
O26   Zn23  S    
C69   C127  S    
C157  O6    A    
C101  H29   S    
C148  C156  A    
C174  C183  S    
O55   Zn3   S    
C27   O83   A    
C175  C184  S    
C4    O22   A    
C40   C142  S    
C61   C119  S    
C24   C99   A    
O70   Zn13  S    
C199  O19   A    
C83   C92   A    
C46   C102  A    
C82   H47   S    
C193  O13   A    
O32   Zn4   S    
C125  H50   S    
C195  O15   A    
C44   C191  S    
C36   O54   A    
C14   C186  S    
C108  C158  S    
C13   C98   A    
C54   C200  S    
O45   Zn20  S    
C51   C56   T    
C144  C153  A    
O20   Zn20  S    
C41   O51   A    
C129  C138  A    
C79   C190  S    
C13   C63   A    
O6    Zn6   S    
C126  H55   S    
C19   C166  S    
O91   Zn13  S    
C115  H31   S    
C107  C156  S    
O64   Zn10  S    
C105  C154  S    
C188  H83   S    
C24   C113  S    
O82   Zn17  S    
C109  H6    S    
C57   C67   A    
C71   C80   A    
C63   C121  S    
C187  H82   S    
C8    C128  S    
C48   C60   T    
C37   O55   A    
O78   Zn23  S    
C127  H56   S    
O41   Zn8   S    
C154  C163  A    
C113  H28   S    
C105  H101  S    
C25   O76   A    
C15   C187  S    
C18   O63   A    
C105  H104  S    
C198  O18   A    
O69   Zn13  S    
C128  C137  A    
C123  H51   S    
C85   C94   A    
C106  H105  S    
O89   Zn24  S    
C138  C147  A    
O95   Zn10  S    
C200  O38   A    
C87   C96   A    
O8    Zn8   S    
C85   H80   S    
C30   O91   A    
C27   O81   A    
C161  C170  A    
C77   C86   A    
C128  C172  A    
O88   Zn11  S    
C171  C180  A    
C178  C187  S    
O57   Zn4   S    
C13   C101  S    
C192  O11   A    
C95   C104  A    
C92   C100  A    
C122  H48   S    
C194  O31   A    
C87   H102  S    
C121  H46   S    
C125  H52   S    
C146  O45   A    
C11   C131  S    
C117  H38   S    
C34   O44   A    
C9    C129  S    
C155  C164  A    
C136  C180  A    
C34   C137  S    
C66   C125  S    
C151  C160  A    
C6    O25   A    
C64   C122  S    
O65   Zn10  S    
C126  H53   S    
O79   Zn17  S    
O37   Zn6   S    
C179  O78   A    
C198  O36   A    
C110  H9    S    
C162  C171  A    
C52   C198  S    
C43   C189  S    
O46   Zn12  S    
C106  C155  S    
C37   C139  S    
C168  O67   A    
C38   C140  S    
C22   O72   A    
C67   C76   A    
O96   Zn10  S    
C2    C62   A    
C167  C176  A    
