data_mof_unit_pretest_912.cif
_audit_creation_date              2012-12-11T14:54:24-0500
_audit_creation_method            fapswitch 2.2
_symmetry_space_group_name_H-M    P1
_symmetry_Int_Tables_number       1
_space_group_crystal_system       triclinic
_cell_length_a                    18.95781
_cell_length_b                    10.935904
_cell_length_c                    18.859677
_cell_angle_alpha                 89.935306
_cell_angle_beta                  90.089442
_cell_angle_gamma                 90.009397
_cell_volume                      3909.99583068

loop_
_atom_site_label
_atom_site_type_symbol
_atom_type_description
_atom_site_fract_x
_atom_site_fract_y
_atom_site_fract_z
_atom_type_partial_charge
C1    C     C_R   0.730602 0.377249 0.646205 0.534736
C2    C     C_R   0.272316 0.371513 0.356414 0.550117
C3    C     C_R   0.230602 0.877246 0.646205 0.537120
C4    C     C_R   0.772317 0.871510 0.356416 0.550656
C5    C     C_3   0.545769 0.359796 0.451855 0.258038
C6    C     C_3   0.558425 0.362718 0.531219 0.283990
C7    C     C_3   0.045779 0.859788 0.451852 0.257774
C8    C     C_3   0.058435 0.862710 0.531216 0.284112
C9    C     C_R   0.691684 0.881922 0.537371 -0.132570
C10   C     C_R   0.295567 0.855548 0.460825 -0.127696
C11   C     C_R   0.191682 0.381927 0.537369 -0.132573
C12   C     C_R   0.795576 0.355565 0.460830 -0.127769
C13   C     C_R   0.697187 0.869793 0.464234 -0.138094
C14   C     C_R   0.293422 0.839239 0.533847 -0.137741
C15   C     C_R   0.197185 0.369799 0.464233 -0.138131
C16   C     C_R   0.793430 0.339257 0.533851 -0.137428
C17   C     C_R   0.761592 0.894623 0.431276 0.035375
C18   C     C_R   0.251395 0.916584 0.575869 0.007985
C19   C     C_R   0.261589 0.394631 0.431274 0.035407
C20   C     C_R   0.751398 0.416594 0.575872 0.008507
C21   C     C_R   0.821188 0.924304 0.472292 -0.127477
C22   C     C_R   0.216335 0.015601 0.545272 -0.119920
C23   C     C_R   0.321185 0.424317 0.472289 -0.127483
C24   C     C_R   0.716334 0.515606 0.545275 -0.119955
C25   C     C_R   0.816152 0.933576 0.544727 -0.135974
C26   C     C_R   0.217309 0.030156 0.472718 -0.091926
C27   C     C_R   0.316150 0.433587 0.544724 -0.135979
C28   C     C_R   0.717309 0.530162 0.472721 -0.092096
C29   C     C_R   0.750848 0.918083 0.577418 0.019991
C30   C     C_R   0.255301 0.948361 0.429878 0.075826
C31   C     C_R   0.250846 0.418090 0.577416 0.019977
C32   C     C_R   0.755305 0.448371 0.429882 0.075371
C33   C     C_R   0.532922 0.058736 0.972064 -0.127707
C34   C     C_R   0.524327 0.062524 0.044411 -0.136086
C35   C     C_R   0.035950 0.560405 0.972760 -0.123207
C36   C     C_R   0.026740 0.564292 0.045096 -0.131261
C37   C     C_R   0.498001 0.168144 0.076301 0.030766
C38   C     C_R   0.517823 0.161938 0.930231 0.033918
C39   C     C_R   0.998266 0.668695 0.076440 0.030657
C40   C     C_R   0.018712 0.662084 0.930488 0.034309
C41   C     C_R   0.486206 0.274040 0.035466 -0.129831
C42   C     C_R   0.496692 0.271136 0.962429 -0.135529
C43   C     C_R   0.984837 0.773533 0.035176 -0.137554
C44   C     C_R   0.995479 0.770364 0.962192 -0.147000
C45   C     C_R   0.531441 0.155584 0.646894 0.543771
C46   C     C_R   0.461836 0.154010 0.356874 0.594087
C47   C     C_R   0.031441 0.655584 0.646895 0.544099
C48   C     C_R   0.961839 0.654011 0.356873 0.593524
C49   C     C_R   0.797233 0.008437 0.970291 -0.131036
C50   C     C_R   0.183581 0.935571 0.042826 -0.135941
C51   C     C_R   0.288793 0.524346 0.972980 -0.127492
C52   C     C_R   0.702109 0.506992 0.029865 -0.127183
C53   C     C_R   0.797817 0.999294 0.042812 -0.136756
C54   C     C_R   0.178302 0.925559 0.970383 -0.127537
C55   C     C_R   0.290055 0.510927 0.045480 -0.135462
C56   C     C_R   0.701456 0.498011 0.957352 -0.132000
C57   C     C_R   0.751720 0.918601 0.076731 0.034669
C58   C     C_R   0.237975 0.896664 0.929487 0.034722
C59   C     C_R   0.250233 0.418630 0.077244 0.029836
C60   C     C_R   0.748092 0.418473 0.923320 0.032836
C61   C     C_R   0.700265 0.855592 0.037423 -0.138831
C62   C     C_R   0.302483 0.872212 0.962524 -0.146893
C63   C     C_R   0.204058 0.346858 0.036227 -0.138828
C64   C     C_R   0.800142 0.356680 0.962519 -0.131327
C65   C     C_R   0.698094 0.868088 0.964070 -0.144496
C66   C     C_R   0.308130 0.884518 0.035595 -0.138184
C67   C     C_R   0.201793 0.362023 0.963139 -0.147606
C68   C     C_R   0.802550 0.369443 0.035856 -0.134078
C69   C     C_R   0.747648 0.942894 0.930129 0.037548
C70   C     C_R   0.249027 0.920567 0.075537 0.030612
C71   C     C_R   0.245937 0.448264 0.931127 0.034140
C72   C     C_R   0.752373 0.442774 0.069925 0.035901
C73   C     C_R   0.741451 0.968053 0.647849 0.548283
C74   C     C_R   0.260110 0.975221 0.354831 0.575939
C75   C     C_R   0.241450 0.468055 0.647848 0.549066
C76   C     C_R   0.760112 0.475228 0.354833 0.577355
C77   C     C_R   0.730021 0.378886 0.852247 0.543918
C78   C     C_R   0.269813 0.378843 0.147840 0.551930
C79   C     C_R   0.227428 0.873172 0.854680 0.543936
C80   C     C_R   0.769942 0.878981 0.147780 0.552211
C81   C     C_R   0.535657 0.156347 0.855432 0.546356
C82   C     C_R   0.468134 0.157601 0.146873 0.557639
C83   C     C_R   0.035969 0.656330 0.855576 0.544582
C84   C     C_R   0.968172 0.657666 0.146898 0.557214
C85   C     C_R   0.740512 0.974592 0.855802 0.546978
C86   C     C_R   0.258623 0.969897 0.146088 0.556046
C87   C     C_R   0.240036 0.476384 0.856323 0.546604
C88   C     C_R   0.759503 0.474660 0.144205 0.557157
C89   C     C_R   0.474219 0.158966 0.432685 0.049771
C90   C     C_R   0.494248 0.166305 0.579795 -0.008443
C91   C     C_R   0.974222 0.658966 0.432683 0.049891
C92   C     C_R   0.994249 0.666306 0.579794 -0.008729
C93   C     C_R   0.488640 0.269496 0.466333 -0.031537
C94   C     C_R   0.499390 0.273030 0.538836 0.005856
C95   C     C_R   0.988646 0.769495 0.466331 -0.031389
C96   C     C_R   0.999396 0.773030 0.538834 0.005860
C97   C     C_R   0.465833 0.061072 0.548196 -0.156267
C98   C     C_R   0.456504 0.057081 0.474980 -0.155367
C99   C     C_R   0.965832 0.561075 0.548196 -0.156441
C100  C     C_R   0.956504 0.557084 0.474979 -0.155380
Cr1   Cr    Cr6+3 0.771950 0.169480 0.750100 1.024903
Cr2   Cr    Cr6+3 0.228050 0.169480 0.249900 1.026937
Cr3   Cr    Cr6+3 0.271950 0.669480 0.750100 1.025034
Cr4   Cr    Cr6+3 0.728050 0.669480 0.249900 1.027026
Cr5   Cr    Cr6+3 0.614930 0.323340 0.749170 1.061030
Cr6   Cr    Cr6+3 0.385070 0.323340 0.250830 1.030067
Cr7   Cr    Cr6+3 0.114930 0.823340 0.749170 1.058161
Cr8   Cr    Cr6+3 0.885070 0.823340 0.250830 1.027203
Cr9   Cr    Cr6+3 0.616590 0.010620 0.750610 1.021675
Cr10  Cr    Cr6+3 0.383410 0.010620 0.249390 1.018672
Cr11  Cr    Cr6+3 0.116590 0.510620 0.750610 1.023050
Cr12  Cr    Cr6+3 0.883410 0.510620 0.249390 1.021376
H1    H     H_    0.835075 0.069673 0.946066 0.128801
H2    H     H_    0.137212 0.961916 0.072682 0.131137
H3    H     H_    0.321092 0.595740 0.949935 0.137687
H4    H     H_    0.663812 0.567192 0.054152 0.129928
H5    H     H_    0.663994 0.792985 0.062846 0.119090
H6    H     H_    0.348289 0.845573 0.931946 0.120743
H7    H     H_    0.172893 0.274546 0.059889 0.135211
H8    H     H_    0.836813 0.294991 0.937017 0.123076
H9    H     H_    0.658135 0.819655 0.934093 0.113621
H10   H     H_    0.359410 0.872609 0.060058 0.134620
H11   H     H_    0.166630 0.305729 0.931736 0.121742
H12   H     H_    0.843151 0.322304 0.065712 0.121593
H13   H     H_    0.651379 0.842984 0.433565 0.132021
H14   H     H_    0.320939 0.761752 0.556634 0.148691
H15   H     H_    0.151377 0.342986 0.433563 0.131961
H16   H     H_    0.820952 0.261775 0.556638 0.148810
H17   H     H_    0.872471 0.939550 0.448663 0.142562
H18   H     H_    0.184286 0.076811 0.576876 0.168503
H19   H     H_    0.372468 0.439566 0.448660 0.142557
H20   H     H_    0.684282 0.576811 0.576878 0.168189
H21   H     H_    0.552229 0.974422 0.949138 0.136145
H22   H     H_    0.534514 0.980236 0.074834 0.128843
H23   H     H_    0.057176 0.477226 0.950118 0.138901
H24   H     H_    0.038252 0.483011 0.075948 0.130462
H25   H     H_    0.465411 0.356645 0.059199 0.135609
H26   H     H_    0.487123 0.352657 0.931189 0.124878
H27   H     H_    0.962467 0.855244 0.058498 0.133260
H28   H     H_    0.984319 0.850856 0.930586 0.119721
O1    O     O_R   0.787510 0.042610 0.670410 -0.516221
O2    O     O_R   0.212490 0.042610 0.329590 -0.503246
O3    O     O_R   0.287510 0.542610 0.670410 -0.516008
O4    O     O_R   0.712490 0.542610 0.329590 -0.501812
O5    O     O_R   0.556450 0.252890 0.823790 -0.501139
O6    O     O_R   0.443550 0.252890 0.176210 -0.499807
O7    O     O_R   0.056450 0.752890 0.823790 -0.507283
O8    O     O_R   0.943550 0.752890 0.176210 -0.501938
O9    O     O_R   0.545750 0.051070 0.830560 -0.528737
O10   O     O_R   0.454250 0.051070 0.169440 -0.523252
O11   O     O_R   0.045750 0.551070 0.830560 -0.526349
O12   O     O_R   0.954250 0.551070 0.169440 -0.519411
O13   O     O_R   0.681210 0.959150 0.825320 -0.508131
O14   O     O_R   0.318790 0.959150 0.174680 -0.505412
O15   O     O_R   0.181210 0.459150 0.825320 -0.508011
O16   O     O_R   0.818790 0.459150 0.174680 -0.501336
O17   O     O_3   0.667820 0.167810 0.749960 -0.256087
O18   O     O_3   0.332180 0.167810 0.250040 -0.262528
O19   O     O_3   0.167820 0.667810 0.749960 -0.258938
O20   O     O_3   0.832180 0.667810 0.250040 -0.263520
O21   O     O_R   0.765670 0.292090 0.675090 -0.508068
O22   O     O_R   0.234330 0.292090 0.324910 -0.511860
O23   O     O_R   0.265670 0.792090 0.675090 -0.507017
O24   O     O_R   0.734330 0.792090 0.324910 -0.511732
O25   O     O_R   0.670220 0.409020 0.668560 -0.491938
O26   O     O_R   0.329780 0.409020 0.331440 -0.528260
O27   O     O_R   0.170220 0.909020 0.668560 -0.489913
O28   O     O_R   0.829780 0.909020 0.331440 -0.527897
O29   O     O_R   0.556580 0.251590 0.674980 -0.477640
O30   O     O_R   0.443420 0.251590 0.325020 -0.496013
O31   O     O_R   0.056580 0.751590 0.674980 -0.477056
O32   O     O_R   0.943420 0.751590 0.325020 -0.496361
O33   O     O_R   0.545890 0.049670 0.670030 -0.522066
O34   O     O_R   0.454110 0.049670 0.329970 -0.527111
O35   O     O_R   0.045890 0.549670 0.670030 -0.521661
O36   O     O_R   0.954110 0.549670 0.329970 -0.527604
O37   O     O_R   0.681340 0.957860 0.676500 -0.504615
O38   O     O_R   0.318660 0.957860 0.323500 -0.520466
O39   O     O_R   0.181340 0.457860 0.676500 -0.503836
O40   O     O_R   0.818660 0.457860 0.323500 -0.519988
O41   O     O_R   0.787380 0.044010 0.830940 -0.526527
O42   O     O_R   0.212620 0.044010 0.169060 -0.520261
O43   O     O_R   0.287380 0.544010 0.830940 -0.525358
O44   O     O_R   0.712620 0.544010 0.169060 -0.522216
O45   O     O_R   0.765540 0.293390 0.823910 -0.508708
O46   O     O_R   0.234460 0.293390 0.176090 -0.504991
O47   O     O_R   0.265540 0.793390 0.823910 -0.508540
O48   O     O_R   0.734460 0.793390 0.176090 -0.506303
O49   O     O_R   0.670090 0.410410 0.829090 -0.523931
O50   O     O_R   0.329910 0.410410 0.170910 -0.522834
O51   O     O_R   0.170090 0.910410 0.829090 -0.527216
O52   O     O_R   0.829910 0.910410 0.170910 -0.524989
H29   H     H_    0.457579 0.978200 0.578609 0.147423
H30   H     H_    0.438111 0.972566 0.451478 0.143940
H31   H     H_    0.957575 0.478205 0.578610 0.147421
H32   H     H_    0.938110 0.472569 0.451478 0.143870
H33   H     H_    0.837627 0.049930 0.071817 0.126391
H34   H     H_    0.126830 0.939371 0.946666 0.138332
H35   H     H_    0.325388 0.568133 0.076184 0.129727
H36   H     H_    0.661196 0.547847 0.928458 0.129613
H37   H     H_    0.026113 0.947007 0.428865 0.147498
H38   H     H_    0.110385 0.825667 0.547890 0.166025
H39   H     H_    0.526100 0.447013 0.428869 0.147626
H40   H     H_    0.610377 0.325681 0.547892 0.166228
F1    F     F_    0.601640 0.308321 0.415250 -0.651987
F2    F     F_    0.541421 0.474648 0.560783 -0.661301
F3    F     F_    0.101648 0.808307 0.415247 -0.652618
F4    F     F_    0.041435 0.974643 0.560780 -0.661149
H41   H     H_    0.640484 0.869815 0.561808 0.149522
H42   H     H_    0.327145 0.794648 0.428595 0.126387
H43   H     H_    0.140483 0.369818 0.561807 0.149571
H44   H     H_    0.827157 0.294669 0.428601 0.126408
H45   H     H_    0.862568 0.960270 0.574568 0.166398
H46   H     H_    0.188170 0.106009 0.450223 0.144104
H47   H     H_    0.362565 0.460284 0.574565 0.166417
H48   H     H_    0.688167 0.606010 0.450224 0.144020

loop_
_geom_bond_atom_site_label_1
_geom_bond_atom_site_label_2
_ccdc_geom_bond_type
C5    H39   S    
C58   C62   A    
C49   H1    S    
C28   H48   S    
C93   C94   A    
C55   C59   A    
C42   H26   S    
C34   C37   A    
C77   O45   A    
C41   C42   A    
C14   C18   A    
C19   C23   A    
C95   C96   A    
C78   O50   A    
Cr7   O27   S    
Cr9   O17   S    
Cr2   O18   S    
C97   C98   A    
C3    O27   A    
C7    C8    S    
C46   C89   S    
Cr7   O31   S    
C15   C19   A    
Cr2   O46   S    
C79   O47   A    
C37   C41   A    
Cr11  O35   S    
Cr6   O26   S    
C39   C84   S    
C38   C42   A    
C64   C68   A    
C87   O43   A    
C5    C6    S    
C30   C74   S    
Cr9   O33   S    
C88   O44   A    
C29   C73   S    
Cr10  O38   S    
Cr11  O39   S    
C99   H31   S    
C92   C96   A    
Cr7   O7    S    
C98   H30   S    
C3    C18   S    
C46   O34   A    
C47   C92   S    
C97   H29   S    
C8    F4    S    
C9    C13   A    
Cr11  O19   S    
C11   H43   S    
C48   O32   A    
C11   C15   A    
C10   H42   S    
Cr5   O17   S    
C12   C16   A    
C9    H41   S    
C6    C94   S    
C48   C91   S    
C8    C96   S    
C81   O9    A    
C4    O24   A    
C43   H27   S    
C78   O46   A    
C65   H9    S    
C91   C100  A    
C75   O39   A    
C2    O26   A    
C90   C97   A    
C41   H25   S    
Cr10  O18   S    
C9    C29   A    
Cr12  O40   S    
C73   O37   A    
C83   O7    A    
C52   H4    S    
Cr8   O28   S    
C11   C31   A    
Cr1   O21   S    
C44   H28   S    
C49   C69   A    
C12   C32   A    
C27   H47   S    
C47   O31   A    
C80   O52   A    
C40   C83   S    
C2    O22   A    
Cr1   O1    S    
Cr4   O20   S    
Cr1   O45   S    
C36   H24   S    
C59   C78   S    
C72   C88   S    
C5    F1    S    
C60   C64   A    
C90   C94   A    
C83   O11   A    
C100  H32   S    
C25   C29   A    
C64   H8    S    
Cr4   O48   S    
Cr7   O19   S    
C55   H35   S    
C60   C77   S    
C59   C63   A    
C62   H6    S    
C62   C66   A    
Cr6   O30   S    
C61   H5    S    
Cr2   O42   S    
Cr5   O49   S    
C28   C32   A    
Cr3   O47   S    
C12   H44   S    
C7    F3    S    
C10   C14   A    
C35   H23   S    
C53   C57   A    
C39   C43   A    
C51   C55   A    
Cr10  O10   S    
Cr6   O18   S    
C27   C31   A    
C51   H3    S    
C4    O28   A    
C67   H11   S    
C68   C72   A    
C50   H2    S    
C35   C36   A    
C84   O8    A    
Cr9   O9    S    
C43   C44   A    
C63   C67   A    
C6    H40   S    
C14   H14   S    
Cr10  O14   S    
C69   C85   S    
C45   O33   A    
C63   H7    S    
C10   C30   A    
C31   C75   S    
C99   C100  A    
C74   O38   A    
C34   H22   S    
C1    O25   A    
C16   C20   A    
Cr5   O5    S    
C52   C72   A    
Cr12  O12   S    
C33   C34   A    
C80   O48   A    
C23   H19   S    
C85   O13   A    
C45   C90   S    
C16   H16   S    
C21   H17   S    
C82   O10   A    
C46   O30   A    
C75   O3    A    
C58   C79   S    
C71   C87   S    
C4    C17   S    
C76   O4    A    
C68   H12   S    
Cr12  O36   S    
C57   C80   S    
C26   C30   A    
C23   C27   A    
C1    O21   A    
C38   C81   S    
C22   C26   A    
Cr5   O29   S    
Cr3   O43   S    
C37   C82   S    
C73   O1    A    
C82   O6    A    
C88   O16   A    
C84   O12   A    
C22   H18   S    
Cr9   O13   S    
Cr2   O22   S    
C54   C58   A    
C65   C69   A    
C21   C25   A    
C1    C20   S    
C85   O41   A    
Cr12  O20   S    
Cr4   O44   S    
C2    C19   S    
C18   C22   A    
Cr3   O23   S    
C36   C39   A    
C54   H34   S    
C24   C28   A    
C15   H15   S    
C76   O40   A    
Cr11  O11   S    
C32   C76   S    
C5    C93   S    
C51   C71   A    
C57   C61   A    
Cr8   O20   S    
C87   O15   A    
C3    O23   A    
C7    C95   S    
C66   C70   A    
C81   O5    A    
C33   C38   A    
Cr6   O6    S    
C13   C17   A    
C89   C98   A    
C26   H46   S    
C77   O49   A    
C25   H45   S    
C35   C40   A    
C86   O14   A    
C53   H33   S    
C50   C54   A    
Cr3   O3    S    
C24   H20   S    
Cr3   O19   S    
Cr4   O24   S    
C50   C70   A    
Cr10  O34   S    
Cr8   O32   S    
C49   C53   A    
C8    H38   S    
Cr5   O25   S    
C67   C71   A    
C61   C65   A    
C89   C93   A    
C66   H10   S    
Cr1   O41   S    
C17   C21   A    
C6    F2    S    
Cr4   O4    S    
Cr1   O17   S    
C33   H21   S    
C40   C44   A    
C56   C60   A    
C74   O2    A    
C91   C95   A    
C7    H37   S    
Cr12  O16   S    
Cr7   O51   S    
C86   O42   A    
Cr9   O37   S    
Cr6   O50   S    
Cr8   O52   S    
C79   O51   A    
Cr2   O2    S    
C48   O36   A    
Cr11  O15   S    
C13   H13   S    
C20   C24   A    
C47   O35   A    
C45   O29   A    
C52   C56   A    
C92   C99   A    
C56   H36   S    
Cr8   O8    S    
C70   C86   S    
