data_mof_unit_pretest_147.cif
_audit_creation_date              2012-10-26T19:50:05-0400
_audit_creation_method            fapswitch 2.2
_symmetry_space_group_name_H-M    P1
_symmetry_Int_Tables_number       1
_space_group_crystal_system       triclinic
_cell_length_a                    15.102287
_cell_length_b                    13.915544
_cell_length_c                    10.779798
_cell_angle_alpha                 90.142491
_cell_angle_beta                  92.195091
_cell_angle_gamma                 89.942281
_cell_volume                      2263.77471818

loop_
_atom_site_label
_atom_site_type_symbol
_atom_type_description
_atom_site_fract_x
_atom_site_fract_y
_atom_site_fract_z
_atom_type_partial_charge
C1    C     C_R   0.329909 0.500216 0.501038 0.544586
C2    C     C_R   0.951515 0.502931 0.499951 0.031744
C3    C     C_R   0.554467 0.104459 0.581991 -0.134115
C4    C     C_R   0.447077 0.104224 0.416051 -0.135089
C5    C     C_R   0.558039 0.206109 0.578093 0.152981
C6    C     C_R   0.442627 0.205847 0.421046 0.154685
C7    C     C_R   0.500848 0.052605 0.498943 -0.026635
C8    C     C_R   0.448497 0.892330 0.582900 -0.030310
C9    C     C_R   0.552463 0.891093 0.415840 -0.029737
C10   C     C_R   0.449824 0.790743 0.580905 0.044438
C11   C     C_R   0.550671 0.789591 0.419053 0.047106
C12   C     C_R   0.670056 0.500146 0.499308 0.526895
C13   C     C_R   0.500665 0.944333 0.499183 0.026194
C14   C     C_R   0.503422 0.499950 0.262744 0.539190
C15   C     C_R   0.503655 0.500147 0.737581 0.534977
C16   C     C_R   0.639962 0.608921 0.137356 -0.114881
C17   C     C_R   0.639384 0.610142 0.878621 -0.111223
C18   C     C_R   0.702206 0.663278 0.076182 -0.130258
C19   C     C_R   0.701927 0.663874 0.947201 -0.127063
C20   C     C_R   0.574001 0.556438 0.938581 0.021626
C21   C     C_R   0.574184 0.555990 0.069820 0.025887
C22   C     C_R   0.510350 0.499721 0.129409 0.004362
C23   C     C_R   0.233259 0.501469 0.502919 0.011938
C24   C     C_R   0.510231 0.500238 0.871619 -0.004036
C25   C     C_R   0.451219 0.441522 0.060957 -0.158422
C26   C     C_R   0.451224 0.441708 0.933112 -0.156224
C27   C     C_R   0.093870 0.581755 0.455291 -0.124491
C28   C     C_R   0.905750 0.580382 0.550614 -0.124229
C29   C     C_R   0.185959 0.580873 0.455220 -0.134332
C30   C     C_R   0.813659 0.579446 0.550152 -0.138452
C31   C     C_3   0.390596 0.942221 0.674806 -0.270266
C32   C     C_3   0.436393 0.944844 0.804150 -0.294110
C33   C     C_3   0.380123 0.998263 0.896602 -0.455758
C34   C     C_R   0.766624 0.501317 0.498242 0.011046
C35   C     C_3   0.610634 0.939115 0.323025 -0.273165
C36   C     C_3   0.569035 0.931257 0.191385 -0.295074
C37   C     C_3   0.627074 0.979243 0.096777 -0.454718
C38   C     C_3   0.629889 0.250074 0.662629 -0.208865
C39   C     C_3   0.723124 0.237123 0.611364 -0.294365
C40   C     C_3   0.767725 0.142087 0.647858 -0.459551
C41   C     C_3   0.370934 0.249558 0.336261 -0.211639
C42   C     C_3   0.277413 0.235158 0.385809 -0.295891
C43   C     C_3   0.233657 0.140501 0.345443 -0.458846
C44   C     C_R   0.187581 0.424190 0.553515 -0.143881
C45   C     C_R   0.812462 0.425327 0.444291 -0.141766
C46   C     C_R   0.095462 0.424329 0.551725 -0.125355
C47   C     C_R   0.904583 0.425492 0.446529 -0.124618
C48   C     C_R   0.048318 0.503007 0.502277 0.031635
Cu1   Cu    Cu3+1 0.500000 0.596430 0.500000 0.908383
Cu2   Cu    Cu3+1 0.500000 0.403570 0.500000 0.899668
H1    H     H_    0.403137 0.397554 0.106705 0.106809
H2    H     H_    0.941374 0.640598 0.592257 0.103500
H3    H     H_    0.220084 0.641618 0.416494 0.123175
H4    H     H_    0.779296 0.639077 0.591732 0.114361
H5    H     H_    0.223044 0.364555 0.596097 0.110767
H6    H     H_    0.777117 0.366751 0.398773 0.113308
H7    H     H_    0.060940 0.363873 0.590519 0.104183
H8    H     H_    0.939274 0.366094 0.404959 0.104579
H9    H     H_    0.595683 0.065014 0.648613 0.102886
H10   H     H_    0.406574 0.064585 0.348597 0.105284
H11   H     H_    0.369293 0.073778 0.866398 0.150856
H12   H     H_    0.403257 0.397730 0.881632 0.125351
H13   H     H_    0.315046 0.962136 0.904605 0.149486
H14   H     H_    0.414723 0.998798 0.989289 0.137657
H15   H     H_    0.448235 0.870349 0.838032 0.162045
H16   H     H_    0.501422 0.981629 0.799424 0.158465
H17   H     H_    0.374053 0.016536 0.644570 0.157344
H18   H     H_    0.326459 0.903369 0.679055 0.126507
H19   H     H_    0.634903 0.056944 0.118350 0.151671
H20   H     H_    0.693373 0.944561 0.097286 0.148835
H21   H     H_    0.595646 0.971740 0.002497 0.139218
H22   H     H_    0.560167 0.854422 0.165212 0.166427
H23   H     H_    0.410067 0.750887 0.644467 0.130509
H24   H     H_    0.502903 0.966479 0.188302 0.158135
H25   H     H_    0.622084 0.015990 0.346140 0.158506
H26   H     H_    0.676846 0.903938 0.326664 0.125752
H27   H     H_    0.761724 0.127681 0.748471 0.146953
H28   H     H_    0.738835 0.081762 0.592500 0.146237
H29   H     H_    0.839232 0.145949 0.627913 0.136614
H30   H     H_    0.719849 0.242711 0.508621 0.171013
H31   H     H_    0.766153 0.296237 0.648285 0.154907
H32   H     H_    0.620699 0.326583 0.678663 0.195223
H33   H     H_    0.627037 0.218115 0.756882 0.101292
H34   H     H_    0.590546 0.748861 0.356325 0.122291
H35   H     H_    0.240520 0.127803 0.244511 0.146463
H36   H     H_    0.262465 0.079433 0.399170 0.146369
H37   H     H_    0.161946 0.143622 0.364392 0.136585
H38   H     H_    0.279927 0.239027 0.488724 0.168694
H39   H     H_    0.234230 0.294592 0.350331 0.153183
H40   H     H_    0.379430 0.326283 0.322092 0.192555
H41   H     H_    0.374958 0.218444 0.241480 0.097030
H42   H     H_    0.645540 0.607357 0.237483 0.132801
H43   H     H_    0.644332 0.609913 0.778902 0.134989
H44   H     H_    0.751817 0.703800 0.129168 0.106315
H45   H     H_    0.751346 0.704847 0.900037 0.104272
H46   H     H_    0.058077 0.642967 0.416786 0.103710
N1    N     N_R   0.500000 0.258690 0.500000 -0.215642
N2    N     N_R   0.500000 0.741330 0.500000 -0.242668
O1    O     O_R   0.371460 0.581430 0.500010 -0.498357
O2    O     O_R   0.628540 0.581430 0.499990 -0.519035
O3    O     O_R   0.371470 0.418560 0.500010 -0.517517
O4    O     O_R   0.628530 0.418560 0.499990 -0.516517
O5    O     O_R   0.500000 0.581450 0.319650 -0.506837
O6    O     O_R   0.500000 0.581450 0.680350 -0.507003
O7    O     O_R   0.500010 0.418580 0.319650 -0.518632
O8    O     O_R   0.499990 0.418580 0.680350 -0.520884

loop_
_geom_bond_atom_site_label_1
_geom_bond_atom_site_label_2
_ccdc_geom_bond_type
C27   C48   A    
C8    C13   A    
C37   H19   S    
C38   H33   S    
C27   C29   A    
C41   C42   S    
C35   C36   S    
C33   H11   S    
C1    O1    A    
Cu1   O6    S    
C31   H17   S    
C30   H4    S    
C35   H25   S    
C16   C21   A    
C11   N2    A    
C23   C29   A    
C15   O8    A    
C36   C37   S    
C24   C26   A    
C3    C7    A    
C38   C39   S    
C10   H23   S    
C9    C35   S    
C17   C20   A    
C18   C19   A    
C10   N2    A    
C9    C13   A    
Cu1   N2    S    
C14   O7    A    
C20   C24   A    
C45   H6    S    
C22   C25   A    
Cu2   O7    S    
C15   O6    A    
C41   H40   S    
C21   C22   A    
C38   H32   S    
C43   H36   S    
C27   H46   S    
C4    C7    A    
C44   C46   A    
C45   C47   A    
C31   H18   S    
C46   C48   A    
C35   H26   S    
C30   C34   A    
C43   H35   S    
C6    N1    A    
C5    C38   S    
C39   H31   S    
C4    C6    A    
C39   C40   S    
C2    C48   S    
C25   C26   A    
C6    C41   S    
C23   C44   A    
C25   H1    S    
C12   O4    A    
Cu1   O1    S    
C31   C32   S    
C33   H13   S    
C4    H10   S    
C1    C23   S    
C40   H29   S    
C34   C45   A    
C9    C11   A    
C36   H24   S    
C8    C10   A    
C15   C24   S    
C41   H41   S    
C5    N1    A    
Cu2   O4    S    
C37   H21   S    
C46   H7    S    
C11   H34   S    
C40   H28   S    
C42   H38   S    
C42   C43   S    
C12   C34   S    
C1    O3    A    
C19   H45   S    
C32   H16   S    
Cu2   N1    S    
C8    C31   S    
C3    C5    A    
Cu1   O5    S    
C16   H42   S    
C2    C47   A    
C42   H39   S    
C43   H37   S    
C32   C33   S    
C14   C22   S    
C28   C30   A    
C26   H12   S    
C39   H30   S    
C47   H8    S    
C28   H2    S    
C44   H5    S    
C14   O5    A    
C29   H3    S    
C33   H14   S    
C18   H44   S    
C17   C19   A    
C12   O2    A    
C7    C13   S    
C17   H43   S    
C20   C21   A    
Cu2   O3    S    
C16   C18   A    
Cu1   Cu2   S    
Cu2   O8    S    
C40   H27   S    
C2    C28   A    
C37   H20   S    
C36   H22   S    
C32   H15   S    
Cu1   O2    S    
C3    H9    S    
