data_mof_unit_pretest_1851.cif
_audit_creation_date              2012-12-11T15:10:35-0500
_audit_creation_method            fapswitch 2.2
_symmetry_space_group_name_H-M    P1
_symmetry_Int_Tables_number       1
_space_group_crystal_system       triclinic
_cell_length_a                    13.729656
_cell_length_b                    13.730211
_cell_length_c                    28.404489
_cell_angle_alpha                 90.003324
_cell_angle_beta                  89.99351
_cell_angle_gamma                 119.999474
_cell_volume                      4637.21016103

loop_
_atom_site_label
_atom_site_type_symbol
_atom_type_description
_atom_site_fract_x
_atom_site_fract_y
_atom_site_fract_z
_atom_type_partial_charge
C1    C     C_R   0.546386 0.431652 0.183411 0.549370
C2    C     C_R   0.568349 0.114730 0.183411 0.549383
C3    C     C_R   0.885276 0.453616 0.183412 0.549379
C4    C     C_R   0.432909 0.545198 0.815903 0.552028
C5    C     C_R   0.112278 0.567088 0.815901 0.552041
C6    C     C_R   0.454802 0.887719 0.815902 0.552044
C7    C     C_3   0.558996 0.943304 0.467062 -0.012859
C8    C     C_3   0.056567 0.615686 0.467097 -0.012963
C9    C     C_3   0.384247 0.441012 0.467115 -0.012779
C10   C     C_3   0.902630 0.460840 0.538336 -0.001461
C11   C     C_3   0.558305 0.097308 0.538300 -0.001400
C12   C     C_3   0.538993 0.441562 0.538272 -0.001337
C13   C     C_1   0.462850 0.921607 0.635566 0.033085
C14   C     C_1   0.078401 0.541218 0.635569 0.033139
C15   C     C_1   0.458877 0.537123 0.635587 0.033062
C16   C     C_1   0.925104 0.468025 0.363945 0.017319
C17   C     C_1   0.542833 0.074802 0.363926 0.017330
C18   C     C_1   0.531876 0.457163 0.363915 0.017299
C19   C     C_3   0.512665 0.022614 0.454654 0.062471
C20   C     C_3   0.977274 0.490044 0.454675 0.062486
C21   C     C_3   0.509855 0.487296 0.454650 0.062568
C22   C     C_3   0.030755 0.510974 0.544421 0.059550
C23   C     C_3   0.480217 0.969209 0.544410 0.059587
C24   C     C_3   0.489129 0.519759 0.544428 0.059632
C25   C     C_3   0.364608 0.929624 0.519745 -0.125715
C26   C     C_3   0.070447 0.435075 0.519713 -0.125743
C27   C     C_3   0.565289 0.635349 0.519771 -0.125710
C28   C     C_3   0.033755 0.418584 0.466786 -0.105118
C29   C     C_3   0.384738 0.966166 0.466796 -0.105092
C30   C     C_3   0.581361 0.615217 0.466777 -0.105013
C31   C     C_1   0.467815 0.942482 0.594530 -0.029866
C32   C     C_1   0.057518 0.525293 0.594535 -0.029798
C33   C     C_1   0.474842 0.532157 0.594554 -0.029928
C34   C     C_1   0.948628 0.478239 0.404793 -0.033512
C35   C     C_1   0.529482 0.051245 0.404770 -0.033615
C36   C     C_1   0.521620 0.470491 0.404758 -0.033678
C37   C     C_R   0.545953 0.431463 0.317170 0.549766
C38   C     C_R   0.568538 0.114513 0.317175 0.549783
C39   C     C_R   0.885456 0.454019 0.317183 0.549769
C40   C     C_R   0.431636 0.546724 0.682665 0.556658
C41   C     C_R   0.115131 0.568390 0.682657 0.556724
C42   C     C_R   0.453267 0.884873 0.682656 0.556711
C43   C     C_3   0.529910 0.134095 0.017097 -0.250719
C44   C     C_3   0.865895 0.395821 0.017098 -0.250721
C45   C     C_3   0.604176 0.470082 0.017086 -0.250717
C46   C     C_3   0.091176 0.482944 0.977982 -0.243659
C47   C     C_3   0.391768 0.908812 0.977999 -0.243652
C48   C     C_3   0.517043 0.608238 0.977998 -0.243648
C49   C     C_3   0.404342 0.927926 0.031864 -0.210191
C50   C     C_3   0.072071 0.476397 0.031849 -0.210201
C51   C     C_3   0.523597 0.595672 0.031863 -0.210187
C52   C     C_3   0.885813 0.410483 0.963091 -0.219508
C53   C     C_3   0.524634 0.114169 0.963090 -0.219503
C54   C     C_3   0.589512 0.475352 0.963081 -0.219498
C55   C     C_1   0.474203 0.938649 0.861358 0.027458
C56   C     C_1   0.061340 0.535569 0.861357 0.027460
C57   C     C_1   0.464422 0.525791 0.861361 0.027453
C58   C     C_1   0.926000 0.467819 0.136250 0.032369
C59   C     C_1   0.541842 0.074009 0.136249 0.032356
C60   C     C_1   0.532184 0.458171 0.136249 0.032357
C61   C     C_3   0.519782 0.030874 0.044002 0.039198
C62   C     C_3   0.969130 0.488899 0.044002 0.039205
C63   C     C_3   0.511096 0.480231 0.044003 0.039199
C64   C     C_3   0.006220 0.508075 0.952419 0.041255
C65   C     C_3   0.501839 0.993772 0.952420 0.041246
C66   C     C_3   0.491913 0.498162 0.952422 0.041247
C67   C     C_3   0.598930 0.979004 0.973091 0.000685
C68   C     C_3   0.021010 0.619933 0.973105 0.000681
C69   C     C_3   0.380054 0.401089 0.973110 0.000682
C70   C     C_3   0.988384 0.604440 0.026166 0.003339
C71   C     C_3   0.616076 0.011631 0.026150 0.003340
C72   C     C_3   0.395549 0.383950 0.026167 0.003338
C73   C     C_1   0.488138 0.969165 0.901724 -0.022914
C74   C     C_1   0.030822 0.518988 0.901723 -0.022912
C75   C     C_1   0.480998 0.511857 0.901726 -0.022919
C76   C     C_1   0.948270 0.477070 0.094975 -0.021051
C77   C     C_1   0.528825 0.051738 0.094975 -0.021063
C78   C     C_1   0.522930 0.471192 0.094976 -0.021062
C79   C     C_3   0.575399 0.129687 0.485475 -0.201472
C80   C     C_3   0.870216 0.445673 0.485516 -0.201540
C81   C     C_3   0.554234 0.424537 0.485434 -0.201426
C82   C     C_3   0.092417 0.627111 0.519467 -0.195275
C83   C     C_3   0.534544 0.907416 0.519430 -0.195224
C84   C     C_3   0.372979 0.465591 0.519484 -0.195151
Cr1   Cr    Cr6+3 0.748260 0.501860 0.250510 1.070643
Cr2   Cr    Cr6+3 0.498140 0.246400 0.250510 1.070610
Cr3   Cr    Cr6+3 0.753600 0.251740 0.250510 1.070634
Cr4   Cr    Cr6+3 0.501860 0.748260 0.749490 1.070737
Cr5   Cr    Cr6+3 0.246400 0.498140 0.749490 1.070735
Cr6   Cr    Cr6+3 0.251740 0.753600 0.749490 1.070723
H1    H     H_    0.456768 0.125763 0.947666 0.164847
H2    H     H_    0.874204 0.331027 0.947655 0.164846
H3    H     H_    0.668971 0.543204 0.947646 0.164848
H4    H     H_    0.057163 0.393724 0.044876 0.175653
H5    H     H_    0.336571 0.942826 0.044901 0.175652
H6    H     H_    0.606275 0.663436 0.044889 0.175652
H7    H     H_    0.475089 0.815530 0.521172 0.065588
H8    H     H_    0.184314 0.659637 0.521218 0.065640
H9    H     H_    0.340730 0.525193 0.521233 0.065622
H10   H     H_    0.812613 0.355295 0.478013 0.103350
H11   H     H_    0.542565 0.187256 0.478005 0.103340
H12   H     H_    0.644636 0.457399 0.477936 0.103194
H13   H     H_    0.359160 0.030447 0.460463 0.179778
H14   H     H_    0.969449 0.328717 0.460493 0.179815
H15   H     H_    0.671181 0.640829 0.460304 0.179655
H16   H     H_    0.163429 0.481011 0.521956 0.137906
H17   H     H_    0.317472 0.836663 0.522042 0.137939
H18   H     H_    0.519735 0.682742 0.522195 0.137991
H19   H     H_    0.460823 0.149570 0.027822 0.144651
H20   H     H_    0.850413 0.311256 0.027812 0.144648
H21   H     H_    0.688745 0.539160 0.027800 0.144656
H22   H     H_    0.081578 0.401957 0.965156 0.165961
H23   H     H_    0.320363 0.918395 0.965183 0.165964
H24   H     H_    0.598030 0.679630 0.965171 0.165965
H25   H     H_    0.394334 0.851280 0.049660 0.170762
H26   H     H_    0.148726 0.543026 0.049644 0.170764
H27   H     H_    0.456969 0.605695 0.049668 0.170761
H28   H     H_    0.822158 0.427230 0.946622 0.147647
H29   H     H_    0.605024 0.177829 0.946608 0.147653
H30   H     H_    0.572768 0.394958 0.946602 0.147654
H31   H     H_    0.370634 0.820931 0.970084 0.112574
H32   H     H_    0.179064 0.549682 0.970064 0.112565
H33   H     H_    0.450299 0.629382 0.970091 0.112572
H34   H     H_    0.789113 0.399701 0.026166 0.102115
H35   H     H_    0.610571 0.210880 0.026153 0.102118
H36   H     H_    0.600294 0.389420 0.026143 0.102118
H37   H     H_    0.697069 0.091508 0.030778 0.160297
H38   H     H_    0.908510 0.605562 0.030803 0.160303
H39   H     H_    0.394425 0.302955 0.030796 0.160304
H40   H     H_    0.110867 0.686074 0.969325 0.154138
H41   H     H_    0.575232 0.889154 0.969312 0.154144
H42   H     H_    0.313906 0.424797 0.969339 0.154133
H43   H     H_    0.666005 0.176688 0.476740 0.171073
H44   H     H_    0.823238 0.489324 0.476833 0.171072
H45   H     H_    0.510648 0.333944 0.476684 0.171057
H46   H     H_    0.077249 0.689759 0.537796 0.186555
H47   H     H_    0.612329 0.922449 0.537740 0.186523
H48   H     H_    0.310155 0.387885 0.537821 0.186415
H49   H     H_    0.516040 0.867659 0.444490 0.121265
H50   H     H_    0.132243 0.648416 0.444533 0.121285
H51   H     H_    0.351476 0.483914 0.444555 0.121213
H52   H     H_    0.859389 0.378431 0.555674 0.181480
H53   H     H_    0.519304 0.140667 0.555689 0.181476
H54   H     H_    0.621357 0.480456 0.555640 0.181514
O1    O     O_R   0.863770 0.527700 0.199270 -0.490517
O2    O     O_R   0.472300 0.336070 0.199270 -0.490532
O3    O     O_R   0.663930 0.136230 0.199270 -0.490528
O4    O     O_R   0.527700 0.863770 0.800730 -0.487023
O5    O     O_R   0.336070 0.472300 0.800730 -0.487024
O6    O     O_R   0.136230 0.663930 0.800730 -0.487024
O7    O     O_R   0.643280 0.490970 0.202410 -0.497227
O8    O     O_R   0.509030 0.152310 0.202410 -0.497227
O9    O     O_R   0.847690 0.356720 0.202410 -0.497222
O10   O     O_R   0.490970 0.643280 0.797590 -0.493886
O11   O     O_R   0.152310 0.509030 0.797590 -0.493870
O12   O     O_R   0.356720 0.847690 0.797590 -0.493875
O13   O     O_R   0.862920 0.527590 0.302350 -0.489582
O14   O     O_R   0.472410 0.335330 0.302350 -0.489626
O15   O     O_R   0.664670 0.137080 0.302350 -0.489587
O16   O     O_R   0.527590 0.862920 0.697650 -0.494223
O17   O     O_R   0.335330 0.472410 0.697650 -0.494242
O18   O     O_R   0.137080 0.664670 0.697650 -0.494261
O19   O     O_R   0.642490 0.490870 0.297970 -0.495752
O20   O     O_R   0.509130 0.151620 0.297970 -0.495789
O21   O     O_R   0.848380 0.357510 0.297970 -0.495788
O22   O     O_R   0.490870 0.642490 0.702030 -0.501310
O23   O     O_R   0.151620 0.509130 0.702030 -0.501309
O24   O     O_R   0.357510 0.848380 0.702030 -0.501325
O25   O     O_3   0.666667 0.333333 0.250440 -0.288675
O26   O     O_3   0.333333 0.666667 0.749560 -0.290455
C85   C     C_3   0.309731 0.866786 0.434464 -0.423035
H55   H     H_    0.324112 0.794935 0.439991 0.113271
H56   H     H_    0.221551 0.840492 0.442493 0.180637
H57   H     H_    0.322795 0.891011 0.396767 0.159773
C86   C     C_3   0.133039 0.442894 0.434399 -0.423006
H58   H     H_    0.204872 0.529159 0.439851 0.113330
H59   H     H_    0.159421 0.381093 0.442433 0.180602
H60   H     H_    0.108669 0.431560 0.396723 0.159794
C87   C     C_3   0.556714 0.690168 0.434541 -0.423138
H61   H     H_    0.470567 0.675869 0.440253 0.113187
H62   H     H_    0.618737 0.778344 0.442485 0.180682
H63   H     H_    0.567452 0.676982 0.396814 0.159658
C88   C     C_3   0.032809 0.321404 0.543836 -0.405423
H64   H     H_    0.941226 0.265044 0.540168 0.192341
H65   H     H_    0.075277 0.279696 0.526839 0.175216
H66   H     H_    0.055930 0.332499 0.581691 0.162957
C89   C     C_3   0.288733 0.967469 0.543869 -0.405434
H67   H     H_    0.323905 0.058982 0.540052 0.192427
H68   H     H_    0.204455 0.924869 0.526987 0.175054
H69   H     H_    0.276980 0.944733 0.581753 0.163072
C90   C     C_3   0.679214 0.710857 0.543801 -0.405357
H70   H     H_    0.735521 0.675748 0.539606 0.192276
H71   H     H_    0.720761 0.795369 0.527136 0.175013
H72   H     H_    0.668583 0.722041 0.581770 0.163446
I1    I     I_    0.635857 0.890585 0.067157 -0.412573
I2    I     I_    0.109445 0.745248 0.067179 -0.412602
I3    I     I_    0.254739 0.364200 0.067194 -0.412587
I4    I     I_    0.928970 0.684572 0.935222 -0.379487
I5    I     I_    0.755596 0.071057 0.935186 -0.379476
I6    I     I_    0.315421 0.244420 0.935215 -0.379471
I7    I     I_    0.713928 0.155155 0.575961 -0.432521
I8    I     I_    0.844562 0.558271 0.576133 -0.432731
I9    I     I_    0.441141 0.285955 0.575925 -0.432609
I10   I     I_    0.981653 0.719399 0.451854 -0.427127
I11   I     I_    0.737626 0.018187 0.451799 -0.426558
I12   I     I_    0.280457 0.262364 0.451925 -0.426761

loop_
_geom_bond_atom_site_label_1
_geom_bond_atom_site_label_2
_ccdc_geom_bond_type
C44   H20   S    
C7    C83   S    
C85   H55   S    
C46   H22   S    
C65   C73   S    
Cr2   O25   S    
C9    C84   S    
C5    C56   S    
C4    O10   A    
C24   C27   S    
C6    C55   S    
Cr6   O6    S    
C62   C76   S    
C43   H35   S    
C48   H33   S    
C90   H71   S    
C58   C76   T    
C72   H39   S    
C86   H59   S    
C21   C36   S    
C10   C22   S    
C4    O5    A    
C85   H56   S    
C60   C78   T    
C8    C20   S    
Cr3   O3    S    
Cr6   O18   S    
C8    C82   S    
C64   C68   S    
C47   C65   S    
C18   C37   S    
Cr1   O1    S    
C38   O15   A    
C54   H30   S    
C9    I12   S    
C88   H65   S    
C11   I7    S    
C47   H31   S    
C66   C69   S    
Cr3   O25   S    
C3    O9    A    
C80   H44   S    
C62   C70   S    
C68   I4    S    
C10   H52   S    
C12   I9    S    
Cr5   O23   S    
C89   H69   S    
C25   C89   S    
C16   C34   T    
C72   I3    S    
C27   C90   S    
C48   C51   S    
C61   C77   S    
C65   C67   S    
C4    C57   S    
C53   H1    S    
C69   I6    S    
C30   C87   S    
Cr3   O9    S    
C39   O13   A    
C53   C65   S    
C22   C32   S    
C40   O22   A    
C7    I11   S    
C51   H6    S    
C37   O19   A    
C87   H63   S    
C20   C34   S    
C26   C88   S    
C44   C52   S    
C25   H17   S    
C43   C53   S    
C84   H48   S    
C41   O18   A    
C80   H10   S    
C27   C30   S    
C25   C29   S    
C82   H8    S    
C71   H37   S    
C1    O2    A    
Cr1   O13   S    
Cr2   O2    S    
Cr5   O17   S    
C13   C42   S    
C42   O24   A    
C81   H45   S    
C86   H60   S    
C81   H12   S    
C2    O8    A    
C79   H43   S    
C85   H57   S    
C67   H41   S    
Cr5   O5    S    
C56   C74   T    
C20   C80   S    
C90   H70   S    
C8    I10   S    
Cr4   O26   S    
C47   C49   S    
C29   H13   S    
C52   C64   S    
C88   H66   S    
C9    H51   S    
C2    C59   S    
C50   H4    S    
C20   C28   S    
C44   C62   S    
C2    O3    A    
C5    O11   A    
C45   C63   S    
C29   C85   S    
C5    O6    A    
C12   H54   S    
C46   C64   S    
C23   C31   S    
C37   O14   A    
C39   O21   A    
C69   C72   S    
C68   H40   S    
C88   H64   S    
Cr1   O7    S    
Cr2   O8    S    
C26   H16   S    
C6    O4    A    
C28   H14   S    
C71   I1    S    
C86   H58   S    
C10   I8    S    
C45   H36   S    
Cr6   O26   S    
C50   H26   S    
C53   H29   S    
Cr4   O4    S    
C51   C63   S    
C49   H5    S    
C19   C79   S    
Cr2   O14   S    
C11   C79   S    
C14   C41   S    
C70   I2    S    
C49   H25   S    
C21   C81   S    
C45   C54   S    
C3    O1    A    
Cr4   O22   S    
C30   H15   S    
C83   H7    S    
C23   C83   S    
C1    C60   S    
Cr2   O20   S    
Cr6   O12   S    
C19   C29   S    
C22   C82   S    
C83   H47   S    
C43   C61   S    
C48   H24   S    
C70   H38   S    
C47   H23   S    
C46   C50   S    
C10   C80   S    
Cr6   O24   S    
C84   H9    S    
C26   C28   S    
C13   C31   T    
C42   O16   A    
C14   C32   T    
Cr1   O19   S    
Cr5   O26   S    
C45   H21   S    
C28   C86   S    
C54   C66   S    
C43   H19   S    
C21   C30   S    
C12   C24   S    
C7    C19   S    
C24   C33   S    
C54   H3    S    
C8    H50   S    
C59   C77   T    
C57   C75   T    
C24   C84   S    
C90   H72   S    
C40   O17   A    
C19   C35   S    
C7    H49   S    
C49   C61   S    
C9    C21   S    
Cr3   O21   S    
C11   H53   S    
C27   H18   S    
C69   H42   S    
C50   C62   S    
C66   C75   S    
C41   O23   A    
C11   C23   S    
C63   C72   S    
C51   H27   S    
Cr3   O15   S    
C12   C81   S    
C1    O7    A    
C67   I5    S    
C67   C71   S    
C17   C38   S    
Cr4   O16   S    
C82   H46   S    
Cr1   O25   S    
C15   C40   S    
C89   H68   S    
C46   H32   S    
Cr5   O11   S    
C16   C39   S    
C61   C71   S    
C87   H61   S    
C55   C73   T    
C3    C58   S    
C89   H67   S    
C23   C25   S    
C38   O20   A    
C68   C70   S    
C22   C26   S    
C44   H34   S    
C64   C74   S    
C79   H11   S    
C17   C35   T    
C48   C66   S    
C18   C36   T    
C15   C33   T    
C52   H2    S    
C6    O12   A    
Cr4   O10   S    
C87   H62   S    
C63   C78   S    
C52   H28   S    
