data_mof_unit_pretest_904.cif
_audit_creation_date              2012-12-10T21:32:09-0500
_audit_creation_method            fapswitch 2.2
_symmetry_space_group_name_H-M    P1
_symmetry_Int_Tables_number       1
_space_group_crystal_system       triclinic
_cell_length_a                    15.508033
_cell_length_b                    16.177018
_cell_length_c                    16.672594
_cell_angle_alpha                 92.296323
_cell_angle_beta                  90.298055
_cell_angle_gamma                 111.807316
_cell_volume                      3879.36582451

loop_
_atom_site_label
_atom_site_type_symbol
_atom_type_description
_atom_site_fract_x
_atom_site_fract_y
_atom_site_fract_z
_atom_type_partial_charge
C1    C     C_R   0.497085 0.488320 0.346428 0.897366
C2    C     C_R   0.516067 0.446556 0.785589 0.408495
C3    C     C_R   0.403028 0.502431 0.139610 -0.168159
C4    C     C_R   0.533004 0.460129 0.868559 -0.137258
C5    C     C_R   0.435712 0.443816 0.096095 0.210979
C6    C     C_R   0.506334 0.524783 0.909219 0.215699
C7    C     C_R   0.479967 0.395503 0.135163 -0.145781
C8    C     C_R   0.483089 0.586367 0.866897 -0.160556
C9    C     C_R   0.499095 0.409864 0.216768 -0.311038
C10   C     C_R   0.481804 0.582014 0.783668 -0.312990
C11   C     C_R   0.534404 0.777402 0.549775 -0.029714
C12   C     C_R   0.498419 0.509697 0.653726 0.874563
C13   C     C_R   0.465778 0.222405 0.450609 -0.031011
C14   C     C_R   0.527623 0.862518 0.551967 -0.271623
C15   C     C_R   0.473862 0.138049 0.448388 -0.280525
C16   C     C_R   0.326206 0.443946 0.507644 0.914006
C17   C     C_R   0.674263 0.556274 0.493743 0.933469
C18   C     C_R   0.475848 0.882939 0.491325 0.178600
C19   C     C_R   0.526721 0.118525 0.508771 0.194349
C20   C     C_R   0.426874 0.815378 0.433725 0.388172
C21   C     C_R   0.574393 0.185477 0.567709 0.396996
C22   C     C_R   0.435270 0.731311 0.434227 -0.161589
C23   C     C_R   0.897374 0.397471 0.516479 -0.202840
C24   C     C_R   0.565808 0.270110 0.565626 -0.181553
C25   C     C_R   0.225554 0.407750 0.524086 -0.269542
C26   C     C_R   0.776878 0.593659 0.487735 -0.236724
C27   C     C_R   0.071217 0.293059 0.515144 -0.249574
C28   C     C_R   0.929158 0.710182 0.509832 -0.255844
C29   C     C_R   0.167586 0.316331 0.515944 -0.100806
C30   C     C_R   0.833185 0.685548 0.497720 -0.104248
C31   C     C_R   0.185387 0.470108 0.546779 0.420024
C32   C     C_R   0.820301 0.531874 0.476797 0.392731
C33   C     C_R   0.090410 0.449945 0.530171 -0.011931
C34   C     C_R   0.105022 0.608614 0.524719 -0.195878
C35   C     C_R   0.913223 0.554259 0.502394 -0.033194
C36   C     C_R   0.032708 0.358759 0.519278 0.083707
C37   C     C_R   0.968838 0.645579 0.513833 0.103689
C38   C     C_R   0.050644 0.516326 0.524586 0.084611
C39   C     C_R   0.952886 0.488988 0.513619 0.068810
C40   C     C_2   0.413243 0.242103 0.384518 1.014945
C41   C     C_2   0.586279 0.757168 0.616057 1.014297
C42   C     C_2   0.431027 0.072435 0.380704 1.047722
C43   C     C_2   0.570438 0.927820 0.619805 1.057632
C44   C     C_3   0.279844 0.781985 0.380038 0.073848
C45   C     C_R   0.936701 0.333473 0.516180 -0.210450
C46   C     C_3   0.244063 0.726865 0.301745 -0.328765
C47   C     C_3   0.140717 0.669835 0.305391 -0.914870
C48   C     C_3   0.650922 0.216346 0.695076 0.097920
C49   C     C_3   0.746262 0.292379 0.693494 -0.367599
C50   C     C_3   0.766010 0.351930 0.769900 -0.863446
C51   C     C_3   0.806887 0.458115 0.354037 0.080877
C52   C     C_3   0.724397 0.426205 0.295019 -0.334464
C53   C     C_3   0.755586 0.425479 0.208432 -0.901474
C54   C     C_3   0.262993 0.534999 0.665184 0.122836
C55   C     C_3   0.182083 0.519491 0.722573 -0.413773
C56   C     C_R   0.064496 0.671861 0.523542 -0.226195
C57   C     C_3   0.212038 0.512957 0.808705 -0.850132
C58   C     C_2   0.797809 0.757953 0.487700 1.033164
C59   C     C_2   0.202846 0.242984 0.515902 1.034588
C60   C     C_3   0.425934 0.308168 0.731726 0.152055
C61   C     C_3   0.390843 0.243025 0.799074 -0.371731
C62   C     C_3   0.293143 0.175594 0.779680 -0.899540
C63   C     C_3   0.481172 0.679758 0.228210 0.090777
C64   C     C_3   0.579145 0.712205 0.266014 -0.351648
C65   C     C_3   0.640408 0.802062 0.234771 -0.901808
C66   C     C_2   0.580051 0.409258 0.912727 0.929042
C67   C     C_R   0.478658 0.476087 0.259536 -0.161274
C68   C     C_2   0.335341 0.536759 0.102392 0.922969
C69   C     C_R   0.498326 0.512805 0.741939 -0.185613
C70   C     C_R   0.435277 0.526828 0.219564 0.442251
H1    H     H_    0.891513 0.263680 0.513909 0.174105
H2    H     H_    0.463742 0.636413 0.898640 0.176396
H3    H     H_    0.533959 0.372033 0.245649 0.215133
H4    H     H_    0.463649 0.630364 0.752158 0.212429
H5    H     H_    0.388127 0.236128 0.265184 0.350964
H6    H     H_    0.609806 0.761309 0.735543 0.349100
H7    H     H_    0.449915 0.995965 0.289172 0.360146
H8    H     H_    0.551428 0.004001 0.711511 0.344995
H9    H     H_    0.242291 0.828091 0.389570 0.193056
H10   H     H_    0.262572 0.736919 0.431367 0.113923
H11   H     H_    0.255680 0.772241 0.251160 0.238806
H12   H     H_    0.108844 0.741917 0.526671 0.154585
H13   H     H_    0.283061 0.682453 0.290182 0.262840
H14   H     H_    0.128440 0.620303 0.352459 0.269270
H15   H     H_    0.116376 0.633369 0.246689 0.273764
H16   H     H_    0.099918 0.712327 0.318659 0.264712
H17   H     H_    0.653636 0.171562 0.742997 0.169578
H18   H     H_    0.594626 0.240037 0.712861 0.168396
H19   H     H_    0.801020 0.263805 0.686742 0.240061
H20   H     H_    0.749894 0.333965 0.641513 0.212946
H21   H     H_    0.715920 0.386168 0.774384 0.302163
H22   H     H_    0.837264 0.403350 0.768191 0.256970
H23   H     H_    0.397703 0.679635 0.390101 0.200079
H24   H     H_    0.760958 0.311992 0.823567 0.265656
H25   H     H_    0.846585 0.413543 0.347405 0.171389
H26   H     H_    0.853789 0.526479 0.337907 0.130186
H27   H     H_    0.677234 0.357848 0.309297 0.248121
H28   H     H_    0.685636 0.471606 0.301561 0.214157
H29   H     H_    0.801169 0.493666 0.192421 0.269483
H30   H     H_    0.693868 0.401998 0.167293 0.282068
H31   H     H_    0.793849 0.379842 0.200319 0.267076
H32   H     H_    0.321173 0.596320 0.686594 0.177476
H33   H     H_    0.289044 0.479518 0.667092 0.106748
H34   H     H_    0.603727 0.324365 0.607329 0.183047
H35   H     H_    0.157116 0.575472 0.719902 0.244866
H36   H     H_    0.123781 0.456593 0.704271 0.222450
H37   H     H_    0.236837 0.456999 0.812660 0.267349
H38   H     H_    0.152115 0.500797 0.848901 0.272820
H39   H     H_    0.268644 0.576028 0.829448 0.269431
H40   H     H_    0.715861 0.805358 0.425157 0.338458
H41   H     H_    0.288316 0.190600 0.566664 0.332080
H42   H     H_    0.426835 0.269039 0.675741 0.179738
H43   H     H_    0.375496 0.341086 0.720204 0.136990
H44   H     H_    0.438195 0.206449 0.806933 0.257606
H45   H     H_    0.025875 0.223270 0.510325 0.184282
H46   H     H_    0.389462 0.280311 0.856165 0.234310
H47   H     H_    0.243965 0.210293 0.772322 0.274218
H48   H     H_    0.269400 0.129406 0.829516 0.272881
H49   H     H_    0.292848 0.136027 0.723582 0.270709
H50   H     H_    0.450405 0.730368 0.242960 0.186236
H51   H     H_    0.485545 0.676686 0.161543 0.132804
H52   H     H_    0.575024 0.719563 0.332112 0.266384
H53   H     H_    0.611818 0.662903 0.251927 0.224876
H54   H     H_    0.646801 0.796744 0.168608 0.266160
H55   H     H_    0.710819 0.823571 0.262912 0.283917
H56   H     H_    0.973418 0.780251 0.515485 0.183070
H57   H     H_    0.610489 0.853205 0.250078 0.274166
H58   H     H_    0.615146 0.301163 0.917057 0.334609
H59   H     H_    0.248304 0.602887 0.117631 0.337958
H60   H     H_    0.822754 0.373327 0.518933 0.205796
H61   H     H_    0.179414 0.634855 0.523088 0.209251
H62   H     H_    0.503827 0.349794 0.101357 0.184361
N1    N     N_2   0.442571 0.446526 0.012496 -0.138230
N2    N     N_2   0.493122 0.522509 0.992409 -0.131174
N3    N     N_R   0.489120 0.713640 0.490430 -0.139674
N4    N     N_R   0.510880 0.286360 0.509570 -0.133556
N5    N     N_2   0.465897 0.967636 0.489564 -0.115464
N6    N     N_2   0.537070 0.033899 0.510311 -0.092397
O1    O     O_R   0.503890 0.423710 0.387290 -0.619694
O2    O     O_R   0.433060 0.226752 0.304864 -0.828761
O3    O     O_2   0.649883 0.732275 0.601939 -0.589892
O4    O     O_R   0.566284 0.772606 0.695637 -0.832199
O5    O     O_2   0.347464 0.046938 0.366687 -0.605400
O6    O     O_R   0.486737 0.040023 0.333352 -0.760470
O7    O     O_2   0.653801 0.952436 0.634453 -0.585074
O8    O     O_R   0.514837 0.960762 0.666743 -0.775179
O9    O     O_3   0.375645 0.834230 0.373819 -0.632251
O10   O     O_3   0.632722 0.165630 0.621412 -0.622448
O11   O     O_3   0.772930 0.453032 0.433159 -0.643030
O12   O     O_R   0.496110 0.576290 0.612710 -0.619626
O13   O     O_3   0.238785 0.549902 0.586586 -0.656306
O14   O     O_2   0.828698 0.826090 0.530595 -0.583567
O15   O     O_R   0.733836 0.751192 0.426027 -0.810502
O16   O     O_2   0.168126 0.177802 0.470012 -0.583672
O17   O     O_R   0.271091 0.245182 0.571974 -0.822254
O18   O     O_3   0.518242 0.369317 0.748032 -0.625636
O19   O     O_3   0.422304 0.597982 0.259704 -0.615220
O20   O     O_2   0.621749 0.440407 0.976105 -0.631957
O21   O     O_R   0.580281 0.327982 0.881289 -0.809273
O22   O     O_2   0.312674 0.520165 0.031416 -0.624567
O23   O     O_R   0.496910 0.560910 0.381140 -0.579834
O24   O     O_R   0.293519 0.584356 0.149449 -0.792433
O25   O     O_R   0.503090 0.439090 0.618860 -0.590115
O26   O     O_R   0.373240 0.392210 0.504830 -0.553344
O27   O     O_R   0.626760 0.607790 0.495170 -0.553426
O28   O     O_R   0.366260 0.529410 0.498680 -0.572093
O29   O     O_R   0.633740 0.470590 0.501320 -0.569137
O30   O     O_2   0.349286 0.266431 0.398887 -0.586512
Zn1   Zn    Zn3+2 0.504660 0.408390 0.504100 1.004152
Zn2   Zn    Zn3+2 0.495340 0.591610 0.495900 1.006583

loop_
_geom_bond_atom_site_label_1
_geom_bond_atom_site_label_2
_ccdc_geom_bond_type
C25   C31   A    
C12   C69   S    
C34   C56   A    
C23   C45   A    
C27   C29   A    
C14   C18   A    
C2    C4    A    
C3    C68   S    
C49   H20   S    
C44   O9    S    
C60   O18   S    
O26   Zn1   S    
O29   Zn1   S    
C16   O26   A    
C15   C19   A    
C55   H35   S    
C43   O7    D    
C17   C26   S    
C65   H57   S    
C35   C37   A    
H5    O2    S    
C38   C39   A    
C11   C14   A    
C64   H52   S    
N3    Zn2   S    
C45   H1    S    
C48   O10   S    
C52   H27   S    
C16   C25   S    
C33   C36   A    
C61   H44   S    
C65   H54   S    
C27   H45   S    
C62   H47   S    
C1    C67   S    
C46   C47   S    
C37   C56   A    
C57   H39   S    
C32   O11   S    
C29   C59   S    
C53   H31   S    
C13   C40   S    
C48   H18   S    
O1    Zn1   S    
C48   H17   S    
C2    C69   A    
C1    O1    A    
C51   H26   S    
C24   N4    A    
C1    O23   A    
C30   C58   S    
C60   H43   S    
C9    H3    S    
C66   O21   S    
C63   H51   S    
C59   O16   D    
C58   O14   D    
C53   H30   S    
C25   C29   A    
C8    H2    S    
C62   H48   S    
C55   H36   S    
C51   C52   S    
C32   C35   A    
C12   O12   A    
C54   H33   S    
C44   H10   S    
C3    C70   A    
C4    C6    A    
C17   O29   A    
C16   O28   A    
C5    C7    A    
C59   O17   S    
C26   C32   A    
C50   H24   S    
C6    C8    A    
C44   C46   S    
C21   O10   S    
C53   H29   S    
C63   C64   S    
C23   H60   S    
C60   C61   S    
C24   H34   S    
C65   H55   S    
C18   N5    S    
C35   C39   A    
C9    C67   A    
C41   O3    D    
C60   H42   S    
C58   O15   S    
C11   N3    A    
C46   H11   S    
C31   O13   S    
C13   C15   A    
C61   H46   S    
C31   C33   A    
C62   H49   S    
C20   O9    S    
C36   C45   A    
C47   H14   S    
C7    H62   S    
C5    N1    S    
O23   Zn2   S    
C50   H22   S    
C48   C49   S    
C57   H37   S    
C20   C22   A    
C34   H61   S    
O28   Zn2   S    
C55   C57   S    
C42   O6    S    
N1    N2    D    
C22   H23   S    
C63   O19   S    
C47   H15   S    
C66   O20   D    
C52   C53   S    
O27   Zn2   S    
C7    C9    A    
C54   C55   S    
C2    O18   S    
C19   C21   A    
C34   C38   A    
C54   H32   S    
C44   H9    S    
C15   C42   S    
C49   H19   S    
C3    C5    A    
C56   H12   S    
C54   O13   S    
C68   O24   S    
C27   C36   A    
C28   H56   S    
C64   H53   S    
N5    N6    D    
C33   C38   A    
C22   N3    A    
C67   C70   A    
C64   C65   S    
C70   O19   S    
C28   C30   A    
C47   H16   S    
H7    O6    S    
C41   O4    S    
C6    N2    S    
C43   O8    S    
C17   O27   A    
C12   O25   A    
C4    C66   S    
C63   H50   S    
C10   H4    S    
O12   Zn2   S    
C28   C37   A    
C19   N6    S    
C23   C39   A    
C40   O2    S    
C52   H28   S    
C13   N4    A    
H59   O24   S    
C11   C41   S    
C18   C20   A    
C61   C62   S    
O25   Zn1   S    
C40   O30   D    
H8    O8    S    
C46   H13   S    
C10   C69   A    
C50   H21   S    
C57   H38   S    
N4    Zn1   S    
C51   O11   S    
C8    C10   A    
C49   C50   S    
C21   C24   A    
C42   O5    D    
H40   O15   S    
C68   O22   D    
H41   O17   S    
H58   O21   S    
C51   H25   S    
C14   C43   S    
C26   C30   A    
H6    O4    S    
