data_mof_unit_pretest_1564.cif
_audit_creation_date              2012-12-11T14:34:44-0500
_audit_creation_method            fapswitch 2.2
_symmetry_space_group_name_H-M    P1
_symmetry_Int_Tables_number       1
_space_group_crystal_system       triclinic
_cell_length_a                    33.510458
_cell_length_b                    7.24934
_cell_length_c                    27.883576
_cell_angle_alpha                 89.999968
_cell_angle_beta                  140.488068
_cell_angle_gamma                 90.000024
_cell_volume                      4309.70477422

loop_
_atom_site_label
_atom_site_type_symbol
_atom_type_description
_atom_site_fract_x
_atom_site_fract_y
_atom_site_fract_z
_atom_type_partial_charge
O1    O     O_R   0.335930 0.530330 0.836120 -0.535626
O2    O     O_R   0.664070 0.469670 0.163880 -0.535627
O3    O     O_R   0.664070 0.530330 0.663880 -0.535626
O4    O     O_R   0.335930 0.469670 0.336120 -0.535626
O5    O     O_R   0.835930 0.030330 0.836120 -0.535626
O6    O     O_R   0.164070 0.969670 0.163880 -0.535627
O7    O     O_R   0.164070 0.030330 0.663880 -0.535626
O8    O     O_R   0.835930 0.969670 0.336120 -0.535626
O9    O     O_R   0.254100 0.856860 0.685510 -0.535829
O10   O     O_R   0.745900 0.143140 0.314490 -0.535829
O11   O     O_R   0.745900 0.856860 0.814490 -0.535829
O12   O     O_R   0.254100 0.143140 0.185510 -0.535828
O13   O     O_R   0.754100 0.356860 0.685510 -0.535829
O14   O     O_R   0.245900 0.643140 0.314490 -0.535829
O15   O     O_R   0.245900 0.356860 0.814490 -0.535829
O16   O     O_R   0.754100 0.643140 0.185510 -0.535828
C1    C     C_R   0.251348 0.692187 0.663144 0.716585
C2    C     C_R   0.748652 0.307813 0.336856 0.716585
C3    C     C_R   0.748652 0.692187 0.836856 0.716587
C4    C     C_R   0.251348 0.307813 0.163144 0.716588
C5    C     C_R   0.751348 0.192187 0.663144 0.716585
C6    C     C_R   0.248652 0.807813 0.336856 0.716585
C7    C     C_R   0.248652 0.192187 0.836856 0.716587
C8    C     C_R   0.751348 0.807813 0.163144 0.716588
O17   O     O_R   0.341180 0.859830 0.836880 -0.541215
O18   O     O_R   0.658820 0.140170 0.163120 -0.541215
O19   O     O_R   0.658820 0.859830 0.663120 -0.541215
O20   O     O_R   0.341180 0.140170 0.336880 -0.541215
O21   O     O_R   0.841180 0.359830 0.836880 -0.541215
O22   O     O_R   0.158820 0.640170 0.163120 -0.541215
O23   O     O_R   0.158820 0.359830 0.663120 -0.541215
O24   O     O_R   0.841180 0.640170 0.336880 -0.541215
O25   O     O_R   0.251370 0.033430 0.816330 -0.533181
O26   O     O_R   0.748630 0.966570 0.183670 -0.533181
O27   O     O_R   0.748630 0.033430 0.683670 -0.533180
O28   O     O_R   0.251370 0.966570 0.316330 -0.533181
O29   O     O_R   0.751370 0.533430 0.816330 -0.533181
O30   O     O_R   0.248630 0.466570 0.183670 -0.533181
O31   O     O_R   0.248630 0.533430 0.683670 -0.533180
O32   O     O_R   0.751370 0.466570 0.316330 -0.533181
C9    C     C_R   0.366305 0.689975 0.864075 0.743452
C10   C     C_R   0.633695 0.310025 0.135925 0.743452
C11   C     C_R   0.633695 0.689975 0.635925 0.743451
C12   C     C_R   0.366305 0.310025 0.364075 0.743451
C13   C     C_R   0.866305 0.189975 0.864075 0.743452
C14   C     C_R   0.133695 0.810025 0.135925 0.743452
C15   C     C_R   0.133695 0.189975 0.635925 0.743451
C16   C     C_R   0.866305 0.810025 0.364075 0.743451
O33   O     O_3   0.220230 0.697940 0.743080 -0.378414
O34   O     O_3   0.779770 0.302060 0.256920 -0.378414
O35   O     O_3   0.779770 0.697940 0.756920 -0.378414
O36   O     O_3   0.220230 0.302060 0.243080 -0.378414
O37   O     O_3   0.720230 0.197940 0.743080 -0.378414
O38   O     O_3   0.279770 0.802060 0.256920 -0.378414
O39   O     O_3   0.279770 0.197940 0.756920 -0.378414
O40   O     O_3   0.720230 0.802060 0.243080 -0.378414
V1    V     V_3+5 0.255280 0.971510 0.751280 1.413111
V2    V     V_3+5 0.744720 0.028490 0.248720 1.413111
V3    V     V_3+5 0.744720 0.971510 0.748720 1.413111
V4    V     V_3+5 0.255280 0.028490 0.251280 1.413111
V5    V     V_3+5 0.755280 0.471510 0.751280 1.413111
V6    V     V_3+5 0.244720 0.528490 0.248720 1.413111
V7    V     V_3+5 0.244720 0.471510 0.748720 1.413111
V8    V     V_3+5 0.755280 0.528490 0.251280 1.413111
C17   C     C_2   0.064031 0.174102 0.566916 -0.337303
C18   C     C_2   0.935969 0.825898 0.433084 -0.337303
C19   C     C_2   0.935968 0.174103 0.933085 -0.337304
C20   C     C_2   0.064032 0.825897 0.066915 -0.337304
C21   C     C_2   0.564031 0.674102 0.566916 -0.337303
C22   C     C_2   0.435969 0.325898 0.433084 -0.337303
C23   C     C_2   0.435968 0.674103 0.933085 -0.337304
C24   C     C_2   0.564032 0.325897 0.066915 -0.337304
C25   C     C_2   0.034693 0.008571 0.534543 -0.123875
C26   C     C_2   0.965307 0.991429 0.465457 -0.123875
C27   C     C_2   0.965307 0.008571 0.965456 -0.123878
C28   C     C_2   0.034693 0.991429 0.034544 -0.123877
C29   C     C_2   0.534693 0.508571 0.534543 -0.123875
C30   C     C_2   0.465307 0.491429 0.465457 -0.123875
C31   C     C_2   0.465307 0.508571 0.965456 -0.123878
C32   C     C_2   0.534693 0.491429 0.034544 -0.123877
C33   C     C_1   0.248203 0.186585 0.888594 -0.176779
C34   C     C_1   0.751797 0.813415 0.111406 -0.176779
C35   C     C_1   0.751796 0.186585 0.611405 -0.176780
C36   C     C_1   0.248204 0.813415 0.388595 -0.176780
C37   C     C_1   0.748203 0.686585 0.888594 -0.176779
C38   C     C_1   0.251797 0.313415 0.111406 -0.176779
C39   C     C_1   0.251796 0.686585 0.611405 -0.176780
C40   C     C_1   0.748204 0.313415 0.388595 -0.176780
C41   C     C_2   0.247391 0.174059 0.983829 -0.142702
C42   C     C_2   0.752609 0.825941 0.016171 -0.142702
C43   C     C_2   0.752606 0.174058 0.516168 -0.142702
C44   C     C_2   0.247394 0.825942 0.483832 -0.142702
C45   C     C_2   0.747391 0.674059 0.983829 -0.142702
C46   C     C_2   0.252609 0.325941 0.016171 -0.142702
C47   C     C_2   0.252606 0.674058 0.516168 -0.142702
C48   C     C_2   0.747394 0.325942 0.483832 -0.142702
C49   C     C_1   0.252101 0.317018 0.068033 0.010889
C50   C     C_1   0.747899 0.682982 0.931967 0.010889
C51   C     C_1   0.747900 0.317018 0.431968 0.010888
C52   C     C_1   0.252100 0.682982 0.568032 0.010888
C53   C     C_1   0.752101 0.817017 0.068033 0.010889
C54   C     C_1   0.247899 0.182982 0.931967 0.010889
C55   C     C_1   0.247900 0.817018 0.431968 0.010888
C56   C     C_1   0.752100 0.182982 0.568032 0.010888
H1    H     H_    0.937941 0.117798 0.440964 0.157486
H2    H     H_    0.062059 0.882202 0.559036 0.157486
H3    H     H_    0.062058 0.117800 0.059042 0.157488
H4    H     H_    0.937942 0.882200 0.940958 0.157488
H5    H     H_    0.437941 0.617798 0.440964 0.157486
H6    H     H_    0.562059 0.382202 0.559036 0.157486
H7    H     H_    0.562058 0.617800 0.059042 0.157488
H8    H     H_    0.437942 0.382200 0.940958 0.157488
H9    H     H_    0.963666 0.700120 0.458077 0.127842
H10   H     H_    0.036333 0.299880 0.541923 0.127842
H11   H     H_    0.036334 0.700119 0.041919 0.127843
H12   H     H_    0.963666 0.299880 0.958081 0.127843
H13   H     H_    0.463666 0.200120 0.458077 0.127842
H14   H     H_    0.536333 0.799880 0.541923 0.127842
H15   H     H_    0.536334 0.200120 0.041919 0.127843
H16   H     H_    0.463666 0.799880 0.958081 0.127843
H17   H     H_    0.257371 0.460416 0.003804 0.135559
H18   H     H_    0.742629 0.539584 0.996196 0.135559
H19   H     H_    0.742638 0.460419 0.496205 0.135559
H20   H     H_    0.257362 0.539581 0.503795 0.135558
H21   H     H_    0.757371 0.960416 0.003804 0.135559
H22   H     H_    0.242629 0.039584 0.996196 0.135559
H23   H     H_    0.242638 0.960419 0.496205 0.135559
H24   H     H_    0.757362 0.039581 0.503795 0.135558

loop_
_geom_bond_atom_site_label_1
_geom_bond_atom_site_label_2
_ccdc_geom_bond_type
C47   H20   S    
O33   V7    S    
C18   H9    S    
C41   C54   S    
C22   C30   D    
O34   V8    S    
C17   H10   S    
C21   C29   D    
O35   V5    S    
C43   C56   S    
C19   H12   S    
C23   C31   D    
O37   V3    S    
C41   H22   S    
O38   V4    S    
C29   C30   S    
O11   C3    A    
C23   H16   S    
C15   C17   S    
O10   V2    S    
O2    C10   A    
C1    O31   A    
O3    V5    S    
O14   V6    S    
C48   C51   S    
O4    V6    S    
C21   H14   S    
C17   C25   D    
C24   H15   S    
O27   V3    S    
C25   C26   S    
C41   C46   D    
C38   C49   T    
C8    C34   S    
C2    O32   A    
C37   C50   T    
C3    O29   A    
C44   C55   S    
O8    V2    S    
C43   C48   D    
C42   H21   S    
C5    C35   S    
C7    O25   A    
C4    C38   S    
C13   C19   S    
C12   C22   S    
O6    C14   A    
C9    C23   S    
O15   C7    A    
C27   H4    S    
C11   C21   S    
O23   C15   A    
O24   C16   A    
O17   V1    S    
O11   V3    S    
O1    V7    S    
O2    V8    S    
C33   C54   T    
O20   V4    S    
O21   V5    S    
C43   H24   S    
O5    V3    S    
O6    V4    S    
C45   H18   S    
O24   V8    S    
C35   C56   T    
O17   C9    A    
C47   C52   S    
O4    C12   A    
C46   C49   S    
O28   V4    S    
O5    C13   A    
O20   C12   A    
C44   C47   D    
C2    C40   S    
O21   C13   A    
C6    C36   S    
C27   C28   S    
O8    C16   A    
C42   C53   S    
C14   C20   S    
O23   V7    S    
C4    O30   A    
O3    C11   A    
O12   C4    A    
C10   C24   S    
O13   C5    A    
O18   V2    S    
C31   H8    S    
O1    C9    A    
C28   H3    S    
O22   V6    S    
C19   C27   D    
C44   H23   S    
C6    O28   A    
O18   C10   A    
C42   C45   D    
C39   C52   T    
O9    C1    A    
O25   V1    S    
C7    C33   S    
C48   H19   S    
C1    C39   S    
O22   C14   A    
C3    C37   S    
O29   V5    S    
C5    O27   A    
C20   C28   D    
O31   V7    S    
O16   V8    S    
O32   V8    S    
O14   C6    A    
O39   V1    S    
C24   C32   D    
O36   V6    S    
C26   H1    S    
C25   H2    S    
O10   C2    A    
C32   H7    S    
C34   C53   T    
O40   V2    S    
C30   H5    S    
O9    V1    S    
C29   H6    S    
C8    O26   A    
C40   C51   T    
C20   H11   S    
C31   C32   S    
O12   V4    S    
C46   H17   S    
O19   C11   A    
O13   V5    S    
O16   C8    A    
O26   V2    S    
C36   C55   T    
O15   V7    S    
O19   V3    S    
C22   H13   S    
C16   C18   S    
C45   C50   S    
O7    V1    S    
O7    C15   A    
O30   V6    S    
C18   C26   D    
