data_mof_unit_pretest_1499.cif
_audit_creation_date              2012-10-26T19:27:16-0400
_audit_creation_method            fapswitch 2.2
_symmetry_space_group_name_H-M    P1
_symmetry_Int_Tables_number       1
_space_group_crystal_system       triclinic
_cell_length_a                    13.743087
_cell_length_b                    14.98548
_cell_length_c                    17.1721
_cell_angle_alpha                 90.544996
_cell_angle_beta                  86.483825
_cell_angle_gamma                 88.729325
_cell_volume                      3528.80334088

loop_
_atom_site_label
_atom_site_type_symbol
_atom_type_description
_atom_site_fract_x
_atom_site_fract_y
_atom_site_fract_z
_atom_type_partial_charge
C1    C     C_R   0.499003 0.671031 0.502469 0.599159
C2    C     C_R   0.514489 0.909531 0.570661 0.010582
C3    C     C_R   0.510411 0.046519 0.493953 0.013910
C4    C     C_R   0.509039 0.952726 0.497858 0.012731
C5    C     C_R   0.523813 0.096450 0.562105 0.013502
C6    C     C_R   0.501919 0.902407 0.428888 0.004791
C7    C     C_R   0.499321 0.037505 0.353482 -0.085261
C8    C     C_R   0.534995 0.960927 0.636437 -0.073718
C9    C     C_R   0.500335 0.944901 0.357014 -0.137759
C10   C     C_R   0.539144 0.053347 0.632212 -0.115550
C11   C     C_R   0.200743 0.578100 0.489977 0.420896
C12   C     C_R   0.501115 0.329124 0.494332 0.598438
C13   C     C_R   0.800591 0.421421 0.492898 0.412849
C14   C     C_R   0.207824 0.423625 0.519726 0.025174
C15   C     C_R   0.789311 0.577715 0.516745 0.016504
C16   C     C_R   0.488030 0.494856 0.649707 0.585598
C17   C     C_R   0.512274 0.500509 0.349658 0.595539
C18   C     C_R   0.104437 0.420702 0.523072 -0.046780
C19   C     C_R   0.892155 0.580966 0.519695 -0.047607
C20   C     C_R   0.050157 0.500937 0.519165 -0.082771
C21   C     C_R   0.946831 0.500618 0.519139 -0.083254
C22   C     C_R   0.099381 0.581660 0.514805 -0.040992
C23   C     C_R   0.523316 0.188813 0.559156 -0.136714
C24   C     C_R   0.898006 0.419748 0.517940 -0.037704
C25   C     C_R   0.054139 0.340453 0.535605 0.263276
C26   C     C_R   0.940662 0.662142 0.528453 0.269972
C27   C     C_R   0.950616 0.340543 0.537107 0.297507
C28   C     C_R   0.043759 0.662243 0.530511 0.289383
C29   C     C_R   0.484565 0.476865 0.732814 -0.002892
C30   C     C_R   0.517485 0.501208 0.264359 -0.017297
C31   C     C_R   0.410019 0.512727 0.783376 -0.109937
C32   C     C_R   0.433158 0.485719 0.224804 -0.110880
C33   C     C_R   0.411123 0.496588 0.862885 -0.170796
C34   C     C_R   0.499459 0.810085 0.432354 -0.146034
C35   C     C_R   0.436099 0.488693 0.144205 -0.163954
C36   C     C_R   0.485955 0.443764 0.891968 0.074308
C37   C     C_R   0.523778 0.504938 0.101495 0.051749
C38   C     C_R   0.559635 0.405453 0.841395 0.272271
C39   C     C_R   0.609564 0.518880 0.140378 0.259593
C40   C     C_R   0.557068 0.420987 0.761395 -0.126521
C41   C     C_R   0.605335 0.518806 0.221907 -0.120521
C42   C     C_2   0.491763 0.436465 0.977008 0.286428
C43   C     C_2   0.523232 0.508154 0.015621 0.282397
C44   C     C_3   0.131785 0.213558 0.487770 0.020826
C45   C     C_R   0.502835 0.232511 0.490596 0.017144
C46   C     C_3   0.198810 0.136135 0.509757 -0.249997
C47   C     C_3   0.223980 0.073339 0.440679 -0.436244
C48   C     C_3   0.868622 0.781662 0.472070 0.018652
C49   C     C_3   0.796018 0.859396 0.488484 -0.242624
C50   C     C_3   0.770820 0.906230 0.413583 -0.457620
C51   C     C_3   0.529886 0.663666 0.006856 0.030804
C52   C     C_3   0.423050 0.685641 0.992117 -0.292394
C53   C     C_3   0.391852 0.777416 0.025189 -0.466264
C54   C     C_3   0.406140 0.302182 0.983909 0.024057
C55   C     C_3   0.301943 0.336248 0.006213 -0.287610
C56   C     C_R   0.497730 0.767534 0.504136 0.021123
C57   C     C_3   0.226610 0.277889 0.970203 -0.465573
C58   C     C_3   0.722625 0.384336 0.857949 0.016249
C59   C     C_3   0.797821 0.319694 0.889499 -0.256746
C60   C     C_3   0.901052 0.354556 0.876846 -0.473610
C61   C     C_3   0.746428 0.459592 0.075005 0.018253
C62   C     C_3   0.816935 0.429754 0.135975 -0.269754
C63   C     C_3   0.880431 0.350049 0.106838 -0.471079
C64   C     C_R   0.486085 0.184188 0.421306 0.244726
C65   C     C_R   0.500821 0.816419 0.574740 0.243012
C66   C     C_R   0.498123 0.090018 0.422069 0.009588
Cu1   Cu    Cu3+1 0.402580 0.500010 0.500000 1.118375
Cu2   Cu    Cu3+1 0.597420 0.499990 0.500000 1.075641
H1    H     H_    0.352625 0.554607 0.761728 0.178313
H2    H     H_    0.497314 0.770771 0.379063 0.109258
H3    H     H_    0.502254 0.066535 0.296209 0.201074
H4    H     H_    0.550787 0.930683 0.691139 0.197806
H5    H     H_    0.499394 0.906424 0.303298 0.117916
H6    H     H_    0.553483 0.091268 0.684186 0.129608
H7    H     H_    0.331854 0.668060 0.314258 0.343189
H8    H     H_    0.719387 0.329556 0.308843 0.373779
H9    H     H_    0.171685 0.254374 0.442755 0.142377
H10   H     H_    0.065705 0.186305 0.462695 0.199960
H11   H     H_    0.267319 0.163184 0.530798 0.167025
H12   H     H_    0.364444 0.471744 0.256030 0.209234
H13   H     H_    0.162312 0.097615 0.557784 0.217111
H14   H     H_    0.156955 0.042265 0.420997 0.183600
H15   H     H_    0.274892 0.019661 0.458314 0.187335
H16   H     H_    0.259668 0.110366 0.391608 0.203124
H17   H     H_    0.836771 0.734383 0.430557 0.107248
H18   H     H_    0.937553 0.807773 0.444547 0.195738
H19   H     H_    0.727959 0.834001 0.517930 0.175195
H20   H     H_    0.827778 0.908436 0.528164 0.215888
H21   H     H_    0.837777 0.931773 0.382721 0.176267
H22   H     H_    0.720049 0.963504 0.428026 0.184495
H23   H     H_    0.249014 0.363481 0.530459 0.173835
H24   H     H_    0.734803 0.859370 0.374557 0.145724
H25   H     H_    0.913288 0.161117 0.677339 0.360282
H26   H     H_    0.054309 0.856356 0.659311 0.365872
H27   H     H_    0.575819 0.715392 0.978097 0.177581
H28   H     H_    0.542726 0.668740 0.069980 0.144801
H29   H     H_    0.413711 0.684701 0.928281 0.185162
H30   H     H_    0.375035 0.634820 0.019961 0.145085
H31   H     H_    0.399129 0.779490 0.089256 0.154105
H32   H     H_    0.314425 0.791400 0.013576 0.166576
H33   H     H_    0.437367 0.829934 0.997183 0.158291
H34   H     H_    0.746717 0.638546 0.525380 0.183511
H35   H     H_    0.414660 0.234380 0.008539 0.173809
H36   H     H_    0.418996 0.293163 0.919748 0.144533
H37   H     H_    0.289301 0.336046 0.070765 0.185163
H38   H     H_    0.291882 0.405757 0.985978 0.144444
H39   H     H_    0.236593 0.278743 0.905524 0.159366
H40   H     H_    0.152111 0.303888 0.987807 0.151452
H41   H     H_    0.233707 0.208091 0.990686 0.161355
H42   H     H_    0.725716 0.449703 0.889076 0.158000
H43   H     H_    0.742314 0.393750 0.794784 0.154463
H44   H     H_    0.780847 0.309652 0.952809 0.163661
H45   H     H_    0.670548 0.532863 0.251761 0.158668
H46   H     H_    0.794028 0.254039 0.859274 0.197209
H47   H     H_    0.920626 0.361740 0.813510 0.192605
H48   H     H_    0.953572 0.306741 0.901447 0.152819
H49   H     H_    0.906881 0.420257 0.906459 0.141674
H50   H     H_    0.789654 0.474429 0.020124 0.159242
H51   H     H_    0.697097 0.404182 0.061018 0.150713
H52   H     H_    0.864618 0.485949 0.149881 0.189247
H53   H     H_    0.775022 0.410521 0.190231 0.181019
H54   H     H_    0.834220 0.292682 0.093430 0.158691
H55   H     H_    0.929746 0.329750 0.152700 0.180044
H56   H     H_    0.611008 0.388742 0.721222 0.140244
H57   H     H_    0.925603 0.367959 0.053688 0.142870
H58   H     H_    0.522125 0.294245 0.232968 0.371271
H59   H     H_    0.424023 0.797008 0.783227 0.362872
H60   H     H_    0.369532 0.478986 0.114885 0.120846
H61   H     H_    0.354633 0.526519 0.902090 0.097843
H62   H     H_    0.535838 0.227470 0.611282 0.121853
N1    N     N_R   0.256180 0.500070 0.500030 -0.256317
N2    N     N_R   0.743820 0.499930 0.499970 -0.266336
O1    O     O_R   0.417720 0.629750 0.499980 -0.411055
O2    O     O_2   0.284642 0.736822 0.453641 -0.222425
O3    O     O_3   0.308932 0.616090 0.344929 -0.535097
O4    O     O_2   0.873513 0.301322 0.386385 -0.319934
O5    O     O_2   0.724090 0.260202 0.459116 -0.201756
O6    O     O_3   0.714339 0.376954 0.349539 -0.509066
O7    O     O_3   0.105355 0.264403 0.555740 -0.534011
O8    O     O_3   0.886718 0.740192 0.543434 -0.518687
O9    O     O_2   0.787679 0.275816 0.610234 -0.300238
O10   O     O_2   0.885275 0.173726 0.522082 -0.235239
O11   O     O_3   0.950803 0.212174 0.656340 -0.496462
O12   O     O_R   0.582280 0.370250 0.500020 -0.437196
O13   O     O_2   0.194146 0.734051 0.601750 -0.224893
O14   O     O_2   0.110992 0.827874 0.508308 -0.245178
O15   O     O_3   0.023294 0.800531 0.643467 -0.474923
O16   O     O_3   0.560264 0.580241 0.973057 -0.567298
O17   O     O_3   0.475652 0.356862 0.017317 -0.582073
O18   O     O_3   0.628933 0.348080 0.870230 -0.562157
O19   O     O_3   0.695921 0.539270 0.099524 -0.556801
O20   O     O_2   0.383976 0.181605 0.290121 -0.332165
O21   O     O_2   0.390601 0.323969 0.356516 -0.286643
O22   O     O_3   0.547454 0.265077 0.279378 -0.530709
O23   O     O_R   0.582260 0.629730 0.499990 -0.550574
O24   O     O_2   0.414139 0.684692 0.657795 -0.259049
O25   O     O_2   0.576371 0.728789 0.693226 -0.297222
O26   O     O_3   0.426276 0.831500 0.734238 -0.532694
O27   O     O_R   0.417740 0.370270 0.500010 -0.524022
O28   O     O_R   0.408190 0.500030 0.613590 -0.497101
O29   O     O_R   0.591810 0.499970 0.386410 -0.467366
O30   O     O_R   0.572730 0.500000 0.613600 -0.496552
O31   O     O_R   0.427270 0.500000 0.386400 -0.430696
O32   O     O_2   0.145850 0.694334 0.381516 -0.300549
S1    S     S_3+6 0.235724 0.659252 0.417809 0.072148
S2    S     S_3+6 0.777581 0.336820 0.422272 0.082269
S3    S     S_3+6 0.889336 0.248541 0.580607 0.056557
S4    S     S_3+6 0.097504 0.758115 0.570107 0.085008
S5    S     S_3+6 0.447899 0.239926 0.335901 -0.024450
S6    S     S_3+6 0.480235 0.762050 0.666265 0.010067

loop_
_geom_bond_atom_site_label_1
_geom_bond_atom_site_label_2
_ccdc_geom_bond_type
C38   C40   A    
C34   C56   A    
C23   C45   A    
C61   H51   S    
C14   C18   A    
C36   C42   S    
C24   C27   A    
Cu2   O23   S    
C6    C34   A    
Cu1   O1    S    
C6    C9    A    
C39   C41   A    
Cu2   O29   S    
C53   H31   S    
C15   C19   A    
C55   H37   S    
O22   S5    S    
C54   H36   S    
O32   S1    D    
C25   O7    S    
C1    C56   S    
C26   O8    S    
C7    H3    S    
C46   H11   S    
H7    O3    S    
C16   O28   A    
C56   C65   A    
C39   O19   S    
C52   H29   S    
C33   C36   A    
C1    O23   A    
C47   H14   S    
C52   H30   S    
C64   S5    S    
Cu2   N2    S    
C19   C26   A    
C49   H19   S    
C43   O16   S    
C17   O31   A    
O10   S3    D    
C46   C47   S    
C50   H22   S    
C57   H41   S    
C15   N2    A    
C53   H33   S    
C31   C33   A    
C30   C41   A    
Cu1   O28   S    
C47   H15   S    
C34   H2    S    
C62   H52   S    
H25   O11   S    
C51   H28   S    
C2    C65   A    
C59   C60   S    
C12   O27   A    
C22   C28   A    
C17   C30   S    
C49   H20   S    
C61   C62   S    
C18   C25   A    
C9    H5    S    
C1    O1    A    
O5    S2    D    
C44   C46   S    
C54   O17   S    
C14   N1    A    
C53   H32   S    
C40   H56   S    
Cu1   N1    S    
O9    S3    D    
C8    H4    S    
C48   O8    S    
C55   H38   S    
Cu1   Cu2   S    
C32   C35   A    
C54   H35   S    
C4    C6    A    
O26   S6    S    
C16   O30   A    
C58   C59   S    
C51   C52   S    
C13   C24   A    
C27   S3    S    
C64   C66   A    
C37   C43   S    
C2    C4    A    
C44   H10   S    
C62   C63   S    
Cu1   O31   S    
O25   S6    D    
C32   H12   S    
C46   H13   S    
C50   H21   S    
C5    C23   A    
C59   H44   S    
O3    S1    S    
O2    S1    D    
C60   H49   S    
C47   H16   S    
C61   O19   S    
H59   O26   S    
O11   S3    S    
C63   H57   S    
C17   O29   A    
H58   O22   S    
C50   H24   S    
C48   C49   S    
C57   H39   S    
C20   C22   A    
C44   O7    S    
H8    O6    S    
C55   C57   S    
C48   H18   S    
C60   H48   S    
C3    C66   A    
C42   C43   D    
C3    C4    A    
C63   H54   S    
C52   C53   S    
C33   H61   S    
H26   O15   S    
C7    C9    A    
O14   S4    D    
C54   C55   S    
C44   H9    S    
C45   C64   A    
C35   C37   A    
C61   H50   S    
C58   H42   S    
C8    C10   A    
C2    C8    A    
C41   H45   S    
C12   C45   S    
C3    C5    A    
C11   N1    A    
C63   H55   S    
C58   H43   S    
Cu2   O30   S    
C25   C27   A    
C11   C22   A    
C26   C28   A    
C65   S6    S    
O6    S2    S    
C42   O17   S    
C36   C38   A    
C16   C29   S    
C5    C10   A    
C29   C31   A    
C7    C66   A    
C30   C32   A    
O20   S5    D    
C10   H6    S    
C13   S2    S    
O4    S2    D    
C51   O16   S    
C59   H46   S    
C29   C40   A    
O24   S6    D    
C13   N2    A    
Cu2   O12   S    
C18   C20   A    
C15   H34   S    
C35   H60   S    
C14   H23   S    
O15   S4    S    
C28   S4    S    
C12   O12   A    
C31   H1    S    
C57   H40   S    
C20   C21   A    
C23   H62   S    
C37   C39   A    
C49   C50   S    
C21   C24   A    
O21   S5    D    
C11   S1    S    
C48   H17   S    
C60   H47   S    
Cu1   O27   S    
C38   O18   S    
C62   H53   S    
C58   O18   S    
C51   H27   S    
C19   C21   A    
O13   S4    D    
