data_mof_unit_pretest_1228.cif
_audit_creation_date              2012-12-10T19:03:38-0500
_audit_creation_method            fapswitch 2.2
_symmetry_space_group_name_H-M    P1
_symmetry_Int_Tables_number       1
_space_group_crystal_system       triclinic
_cell_length_a                    15.880686
_cell_length_b                    10.889495
_cell_length_c                    9.557424
_cell_angle_alpha                 90.156773
_cell_angle_beta                  90.511156
_cell_angle_gamma                 90.335732
_cell_volume                      1652.69009485

loop_
_atom_site_label
_atom_site_type_symbol
_atom_type_description
_atom_site_fract_x
_atom_site_fract_y
_atom_site_fract_z
_atom_type_partial_charge
C1    C     C_R   0.498930 0.263023 0.499631 0.822013
C2    C     C_3   0.952096 0.414093 0.621831 0.356652
C3    C     C_3   0.917169 0.499241 0.503640 0.246172
C4    C     C_3   0.952291 0.631428 0.521467 -0.391699
C5    C     C_3   0.049921 0.630228 0.523321 -0.393453
C6    C     C_1   0.824946 0.500043 0.502788 -0.044046
C7    C     C_1   0.175109 0.498444 0.498778 -0.087613
C8    C     C_1   0.250634 0.499034 0.498400 -0.168619
C9    C     C_R   0.491918 0.063070 0.618769 0.137601
C10   C     C_R   0.496827 0.130987 0.497157 -0.161280
C11   C     C_R   0.499080 0.066234 0.369597 -0.346699
C12   C     C_R   0.340258 0.499720 0.499490 0.817998
C13   C     C_R   0.496071 0.936847 0.367494 0.444883
C14   C     C_R   0.496311 0.870792 0.496083 -0.201320
C15   C     C_R   0.492663 0.939413 0.618637 0.059514
C16   C     C_3   0.484675 0.932552 0.773761 -0.452952
C17   C     C_3   0.483840 0.073706 0.773140 -0.462008
C18   C     C_R   0.572122 0.524344 0.074496 0.175431
C19   C     C_R   0.433161 0.453953 0.072534 0.509844
C20   C     C_R   0.432536 0.458028 0.923618 -0.172719
C21   C     C_R   0.572332 0.523068 0.927674 0.249939
C22   C     C_3   0.627095 0.634189 0.921814 -0.491459
C23   C     C_R   0.498569 0.737540 0.499541 0.820185
C24   C     C_3   0.626411 0.636257 0.081041 -0.471859
C25   C     C_R   0.659756 0.500266 0.500513 0.820618
C26   C     C_3   0.050994 0.415339 0.621757 -0.477393
C27   C     C_3   0.047024 0.448070 0.360422 -0.380645
C28   C     C_3   0.949407 0.449640 0.361397 -0.483454
C29   C     C_1   0.749406 0.500305 0.501843 -0.172182
C30   C     C_3   0.082994 0.497922 0.501031 0.287674
Cu1   Cu    Cu3+1 0.500000 0.499980 0.640670 0.937741
Cu2   Cu    Cu3+1 0.500000 0.500020 0.359330 0.977330
H1    H     H_    0.934034 0.318964 0.590049 0.096821
H2    H     H_    0.080427 0.445727 0.721551 0.150089
H3    H     H_    0.502724 0.114888 0.271142 0.165470
H4    H     H_    0.423786 0.890872 0.805344 0.200589
H5    H     H_    0.541708 0.895483 0.825457 0.199900
H6    H     H_    0.422455 0.113421 0.804432 0.189810
H7    H     H_    0.540428 0.116211 0.823058 0.202787
H8    H     H_    0.073845 0.319910 0.605424 0.141731
H9    H     H_    0.377422 0.426519 0.866763 0.168265
H10   H     H_    0.689888 0.613256 0.877807 0.205110
H11   H     H_    0.594739 0.713031 0.873116 0.204650
H12   H     H_    0.593558 0.716950 0.125139 0.259765
H13   H     H_    0.070195 0.505130 0.272124 0.176268
H14   H     H_    0.069213 0.352595 0.342445 0.164707
H15   H     H_    0.924726 0.355174 0.342025 0.165546
H16   H     H_    0.925956 0.508166 0.274231 0.188317
H17   H     H_    0.073914 0.667899 0.624450 0.154206
H18   H     H_    0.073807 0.691424 0.439227 0.168609
H19   H     H_    0.927805 0.675024 0.617911 0.170782
N1    N     N_R   0.500530 0.500930 0.147930 -0.228642
N2    N     N_R   0.500530 0.500890 0.852020 -0.212329
O1    O     O_R   0.500000 0.319640 0.618810 -0.578302
O2    O     O_R   0.500010 0.319680 0.381230 -0.592796
O3    O     O_R   0.379430 0.499990 0.618840 -0.594951
O4    O     O_R   0.379440 0.500030 0.381260 -0.525554
O5    O     O_R   0.499990 0.680320 0.618770 -0.585183
O6    O     O_R   0.500000 0.680360 0.381190 -0.531960
O7    O     O_R   0.620560 0.499970 0.618740 -0.568061
O8    O     O_R   0.620570 0.500010 0.381160 -0.581219
O9    O     O_3   0.910017 0.431624 0.752012 -0.576376
C31   C     C_3   0.951677 0.508218 0.850528 0.095269
H20   H     H_    0.987101 0.584737 0.802250 0.134468
H21   H     H_    0.995435 0.452006 0.914912 0.146895
C32   C     C_3   0.886820 0.564208 0.947469 -0.824023
H22   H     H_    0.849620 0.490702 0.999003 0.254043
H23   H     H_    0.919027 0.620440 0.029199 0.192126
H24   H     H_    0.843741 0.624118 0.886611 0.242430
H25   H     H_    0.930125 0.689455 0.432909 0.165642
O10   O     O_3   0.496036 0.875358 0.240506 -0.574850
C33   C     C_3   0.421620 0.901591 0.163871 0.043874
H26   H     H_    0.434521 0.977108 0.088894 0.152505
H27   H     H_    0.367545 0.928717 0.231105 0.124779
C34   C     C_3   0.394684 0.787559 0.082323 -0.763922
H28   H     H_    0.378152 0.712701 0.155983 0.266261
H29   H     H_    0.338695 0.808404 0.016359 0.185030
H30   H     H_    0.446543 0.756197 0.014080 0.243323
O11   O     O_3   0.363809 0.407136 0.140513 -0.556681
C35   C     C_3   0.360645 0.277552 0.126515 0.083832
H31   H     H_    0.363029 0.236907 0.232874 0.170372
H32   H     H_    0.413572 0.236419 0.066256 0.094672
C36   C     C_3   0.277638 0.239231 0.058116 -0.874641
H33   H     H_    0.273417 0.276382 0.950283 0.238833
H34   H     H_    0.273531 0.137459 0.052975 0.202091
H35   H     H_    0.224044 0.274309 0.120199 0.257692
H36   H     H_    0.689144 0.617153 0.128429 0.197739

loop_
_geom_bond_atom_site_label_1
_geom_bond_atom_site_label_2
_ccdc_geom_bond_type
Cu1   O7    S    
C23   O5    A    
C32   H23   S    
C31   H21   S    
C28   H15   S    
C18   C21   A    
C19   C20   A    
C1    O1    A    
C3    C6    S    
C4    H25   S    
C20   H9    S    
C18   N1    A    
C7    C8    T    
C23   O6    A    
C36   H33   S    
C18   C24   S    
Cu1   O5    S    
C3    C28   S    
Cu2   O8    S    
C35   C36   S    
C32   H24   S    
C15   C16   S    
C17   H7    S    
Cu2   N1    S    
C19   N1    A    
C26   H2    S    
C22   H11   S    
C16   C17   S    
C25   O7    A    
Cu1   O3    S    
C9    C10   A    
Cu2   O2    S    
C16   H5    S    
C27   H13   S    
C32   H22   S    
C31   C32   S    
C7    C30   S    
C21   C22   S    
C27   C30   S    
C5    H17   S    
Cu2   O4    S    
C33   C34   S    
C34   H30   S    
C25   C29   S    
C4    H19   S    
C35   H32   S    
C33   H26   S    
C13   O10   S    
C31   H20   S    
C14   C23   S    
C34   H28   S    
O9    C31   S    
Cu1   Cu2   S    
C8    C12   S    
C36   H35   S    
C2    C26   S    
C25   O8    A    
Cu1   N2    S    
C19   O11   S    
C34   H29   S    
C12   O3    A    
C12   O4    A    
C20   N2    A    
C27   H14   S    
C33   H27   S    
C36   H34   S    
C26   C30   S    
C24   H12   S    
C22   C24   S    
C5    H18   S    
C3    C4    S    
C2    H1    S    
C5    C30   S    
C9    C17   S    
C28   H16   S    
C1    C10   S    
C35   H31   S    
C11   H3    S    
C2    C3    S    
C1    O2    A    
O10   C33   S    
C16   H4    S    
C21   N2    A    
C11   C13   A    
C26   H8    S    
C22   H10   S    
C17   H6    S    
Cu1   O1    S    
C9    C15   A    
C24   H36   S    
C10   C11   A    
O11   C35   S    
C4    C5    S    
C6    C29   T    
C27   C28   S    
C14   C15   A    
Cu2   O6    S    
C13   C14   A    
C2    O9    S    
