data_mof_unit_pretest_112.cif
_audit_creation_date              2012-12-10T16:56:31-0500
_audit_creation_method            fapswitch 2.2
_symmetry_space_group_name_H-M    P1
_symmetry_Int_Tables_number       1
_space_group_crystal_system       triclinic
_cell_length_a                    7.882922
_cell_length_b                    8.72349
_cell_length_c                    15.483134
_cell_angle_alpha                 95.357074
_cell_angle_beta                  85.20488
_cell_angle_gamma                 92.858052
_cell_volume                      1055.41204484

loop_
_atom_site_label
_atom_site_type_symbol
_atom_type_description
_atom_site_fract_x
_atom_site_fract_y
_atom_site_fract_z
_atom_type_partial_charge
C1    C     C_R   0.544569 0.794180 0.498134 0.954842
C2    C     C_R   0.455431 0.205820 0.501866 0.954842
C3    C     C_R   0.503181 0.517175 0.662087 0.900936
C4    C     C_R   0.496818 0.482825 0.337913 0.900936
C5    C     C_2   0.568118 0.956824 0.497106 -0.379423
C6    C     C_2   0.431882 0.043176 0.502894 -0.379423
C7    C     C_3   0.431124 0.615753 0.052512 0.017772
C8    C     C_3   0.568876 0.384247 0.947488 0.017772
C9    C     C_3   0.603161 0.628956 0.996151 -0.289047
C10   C     C_3   0.396839 0.371043 0.003849 -0.289047
C11   C     C_1   0.510341 0.550032 0.752263 -0.207264
C12   C     C_1   0.489659 0.449968 0.247737 -0.207265
C13   C     C_3   0.346025 0.526795 0.975549 0.032726
C14   C     C_3   0.653975 0.473205 0.024451 0.032725
C15   C     C_3   0.516687 0.538978 0.919853 0.101649
C16   C     C_3   0.483312 0.461022 0.080147 0.101649
C17   C     C_1   0.518191 0.561783 0.828920 -0.079074
C18   C     C_1   0.481809 0.438217 0.171080 -0.079074
H1    H     H_    0.688184 0.733710 0.995173 0.144461
H2    H     H_    0.311816 0.266289 0.004827 0.144461
H3    H     H_    0.697902 0.005395 0.491601 0.177536
H4    H     H_    0.302098 0.994605 0.508399 0.177537
H5    H     H_    0.011191 0.378493 0.433599 0.182843
H6    H     H_    0.988808 0.621507 0.566401 0.182843
N1    N     N_2   0.950320 0.457950 0.477300 -0.183176
N2    N     N_2   0.049680 0.542050 0.522700 -0.183176
O1    O     O_R   0.389250 0.738570 0.505570 -0.612150
O2    O     O_R   0.610750 0.261430 0.494430 -0.612150
O3    O     O_R   0.678390 0.711630 0.491020 -0.632197
O4    O     O_R   0.321610 0.288370 0.508980 -0.632197
O5    O     O_R   0.355460 0.513480 0.630490 -0.603174
O6    O     O_R   0.644540 0.486520 0.369510 -0.603174
O7    O     O_R   0.644600 0.486540 0.615950 -0.633900
O8    O     O_R   0.355400 0.513460 0.384050 -0.633900
Zn1   Zn    Zn3+2 0.306940 0.517990 0.509710 0.926403
Zn2   Zn    Zn3+2 0.693060 0.482010 0.490290 0.926403
C19   C     C_R   0.365453 0.751395 0.112904 0.113606
C20   C     C_R   0.386433 0.897877 0.083949 -0.204910
C21   C     C_R   0.358174 0.029346 0.141182 -0.153801
C22   C     C_R   0.297512 0.015174 0.227391 -0.101725
C23   C     C_R   0.260996 0.869219 0.255413 -0.138788
C24   C     C_R   0.293617 0.738394 0.198361 -0.141882
H7    H     H_    0.422377 0.906397 0.016209 0.130258
H8    H     H_    0.382583 0.141888 0.118872 0.140974
H9    H     H_    0.276199 0.116707 0.271960 0.115843
H10   H     H_    0.209017 0.857146 0.321520 0.141631
H11   H     H_    0.260987 0.628881 0.222064 0.144797
C25   C     C_R   0.634547 0.248605 0.887096 0.113606
C26   C     C_R   0.613567 0.102122 0.916051 -0.204910
C27   C     C_R   0.641826 0.970654 0.858818 -0.153801
C28   C     C_R   0.702488 0.984826 0.772608 -0.101724
C29   C     C_R   0.739004 0.130780 0.744587 -0.138788
C30   C     C_R   0.706382 0.261606 0.801639 -0.141882
H12   H     H_    0.577623 0.093603 0.983791 0.130258
H13   H     H_    0.617417 0.858112 0.881128 0.140974
H14   H     H_    0.723801 0.883293 0.728040 0.115843
H15   H     H_    0.790983 0.142854 0.678480 0.141631
H16   H     H_    0.739013 0.371118 0.777936 0.144797
C31   C     C_R   0.813752 0.447049 0.067229 0.138353
C32   C     C_R   0.899380 0.309126 0.049061 -0.162298
C33   C     C_R   0.010350 0.265269 0.107081 -0.154007
C34   C     C_R   0.038969 0.359627 0.182795 -0.105854
C35   C     C_R   0.959517 0.499846 0.199470 -0.120639
C36   C     C_R   0.852545 0.546185 0.140442 -0.136974
H17   H     H_    0.876169 0.231493 0.992773 0.139546
H18   H     H_    0.069766 0.155648 0.094316 0.137137
H19   H     H_    0.121320 0.323953 0.228912 0.122079
H20   H     H_    0.977107 0.571171 0.259349 0.140865
H21   H     H_    0.786817 0.652549 0.156309 0.136027
C37   C     C_R   0.186248 0.552951 0.932771 0.138353
C38   C     C_R   0.147455 0.453814 0.859558 -0.136974
C39   C     C_R   0.040483 0.500153 0.800530 -0.120639
C40   C     C_R   0.961031 0.640372 0.817205 -0.105854
C41   C     C_R   0.989650 0.734731 0.892919 -0.154007
C42   C     C_R   0.100620 0.690874 0.950939 -0.162298
H22   H     H_    0.213183 0.347450 0.843691 0.136027
H23   H     H_    0.022893 0.428828 0.740651 0.140865
H24   H     H_    0.878680 0.676046 0.771088 0.122079
H25   H     H_    0.930234 0.844352 0.905683 0.137137
H26   H     H_    0.123832 0.768507 0.007227 0.139546

loop_
_geom_bond_atom_site_label_1
_geom_bond_atom_site_label_2
_ccdc_geom_bond_type
C23   C24   A    
C14   C31   S    
O3    Zn2   S    
C31   C36   A    
C34   C35   A    
O4    Zn1   S    
C1    C5    S    
O6    Zn2   S    
C19   C20   A    
H6    N2    S    
C28   H14   S    
C5    C6    D    
C13   C37   S    
C3    O7    A    
C26   H12   S    
C6    H4    S    
O7    Zn2   S    
C7    C9    S    
O8    Zn1   S    
C40   C41   A    
C19   C24   A    
C33   H18   S    
C9    H1    S    
C11   C17   T    
C10   H2    S    
C23   H10   S    
C37   C38   A    
C4    C12   S    
C42   H26   S    
C31   C32   A    
C2    C6    S    
C25   C30   A    
C4    O8    A    
C41   C42   A    
C28   C29   A    
C20   C21   A    
C21   C22   A    
O1    Zn1   S    
N1    N2    D    
C20   H7    S    
C32   C33   A    
C9    C14   S    
C8    C25   S    
C39   H23   S    
C40   H24   S    
C1    O3    A    
C27   C28   A    
C7    C19   S    
C36   H21   S    
C3    O5    A    
C4    O6    A    
C34   H19   S    
C8    C10   S    
C25   C26   A    
C32   H17   S    
C8    C15   S    
C41   H25   S    
C13   C15   S    
O5    Zn1   S    
C29   C30   A    
C15   C17   S    
C35   H20   S    
C22   C23   A    
C8    C14   S    
C7    C16   S    
C39   C40   A    
C10   C13   S    
C30   H16   S    
C21   H8    S    
C27   H13   S    
C2    O4    A    
C9    C15   S    
C38   C39   A    
C10   C16   S    
C38   H22   S    
C14   C16   S    
C24   H11   S    
H5    N1    S    
C33   C34   A    
C3    C11   S    
C29   H15   S    
N1    Zn2   S    
C35   C36   A    
N2    Zn1   S    
C7    C13   S    
C5    H3    S    
C22   H9    S    
O2    Zn2   S    
C16   C18   S    
C26   C27   A    
C12   C18   T    
C37   C42   A    
C1    O1    A    
C2    O2    A    
