data_mof_unit_pretest_481.cif
_audit_creation_date              2012-12-10T18:59:17-0500
_audit_creation_method            fapswitch 2.2
_symmetry_space_group_name_H-M    P1
_symmetry_Int_Tables_number       1
_space_group_crystal_system       triclinic
_cell_length_a                    10.889322
_cell_length_b                    10.833767
_cell_length_c                    9.625053
_cell_angle_alpha                 90.421215
_cell_angle_beta                  90.777591
_cell_angle_gamma                 92.259331
_cell_volume                      1134.46785592

loop_
_atom_site_label
_atom_site_type_symbol
_atom_type_description
_atom_site_fract_x
_atom_site_fract_y
_atom_site_fract_z
_atom_type_partial_charge
C1    C     C_R   0.498390 0.262509 0.499527 0.834253
C2    C     C_R   0.065067 0.529383 0.625002 0.083541
C3    C     C_R   0.128442 0.525803 0.498078 -0.148707
C4    C     C_R   0.059323 0.515094 0.372925 0.014218
C5    C     C_R   0.932881 0.494536 0.377144 -0.275987
C6    C     C_R   0.871987 0.482875 0.503554 -0.121440
C7    C     C_R   0.483472 0.064162 0.623337 0.192206
C8    C     C_R   0.488086 0.128814 0.498511 -0.110188
C9    C     C_R   0.477975 0.062314 0.372674 -0.181323
C10   C     C_R   0.477261 0.933704 0.373161 -0.194051
C11   C     C_R   0.488031 0.870302 0.499485 -0.107464
C12   C     C_R   0.263109 0.511711 0.499200 0.845205
C13   C     C_R   0.483754 0.936922 0.623816 0.131216
C14   C     C_3   0.568287 0.935710 0.747110 -0.490671
C15   C     C_3   0.567316 0.075521 0.747243 -0.446259
C16   C     C_R   0.553086 0.596132 0.074793 0.217521
C17   C     C_R   0.427581 0.417233 0.072480 0.291287
C18   C     C_R   0.427476 0.417202 0.923888 0.282458
C19   C     C_R   0.551397 0.597350 0.928659 0.182584
C20   C     C_3   0.679684 0.649417 0.925326 -0.486762
C21   C     C_3   0.682316 0.645277 0.083167 -0.475986
C22   C     C_R   0.498616 0.737407 0.500194 0.792280
C23   C     C_R   0.737223 0.490706 0.501205 0.787230
C24   C     C_R   0.119735 0.577111 0.748638 -0.100515
C25   C     C_R   0.063914 0.555999 0.875230 -0.106545
C26   C     C_R   0.956072 0.483081 0.881218 -0.144959
C27   C     C_R   0.894330 0.448132 0.758168 -0.162021
C28   C     C_R   0.941791 0.485511 0.628733 0.101333
Cu1   Cu    Cu3+1 0.499990 0.499980 0.640670 0.978651
Cu2   Cu    Cu3+1 0.500010 0.500020 0.359330 1.012025
H1    H     H_    0.659570 0.899911 0.721251 0.197555
H2    H     H_    0.521273 0.113977 0.839388 0.235362
H3    H     H_    0.658040 0.120452 0.722979 0.189246
H4    H     H_    0.741897 0.585828 0.876035 0.224651
H5    H     H_    0.685702 0.744751 0.884899 0.197154
H6    H     H_    0.746238 0.576912 0.124449 0.200136
H7    H     H_    0.689991 0.738293 0.132745 0.202218
H8    H     H_    0.203920 0.633575 0.748281 0.150666
H9    H     H_    0.106472 0.595261 0.967444 0.173690
H10   H     H_    0.916369 0.459685 0.980541 0.121014
H11   H     H_    0.809571 0.393420 0.765976 0.153843
H12   H     H_    0.881579 0.491076 0.280030 0.145774
H13   H     H_    0.476804 0.108951 0.273738 0.203188
H14   H     H_    0.474432 0.884872 0.274484 0.179244
H15   H     H_    0.523111 0.893806 0.839320 0.210243
N1    N     N_R   0.500790 0.500930 0.147930 -0.224967
N2    N     N_R   0.500790 0.500890 0.852020 -0.236814
O1    O     O_R   0.500000 0.319640 0.618810 -0.551699
O2    O     O_R   0.500010 0.319680 0.381230 -0.557916
O3    O     O_R   0.319640 0.499980 0.618820 -0.561154
O4    O     O_R   0.319650 0.500020 0.381230 -0.509122
O5    O     O_R   0.499990 0.680320 0.618770 -0.584425
O6    O     O_R   0.500000 0.680360 0.381190 -0.573664
O7    O     O_R   0.680350 0.499980 0.618770 -0.598700
O8    O     O_R   0.680360 0.500020 0.381180 -0.585491
C29   C     C_2   0.112783 0.533168 0.234963 0.407068
H16   H     H_    0.087853 0.468117 0.152437 0.080159
O9    O     O_2   0.180856 0.622769 0.211781 -0.545799
Br1   Br    Br    0.317595 0.301456 0.163900 -0.481096
Br2   Br    Br    0.315387 0.302658 0.827760 -0.453494

loop_
_geom_bond_atom_site_label_1
_geom_bond_atom_site_label_2
_ccdc_geom_bond_type
C12   O3    A    
C5    H12   S    
C1    O1    A    
C23   O8    A    
C16   C21   S    
C6    C28   A    
C22   O6    A    
C1    C8    S    
C9    C10   A    
C27   H11   S    
C11   C22   S    
C24   H8    S    
C19   C20   S    
Cu2   N1    S    
C14   H1    S    
Cu2   O4    S    
C20   H4    S    
C18   N2    A    
C7    C15   S    
C17   C18   A    
C17   N1    A    
C15   H2    S    
C21   H6    S    
C13   C14   S    
C20   C21   S    
C11   C13   A    
C26   H10   S    
C26   C27   A    
Cu1   Cu2   S    
C25   H9    S    
C17   Br1   S    
C16   C19   A    
C6    C23   S    
C18   Br2   S    
Cu2   O2    S    
Cu1   N2    S    
C2    C3    A    
C14   H15   S    
Cu1   O3    S    
C2    C24   A    
C5    C6    A    
Cu2   O6    S    
C19   N2    A    
C9    H13   S    
C7    C8    A    
C10   C11   A    
Cu1   O1    S    
C10   H14   S    
C3    C4    A    
C7    C13   A    
C12   O4    A    
C21   H7    S    
C24   C25   A    
C23   O7    A    
C22   O5    A    
Cu1   O7    S    
C16   N1    A    
C27   C28   A    
C29   H16   S    
C14   C15   S    
C8    C9    A    
C2    C28   A    
C3    C12   S    
C25   C26   A    
C20   H5    S    
C1    O2    A    
Cu2   O8    S    
C15   H3    S    
C4    C29   S    
C29   O9    D    
C4    C5    A    
Cu1   O5    S    
