data_mof_unit_pretest_1826.cif
_audit_creation_date              2012-12-10T16:51:51-0500
_audit_creation_method            fapswitch 2.2
_symmetry_space_group_name_H-M    P1
_symmetry_Int_Tables_number       1
_space_group_crystal_system       triclinic
_cell_length_a                    30.120872
_cell_length_b                    30.451297
_cell_length_c                    21.735298
_cell_angle_alpha                 89.959526
_cell_angle_beta                  134.391934
_cell_angle_gamma                 90.059908
_cell_volume                      14245.7128843

loop_
_atom_site_label
_atom_site_type_symbol
_atom_type_description
_atom_site_fract_x
_atom_site_fract_y
_atom_site_fract_z
_atom_type_partial_charge
C1    C     C_R   0.689157 0.809928 0.881586 0.940261
C2    C     C_R   0.516864 0.666549 0.987367 0.064717
C3    C     C_R   0.663095 0.250089 0.999923 0.888820
C4    C     C_R   0.408324 0.788555 0.001011 -0.252687
C5    C     C_R   0.595622 0.788329 0.006969 -0.251072
C6    C     C_R   0.908282 0.288556 0.000924 -0.252674
C7    C     C_R   0.095580 0.288334 0.006883 -0.251079
C8    C     C_R   0.384740 0.749196 0.000306 -0.059494
C9    C     C_R   0.615168 0.749131 0.999780 -0.064143
C10   C     C_R   0.884742 0.249196 0.000308 -0.059539
C11   C     C_R   0.115170 0.249132 0.999782 -0.064095
C12   C     C_R   0.406862 0.708984 0.000576 -0.249893
C13   C     C_R   0.976103 0.166396 0.999549 0.058671
C14   C     C_R   0.589151 0.709125 0.992145 -0.255965
C15   C     C_R   0.906912 0.208985 0.000671 -0.249898
C16   C     C_R   0.089201 0.209121 0.992239 -0.255964
C17   C     C_R   0.453512 0.707104 0.000743 0.052874
C18   C     C_R   0.542896 0.707221 0.992776 0.056166
C19   C     C_R   0.953567 0.207105 0.000847 0.052865
C20   C     C_R   0.042951 0.207217 0.992881 0.056173
C21   C     C_R   0.477160 0.747326 0.000871 0.024283
C22   C     C_R   0.523202 0.747306 0.000235 0.023599
C23   C     C_R   0.977167 0.247328 0.000881 0.024291
C24   C     C_R   0.016971 0.166542 0.987574 0.064725
C25   C     C_R   0.023209 0.247307 0.000244 0.023589
C26   C     C_2   0.832522 0.758605 0.755023 0.901785
C27   C     C_2   0.166796 0.742155 0.244285 0.898610
C28   C     C_2   0.332522 0.258606 0.755023 0.901784
C29   C     C_2   0.666796 0.242153 0.244285 0.898612
C30   C     C_3   0.458658 0.623461 0.014589 -0.412070
C31   C     C_3   0.399370 0.603338 0.929704 -0.346290
C32   C     C_3   0.381209 0.561276 0.945761 -0.871221
C33   C     C_3   0.530789 0.624245 0.965264 -0.427210
C34   C     C_3   0.498586 0.624446 0.870872 -0.340224
C35   C     C_R   0.527654 0.827632 0.009210 -0.214128
C36   C     C_3   0.514073 0.583084 0.849392 -0.873179
C37   C     C_3   0.958822 0.123473 0.014909 -0.412079
C38   C     C_3   0.899563 0.103291 0.930076 -0.346312
C39   C     C_3   0.881459 0.061240 0.946246 -0.871205
C40   C     C_3   0.030954 0.124224 0.965584 -0.427207
C41   C     C_3   0.998749 0.124360 0.871192 -0.340232
C42   C     C_3   0.014296 0.082985 0.849825 -0.873190
C43   C     C_R   0.480411 0.827721 0.006690 -0.213611
C44   C     C_R   0.027566 0.327638 0.009032 -0.214120
C45   C     C_R   0.980324 0.327726 0.006512 -0.213616
C46   C     C_2   0.560239 0.873805 0.681614 -0.152149
C47   C     C_2   0.439707 0.873816 0.318492 -0.149815
C48   C     C_2   0.060239 0.373805 0.681614 -0.152150
C49   C     C_R   0.310841 0.809931 0.118416 0.933309
C50   C     C_2   0.939707 0.373816 0.318492 -0.149813
C51   C     C_2   0.590362 0.903467 0.676655 -0.326657
C52   C     C_2   0.409583 0.903443 0.323392 -0.331883
C53   C     C_2   0.090362 0.403467 0.676655 -0.326657
C54   C     C_2   0.909583 0.403443 0.323392 -0.331885
C55   C     C_2   0.594863 0.837670 0.743158 -0.148498
C56   C     C_2   0.405083 0.837687 0.256923 -0.148991
C57   C     C_2   0.094863 0.337670 0.743159 -0.148502
C58   C     C_2   0.905083 0.337687 0.256923 -0.148985
C59   C     C_2   0.653018 0.844399 0.818955 -0.327353
C60   C     C_R   0.189157 0.309928 0.881586 0.940253
C61   C     C_2   0.346974 0.844406 0.181063 -0.336846
C62   C     C_2   0.153019 0.344399 0.818955 -0.327355
C63   C     C_2   0.846974 0.344406 0.181063 -0.336844
C64   C     C_R   0.132183 0.748497 0.078174 -0.210284
C65   C     C_R   0.867460 0.750368 0.921225 -0.211408
C66   C     C_R   0.632183 0.248497 0.078174 -0.210285
C67   C     C_R   0.367460 0.250368 0.921225 -0.211408
C68   C     C_R   0.115334 0.750262 0.999967 -0.075676
C69   C     C_R   0.884394 0.751115 0.999538 -0.074437
C70   C     C_R   0.615334 0.250262 0.999967 -0.075676
C71   C     C_R   0.810841 0.309931 0.118416 0.933317
C72   C     C_R   0.384394 0.251115 0.999538 -0.074437
C73   C     C_R   0.053322 0.752035 0.922069 -0.231683
C74   C     C_R   0.946430 0.752819 0.077412 -0.231968
C75   C     C_R   0.553322 0.252036 0.922069 -0.231683
C76   C     C_R   0.446430 0.252819 0.077412 -0.231968
C77   C     C_R   0.663018 0.749834 0.999809 0.886756
C78   C     C_R   0.336928 0.749865 0.000178 0.885127
C79   C     C_R   0.163018 0.249834 0.999808 0.886742
C80   C     C_R   0.836928 0.249865 0.000178 0.885141
C81   C     C_R   0.006992 0.751902 0.921548 0.107145
C82   C     C_R   0.455157 0.788023 0.002695 0.145887
C83   C     C_R   0.992712 0.751985 0.077882 0.106820
C84   C     C_R   0.506992 0.251903 0.921548 0.107145
C85   C     C_R   0.492712 0.251985 0.077882 0.106819
C86   C     C_R   0.023333 0.750693 0.000275 0.054361
C87   C     C_R   0.976312 0.751839 0.999100 0.054515
C88   C     C_R   0.523333 0.250693 0.000275 0.054362
C89   C     C_R   0.476312 0.251839 0.999100 0.054515
C90   C     C_R   0.086659 0.748363 0.079946 0.032879
C91   C     C_R   0.912910 0.752639 0.919388 0.033193
C92   C     C_R   0.586659 0.248363 0.079946 0.032879
C93   C     C_R   0.549002 0.787893 0.005704 0.144767
C94   C     C_R   0.412910 0.252639 0.919388 0.033194
C95   C     C_R   0.944742 0.753482 0.843193 -0.261089
C96   C     C_R   0.054937 0.750318 0.156241 -0.260785
C97   C     C_R   0.444742 0.253483 0.843193 -0.261090
C98   C     C_R   0.554937 0.250317 0.156241 -0.260782
C99   C     C_R   0.897204 0.754376 0.840797 -0.031959
C100  C     C_R   0.102321 0.747297 0.158539 -0.031354
C101  C     C_R   0.397205 0.254377 0.840797 -0.031958
C102  C     C_R   0.602321 0.247295 0.158539 -0.031355
C103  C     C_2   0.939795 0.626114 0.318229 -0.149867
C104  C     C_R   0.955116 0.288025 0.002609 0.145875
C105  C     C_2   0.060304 0.626087 0.681711 -0.148201
C106  C     C_2   0.439795 0.126114 0.318229 -0.149865
C107  C     C_2   0.560304 0.126087 0.681711 -0.148202
C108  C     C_2   0.909698 0.596527 0.323366 -0.333183
C109  C     C_2   0.090391 0.596528 0.676623 -0.334510
C110  C     C_2   0.409698 0.096527 0.323366 -0.333185
C111  C     C_2   0.590391 0.096528 0.676623 -0.334507
C112  C     C_2   0.905178 0.662252 0.256674 -0.152484
C113  C     C_2   0.094928 0.662219 0.743278 -0.151310
C114  C     C_2   0.405178 0.162252 0.256674 -0.152481
C115  C     C_R   0.048961 0.287897 0.005619 0.144776
C116  C     C_2   0.594928 0.162219 0.743278 -0.151310
C117  C     C_2   0.846946 0.655573 0.180991 -0.334792
C118  C     C_2   0.153132 0.655564 0.818994 -0.334137
C119  C     C_2   0.346946 0.155573 0.180991 -0.334796
C120  C     C_2   0.653132 0.155564 0.818994 -0.334136
C121  C     C_R   0.058682 0.560517 0.616803 0.928012
C122  C     C_R   0.941353 0.560522 0.383206 0.927340
C123  C     C_R   0.558682 0.060517 0.616803 0.928011
C124  C     C_R   0.441353 0.060522 0.383206 0.927340
C125  C     C_R   0.810823 0.690050 0.118364 0.931711
C126  C     C_R   0.475996 0.666395 0.999342 0.058671
C127  C     C_R   0.189209 0.690046 0.881636 0.930900
C128  C     C_R   0.310823 0.190050 0.118364 0.931702
C129  C     C_R   0.689209 0.190046 0.881636 0.930908
C130  C     C_R   0.558693 0.939468 0.616827 0.927237
C131  C     C_R   0.441283 0.939464 0.383182 0.928349
C132  C     C_R   0.058692 0.439468 0.616827 0.927236
C133  C     C_R   0.941283 0.439464 0.383182 0.928350
C134  C     C_R   0.836859 0.750213 0.999993 0.894512
C135  C     C_R   0.163094 0.750089 0.999923 0.888820
C136  C     C_R   0.336859 0.250213 0.999993 0.894512
H1    H     H_    0.390914 0.819495 0.001896 0.146199
H2    H     H_    0.066493 0.749744 0.216037 0.179658
H3    H     H_    0.433206 0.254981 0.783451 0.180138
H4    H     H_    0.566493 0.249742 0.216037 0.179659
H5    H     H_    0.989943 0.624879 0.361437 0.168936
H6    H     H_    0.010151 0.624824 0.638469 0.170326
H7    H     H_    0.489943 0.124879 0.361437 0.168937
H8    H     H_    0.510151 0.124823 0.638470 0.170326
H9    H     H_    0.860822 0.600672 0.287141 0.157631
H10   H     H_    0.139282 0.600692 0.712886 0.157172
H11   H     H_    0.360822 0.100672 0.287141 0.157627
H12   H     H_    0.615893 0.819196 0.011696 0.149132
H13   H     H_    0.639282 0.100693 0.712885 0.157174
H14   H     H_    0.928116 0.693689 0.272206 0.165793
H15   H     H_    0.071997 0.693629 0.727744 0.166329
H16   H     H_    0.428116 0.193689 0.272205 0.165793
H17   H     H_    0.571996 0.193629 0.727744 0.166329
H18   H     H_    0.826574 0.622898 0.161415 0.156574
H19   H     H_    0.173506 0.622912 0.838570 0.157677
H20   H     H_    0.326574 0.122898 0.161415 0.156572
H21   H     H_    0.673505 0.122912 0.838570 0.157677
H22   H     H_    0.384895 0.679699 0.997032 0.153238
H23   H     H_    0.890837 0.319496 0.001738 0.146234
H24   H     H_    0.607185 0.679812 0.988189 0.159515
H25   H     H_    0.884978 0.179697 0.997192 0.153278
H26   H     H_    0.107268 0.179806 0.988347 0.159477
H27   H     H_    0.547099 0.858681 0.013011 0.150175
H28   H     H_    0.463933 0.858833 0.008571 0.150082
H29   H     H_    0.046974 0.358689 0.012760 0.150175
H30   H     H_    0.963808 0.358839 0.008321 0.150080
H31   H     H_    0.510075 0.874981 0.638271 0.170054
H32   H     H_    0.489877 0.875025 0.361877 0.171413
H33   H     H_    0.010075 0.374981 0.638271 0.170054
H34   H     H_    0.115817 0.319203 0.011539 0.149095
H35   H     H_    0.989877 0.375026 0.361876 0.171414
H36   H     H_    0.639271 0.899382 0.713003 0.165819
H37   H     H_    0.360660 0.899328 0.286993 0.160476
H38   H     H_    0.139271 0.399382 0.713003 0.165820
H39   H     H_    0.860660 0.399328 0.286994 0.160477
H40   H     H_    0.571988 0.806192 0.727514 0.168836
H41   H     H_    0.427929 0.806223 0.272600 0.170480
H42   H     H_    0.071988 0.306192 0.727514 0.168838
H43   H     H_    0.927929 0.306224 0.272599 0.170479
H44   H     H_    0.673306 0.877100 0.838592 0.157588
H45   H     H_    0.041323 0.753087 0.861958 0.147752
H46   H     H_    0.326726 0.877098 0.161418 0.157885
H47   H     H_    0.173306 0.377100 0.838592 0.157590
H48   H     H_    0.826726 0.377098 0.161419 0.157884
H49   H     H_    0.181076 0.748825 0.136886 0.186399
H50   H     H_    0.818668 0.748096 0.862592 0.188089
H51   H     H_    0.681076 0.248824 0.136886 0.186399
H52   H     H_    0.318667 0.248097 0.862592 0.188089
H53   H     H_    0.769877 0.741796 0.629362 0.347676
H54   H     H_    0.230399 0.759343 0.369755 0.346962
H55   H     H_    0.269877 0.241799 0.629362 0.347675
H56   H     H_    0.958497 0.753082 0.137596 0.146917
H57   H     H_    0.730399 0.259340 0.369755 0.346964
H58   H     H_    0.418938 0.536550 0.978580 0.264309
H59   H     H_    0.372044 0.568267 0.986204 0.261721
H60   H     H_    0.338359 0.547449 0.883364 0.252674
H61   H     H_    0.360363 0.627090 0.895199 0.222031
H62   H     H_    0.406476 0.595626 0.887201 0.227546
H63   H     H_    0.497647 0.599716 0.051267 0.191440
H64   H     H_    0.452984 0.628573 0.059302 0.199780
H65   H     H_    0.564943 0.580984 0.890603 0.262447
H66   H     H_    0.498353 0.553377 0.859456 0.262280
H67   H     H_    0.541323 0.253088 0.861958 0.147752
H68   H     H_    0.490067 0.584120 0.780923 0.254907
H69   H     H_    0.447433 0.626167 0.827878 0.220753
H70   H     H_    0.512679 0.653455 0.856950 0.233538
H71   H     H_    0.581705 0.619579 0.010005 0.193422
H72   H     H_    0.514935 0.594219 0.973502 0.210147
H73   H     H_    0.919223 0.036539 0.979136 0.264304
H74   H     H_    0.872280 0.068260 0.986665 0.261727
H75   H     H_    0.838630 0.047369 0.883885 0.252677
H76   H     H_    0.860524 0.127019 0.895506 0.222031
H77   H     H_    0.906683 0.095549 0.887598 0.227550
H78   H     H_    0.458497 0.253081 0.137596 0.146917
H79   H     H_    0.997843 0.099753 0.051652 0.191444
H80   H     H_    0.953137 0.128616 0.059604 0.199786
H81   H     H_    0.065169 0.080918 0.891038 0.262446
H82   H     H_    0.998623 0.053284 0.859975 0.262283
H83   H     H_    0.990287 0.083972 0.781353 0.254908
H84   H     H_    0.947595 0.126048 0.828195 0.220752
H85   H     H_    0.012798 0.153360 0.857189 0.233539
H86   H     H_    0.081876 0.119590 0.010336 0.193425
H87   H     H_    0.015143 0.094202 0.973906 0.210144
H88   H     H_    0.933206 0.754980 0.783451 0.180138
O1    O     O_R   0.679230 0.769690 0.858450 -0.612098
O2    O     O_R   0.492070 0.954750 0.409550 -0.613490
O3    O     O_R   0.007930 0.454750 0.590450 -0.614274
O4    O     O_R   0.992070 0.454750 0.409550 -0.613489
O5    O     O_R   0.582530 0.954770 0.590430 -0.621376
O6    O     O_R   0.417470 0.954770 0.409570 -0.623843
O7    O     O_R   0.082530 0.454770 0.590430 -0.621377
O8    O     O_R   0.917470 0.454770 0.409570 -0.623842
O9    O     O_R   0.730270 0.820760 0.960570 -0.624793
O10   O     O_R   0.269730 0.820760 0.039430 -0.625284
O11   O     O_R   0.230270 0.320760 0.960570 -0.624794
O12   O     O_R   0.320770 0.769690 0.141550 -0.612182
O13   O     O_R   0.769730 0.320760 0.039430 -0.625284
O14   O     O_R   0.658400 0.724440 0.948940 -0.630289
O15   O     O_R   0.341600 0.724440 0.051060 -0.627689
O16   O     O_R   0.158400 0.224440 0.948940 -0.630276
O17   O     O_R   0.841600 0.224440 0.051060 -0.627705
O18   O     O_R   0.709450 0.775510 0.051050 -0.620768
O19   O     O_R   0.290550 0.775510 0.948950 -0.620563
O20   O     O_R   0.209450 0.275510 0.051050 -0.620756
O21   O     O_R   0.790550 0.275510 0.948950 -0.620575
O22   O     O_R   0.769710 0.679220 0.039380 -0.624991
O23   O     O_R   0.179230 0.269690 0.858450 -0.612097
O24   O     O_R   0.230290 0.679220 0.960620 -0.623423
O25   O     O_R   0.269710 0.179220 0.039380 -0.624991
O26   O     O_R   0.730290 0.179220 0.960620 -0.623423
O27   O     O_R   0.820750 0.730290 0.141500 -0.616302
O28   O     O_R   0.179250 0.730290 0.858500 -0.617109
O29   O     O_R   0.320750 0.230290 0.141500 -0.616303
O30   O     O_R   0.679250 0.230290 0.858500 -0.617107
O31   O     O_R   0.790530 0.724470 0.948890 -0.620126
O32   O     O_R   0.209470 0.724470 0.051110 -0.609505
O33   O     O_R   0.290530 0.224470 0.948890 -0.620126
O34   O     O_R   0.820770 0.269690 0.141550 -0.612182
O35   O     O_R   0.709470 0.224470 0.051110 -0.609505
O36   O     O_R   0.841580 0.775540 0.051010 -0.623340
O37   O     O_R   0.158420 0.775540 0.948990 -0.627106
O38   O     O_R   0.341580 0.275540 0.051010 -0.623340
O39   O     O_R   0.658420 0.275540 0.948990 -0.627106
O40   O     O_R   0.007900 0.545210 0.590430 -0.613211
O41   O     O_R   0.992100 0.545210 0.409570 -0.614128
O42   O     O_R   0.507900 0.045210 0.590430 -0.613212
O43   O     O_R   0.492100 0.045210 0.409570 -0.614128
O44   O     O_2   0.795793 0.783333 0.744692 -0.636868
O45   O     O_R   0.082500 0.545230 0.590410 -0.626079
O46   O     O_R   0.814612 0.735826 0.684699 -0.802830
O47   O     O_2   0.202176 0.715751 0.254797 -0.630154
O48   O     O_R   0.185964 0.766063 0.314400 -0.804441
O49   O     O_2   0.295793 0.283334 0.744692 -0.636868
O50   O     O_R   0.314612 0.235828 0.684698 -0.802832
O51   O     O_2   0.702175 0.215749 0.254796 -0.630153
O52   O     O_R   0.685964 0.266061 0.314400 -0.804438
O53   O     O_R   0.917500 0.545230 0.409590 -0.625321
O54   O     O_R   0.582500 0.045230 0.590410 -0.626074
O55   O     O_R   0.417500 0.045230 0.409590 -0.625324
O56   O     O_R   0.507930 0.954750 0.590450 -0.614273
Zn1   Zn    Zn3+2 0.715910 0.715890 0.931790 0.966400
Zn2   Zn    Zn3+2 0.549820 0.999980 0.500010 0.965647
Zn3   Zn    Zn3+2 0.950180 0.499980 0.499990 0.964810
Zn4   Zn    Zn3+2 0.049820 0.499980 0.500010 0.965642
Zn5   Zn    Zn3+2 0.284090 0.715890 0.068210 0.977535
Zn6   Zn    Zn3+2 0.215910 0.215890 0.931790 0.966409
Zn7   Zn    Zn3+2 0.784090 0.215890 0.068210 0.977525
Zn8   Zn    Zn3+2 0.784070 0.784090 0.068160 0.964426
Zn9   Zn    Zn3+2 0.215930 0.784090 0.931840 0.960749
Zn10  Zn    Zn3+2 0.284070 0.284090 0.068160 0.964434
Zn11  Zn    Zn3+2 0.715930 0.284090 0.931840 0.960744
Zn12  Zn    Zn3+2 0.450180 0.999980 0.499990 0.964806

loop_
_geom_bond_atom_site_label_1
_geom_bond_atom_site_label_2
_ccdc_geom_bond_type
O19   Zn9   S    
C27   O47   D    
C30   C126  S    
C33   H72   S    
C29   O51   D    
C119  H20   S    
C64   H49   S    
C55   C59   D    
C129  O30   A    
C2    C18   A    
C41   C42   S    
C14   C18   A    
C83   C87   A    
C109  H10   S    
C131  O2    A    
O11   Zn10  S    
C114  H16   S    
C74   C83   A    
C4    C8    A    
C42   H81   S    
C14   H24   S    
C41   H84   S    
C6    H23   S    
C123  O54   A    
C48   C57   S    
C41   H85   S    
C34   H70   S    
H57   O52   S    
C15   C19   A    
C117  H18   S    
C61   H46   S    
C78   O15   A    
O16   Zn6   S    
C30   H64   S    
C106  C114  S    
C43   C82   A    
C84   C97   A    
C64   C68   A    
C113  C118  D    
C105  C113  S    
C59   H44   S    
O53   Zn3   S    
C134  O31   A    
C127  O28   A    
C49   O12   A    
C87   C91   A    
C10   C15   A    
C25   C115  A    
C121  O40   A    
C96   H2    S    
C112  C117  D    
C81   C95   A    
C95   C99   A    
C17   C126  A    
C72   C136  S    
O9    Zn8   S    
C20   C25   A    
C77   O18   A    
C111  H13   S    
C65   C69   A    
C80   O17   A    
C39   H73   S    
O22   Zn1   S    
C60   C62   S    
O28   Zn9   S    
O10   Zn9   S    
C7    C115  A    
C89   C94   A    
C121  O45   A    
C113  H15   S    
C85   C98   A    
C110  C124  S    
C62   H47   S    
C26   O46   S    
C28   C101  S    
C124  O55   A    
O29   Zn10  S    
C44   C115  A    
C1    O9    A    
C122  O53   A    
O37   Zn9   S    
C12   C17   A    
O32   Zn5   S    
C67   C94   A    
O26   Zn7   S    
C133  O4    A    
O45   Zn4   S    
C50   H35   S    
O1    Zn1   S    
C135  O32   A    
C49   O10   A    
C35   C43   A    
C45   H30   S    
C65   H50   S    
H55   O50   S    
C13   C37   S    
C81   C86   A    
C16   C20   A    
C26   C99   S    
C95   H88   S    
C107  C111  D    
C43   H28   S    
O4    Zn4   S    
C29   O52   S    
C27   O48   S    
C4    H1    S    
C5    H12   S    
C21   C22   A    
C8    C78   S    
C125  O22   A    
C60   O11   A    
C36   H66   S    
C79   O16   A    
O23   Zn6   S    
C103  H5    S    
C90   C100  A    
C51   C130  S    
C53   H38   S    
C33   C34   S    
C26   O44   D    
C56   H41   S    
C35   C93   A    
C34   H69   S    
C69   C74   A    
C48   C53   D    
C55   H40   S    
C80   O21   A    
C27   C100  S    
C118  C127  S    
C49   C61   S    
C46   H31   S    
C13   C19   A    
C40   H87   S    
C136  O38   A    
C120  C129  S    
C50   C58   S    
C88   C92   A    
C64   C90   A    
C106  H7    S    
C3    C70   S    
C38   C39   S    
C38   H76   S    
C94   C101  A    
O6    Zn12  S    
C42   H83   S    
O13   Zn11  S    
C132  O3    A    
H54   O48   S    
C105  H6    S    
C85   C89   A    
C86   C87   A    
C66   C92   A    
C130  O5    A    
C57   C62   D    
C68   C73   A    
C98   C102  A    
C54   C133  S    
C111  C123  S    
C46   C51   D    
C35   H27   S    
C57   H42   S    
C116  C120  D    
C13   C24   A    
C98   H4    S    
O34   Zn7   S    
C71   O34   A    
C54   H39   S    
C46   C55   S    
C7    C11   A    
C9    C14   A    
O2    Zn2   S    
C130  O56   A    
C5    C9    A    
C37   C38   S    
C45   C104  A    
C76   H78   S    
C122  O41   A    
C73   H45   S    
C11   C16   A    
O7    Zn4   S    
C28   O50   S    
C23   C104  A    
C125  O27   A    
C30   C31   S    
C8    C12   A    
O31   Zn1   S    
C128  O29   A    
C77   O14   A    
C39   H75   S    
C118  H19   S    
O21   Zn11  S    
C53   C132  S    
O56   Zn12  S    
C79   O20   A    
C88   C89   A    
H53   O46   S    
O35   Zn7   S    
O17   Zn7   S    
O18   Zn8   S    
C116  H17   S    
C58   H43   S    
C11   C79   S    
C73   C81   A    
C74   H56   S    
C2    C126  A    
C131  O6    A    
O20   Zn10  S    
C40   C41   S    
C32   H59   S    
C135  O37   A    
C6    C104  A    
O25   Zn6   S    
C86   C90   A    
C120  H21   S    
C22   C93   A    
C112  H14   S    
O27   Zn8   S    
C38   H77   S    
O30   Zn11  S    
C132  O7    A    
C71   O13   A    
C31   H61   S    
C67   C72   A    
C97   H3    S    
C67   H52   S    
C19   C23   A    
C108  H9    S    
C106  C110  D    
C1    O1    A    
C58   C63   D    
C65   C91   A    
C105  C109  D    
C129  O26   A    
C33   H71   S    
C78   O19   A    
C10   C80   S    
C63   H48   S    
C37   H80   S    
C51   H36   S    
C18   C22   A    
C52   C131  S    
O39   Zn11  S    
C15   H25   S    
C31   C32   S    
C44   C45   A    
C84   C88   A    
C108  C122  S    
C42   H82   S    
O3    Zn3   S    
C6    C10   A    
C5    C93   A    
C47   C52   D    
O12   Zn5   S    
C92   C102  A    
C96   C100  A    
C124  O43   A    
C3    O39   A    
C128  O25   A    
O43   Zn2   S    
C75   H67   S    
C16   H26   S    
C32   H58   S    
C1    C59   S    
C9    C77   S    
C133  O8    A    
O54   Zn2   S    
C50   C54   D    
O14   Zn1   S    
O24   Zn5   S    
C52   H37   S    
C119  C128  S    
C47   H32   S    
C123  O42   A    
C109  C121  S    
C28   O49   D    
C66   C70   A    
C114  C119  D    
O5    Zn2   S    
C68   C135  S    
C72   C76   A    
C3    O35   A    
C83   C96   A    
C76   C85   A    
O33   Zn6   S    
C24   C40   S    
C37   H79   S    
C29   C102  S    
C30   H63   S    
C34   C36   S    
C44   H29   S    
C23   C25   A    
O8    Zn3   S    
O15   Zn5   S    
C75   C84   A    
C12   H22   S    
C17   C21   A    
C107  C116  S    
C39   H74   S    
C32   H60   S    
C48   H33   S    
O38   Zn10  S    
C4    C82   A    
C21   C82   A    
O36   Zn8   S    
C60   O23   A    
C134  O36   A    
O55   Zn12  S    
C36   H65   S    
C7    H34   S    
C40   H86   S    
C136  O33   A    
C69   C134  S    
O40   Zn3   S    
C70   C75   A    
C56   C61   D    
C103  C112  S    
C103  C108  D    
O42   Zn12  S    
C127  O24   A    
C36   H68   S    
C91   C99   A    
C107  H8    S    
C66   H51   S    
C117  C125  S    
C63   C71   S    
C20   C24   A    
C31   H62   S    
C97   C101  A    
C110  H11   S    
O41   Zn4   S    
C2    C33   S    
C47   C56   S    
