data_mof_unit_pretest_1254.cif
_audit_creation_date              2012-12-11T15:20:35-0500
_audit_creation_method            fapswitch 2.2
_symmetry_space_group_name_H-M    P1
_symmetry_Int_Tables_number       1
_space_group_crystal_system       triclinic
_cell_length_a                    13.050076
_cell_length_b                    13.065455
_cell_length_c                    15.36333
_cell_angle_alpha                 117.407572
_cell_angle_beta                  62.908746
_cell_angle_gamma                 97.762557
_cell_volume                      2061.11486774

loop_
_atom_site_label
_atom_site_type_symbol
_atom_type_description
_atom_site_fract_x
_atom_site_fract_y
_atom_site_fract_z
_atom_type_partial_charge
C1    C     C_R   0.029655 0.834211 0.025570 -0.209313
C2    C     C_R   0.321385 0.525541 0.777971 -0.115577
C3    C     C_R   0.255481 0.450954 0.079986 -0.153491
C4    C     C_R   0.702436 0.401791 0.207785 -0.144281
C5    C     C_R   0.987097 0.299044 0.695712 -0.140961
C6    C     C_R   0.356072 0.491268 0.027432 0.113287
C7    C     C_R   0.929209 0.202411 0.694102 0.071818
C8    C     C_R   0.330416 0.449045 0.674779 0.035653
C9    C     C_R   0.078824 0.142668 0.971017 0.050910
C10   C     C_R   0.932341 0.043879 0.421428 -0.224896
C11   C     C_R   0.934788 0.135400 0.513141 -0.167557
C12   C     C_R   0.707028 0.425716 0.303208 0.057899
C13   C     C_R   0.892658 0.125642 0.610383 0.090847
C14   C     C_R   0.824958 0.035474 0.621291 -0.217831
C15   C     C_R   0.818838 0.944281 0.529403 0.319522
C16   C     C_R   0.737584 0.578819 0.952148 -0.152974
C17   C     C_R   0.890288 0.940891 0.425612 0.098384
C18   C     C_R   0.639298 0.425347 0.482166 -0.169367
C19   C     C_R   0.544431 0.430415 0.575677 -0.163128
C20   C     C_R   0.437896 0.401334 0.573407 0.143393
C21   C     C_R   0.434150 0.343060 0.472393 -0.168383
C22   C     C_R   0.529063 0.337407 0.378822 -0.166861
C23   C     C_R   0.636947 0.563162 0.029994 0.154947
C24   C     C_R   0.627866 0.389839 0.386194 0.141484
C25   C     C_2   0.466151 0.475789 0.018610 0.278058
C26   C     C_2   0.523641 0.571021 0.040862 -0.285970
C27   C     C_2   0.902240 0.967439 0.025673 -0.207924
C28   C     C_R   0.938736 0.720708 0.316224 -0.136224
C29   C     C_2   0.882035 0.057084 0.122931 -0.137474
C30   C     C_R   0.664207 0.492833 0.060852 -0.092370
C31   C     C_R   0.022516 0.821408 0.222083 -0.119758
C32   C     C_R   0.801990 0.487138 0.303561 -0.137007
C33   C     C_R   0.935774 0.748320 0.924476 0.328370
C34   C     C_R   0.943639 0.831548 0.325091 0.055374
C35   C     C_R   0.958574 0.855234 0.989401 0.111022
C36   C     C_3   0.734696 0.856449 0.546330 -1.068663
C37   C     C_3   0.515681 0.351658 0.966877 -0.987199
C38   C     C_3   0.911732 0.724950 0.830836 -1.108478
C39   C     C_R   0.334576 0.553120 0.985420 -0.167323
C40   C     C_R   0.905571 0.198739 0.790095 -0.146347
C41   C     C_R   0.219169 0.437672 0.683677 -0.120344
C42   C     C_R   0.092601 0.248811 0.046089 -0.119264
C43   C     C_R   0.996261 0.166192 0.947271 -0.096005
H1    H     H_    0.077856 0.897625 0.062707 0.110102
H2    H     H_    0.980196 0.207709 0.503234 0.113041
H3    H     H_    0.780175 0.033345 0.699438 0.126866
H4    H     H_    0.650344 0.341546 0.173015 0.085451
H5    H     H_    0.716868 0.459706 0.488980 0.108090
H6    H     H_    0.552750 0.467516 0.650933 0.110542
H7    H     H_    0.355473 0.312171 0.466242 0.107408
H8    H     H_    0.519418 0.302638 0.304413 0.106406
H9    H     H_    0.486310 0.655853 0.067234 0.116097
H10   H     H_    0.865853 0.974652 0.977584 0.143966
H11   H     H_    0.910908 0.053415 0.177559 0.127995
H12   H     H_    0.848481 0.143869 0.822781 0.088861
H13   H     H_    0.741772 0.619894 0.904392 0.129839
H14   H     H_    0.893616 0.693865 0.379660 0.122295
H15   H     H_    0.605569 0.461043 0.117764 0.108702
H16   H     H_    0.057520 0.890749 0.201961 0.084572
H17   H     H_    0.840607 0.506284 0.357757 0.085318
H18   H     H_    0.390829 0.608356 0.952796 0.092201
H19   H     H_    0.719630 0.803201 0.473130 0.261219
H20   H     H_    0.766157 0.800438 0.567535 0.248986
H21   H     H_    0.649507 0.901772 0.614990 0.262122
H22   H     H_    0.464626 0.289833 0.927416 0.244873
H23   H     H_    0.193305 0.386787 0.619715 0.092547
H24   H     H_    0.605673 0.336895 0.901483 0.260228
H25   H     H_    0.511946 0.329915 0.029943 0.231072
H26   H     H_    0.824791 0.765507 0.861969 0.248316
H27   H     H_    0.976852 0.763253 0.779492 0.261042
H28   H     H_    0.918989 0.630356 0.778077 0.257306
H29   H     H_    0.148558 0.261050 0.083571 0.092887
H30   H     H_    0.965195 0.103542 0.890753 0.094164
H31   H     H_    0.391167 0.559117 0.798714 0.090024
H32   H     H_    0.241144 0.412916 0.133408 0.098651
H33   H     H_    0.003380 0.339288 0.643578 0.084556
H34   H     H_    0.975487 0.050760 0.345687 0.118592
N1    N     N_R   0.037310 0.720000 0.995790 -0.055004
N2    N     N_R   0.824890 0.517960 0.936420 -0.044047
N3    N     N_R   0.003210 0.648190 0.211380 -0.042842
N4    N     N_R   0.774330 0.457010 0.995840 -0.049946
N5    N     N_R   0.053760 0.709140 0.151960 -0.038384
N6    N     N_R   0.853860 0.498840 0.211410 -0.038160
N7    N     N_R   0.974240 0.667310 0.936390 -0.057980
N8    N     N_R   0.225670 0.542990 0.004160 -0.036130
N9    N     N_R   0.946240 0.290860 0.848040 -0.038853
N10   N     N_R   0.146140 0.501160 0.788590 -0.040034
N11   N     N_R   0.025760 0.332690 0.063610 -0.040161
N12   N     N_R   0.962690 0.280000 0.004210 -0.042184
N13   N     N_R   0.209210 0.553840 0.847990 -0.039607
N14   N     N_R   0.175110 0.482040 0.063580 -0.039106
N15   N     N_R   0.996790 0.351810 0.788620 -0.037459
N16   N     N_R   0.790790 0.446160 0.152010 -0.040205
Ni1   Ni    Ni4+2 0.130310 0.630310 0.999970 0.212484
Ni2   Ni    Ni4+2 0.869690 0.369690 0.000030 0.206214
Ni3   Ni    Ni4+2 0.985640 0.509470 0.863740 0.211239
Ni4   Ni    Ni4+2 0.014360 0.490530 0.136260 0.209831

loop_
_geom_bond_atom_site_label_1
_geom_bond_atom_site_label_2
_ccdc_geom_bond_type
C43   H30   S    
C38   H27   S    
N5    Ni1   S    
N3    Ni4   S    
C27   C29   D    
C36   H21   S    
C19   C20   A    
C3    C6    A    
N8    N14   A    
C14   H3    S    
C28   H14   S    
C9    C42   A    
C43   N12   A    
C31   N5    A    
C18   C24   A    
N4    Ni2   S    
C6    C25   S    
C29   H11   S    
C10   C17   A    
C31   H16   S    
N6    N16   A    
C37   H25   S    
C30   H15   S    
N15   Ni3   S    
C41   N10   A    
C3    N14   A    
C18   C19   A    
N7    Ni3   S    
C23   C26   S    
C40   N9    A    
C2    N13   A    
C25   C37   S    
C37   H22   S    
C7    C40   A    
C4    C12   A    
C36   H20   S    
C3    H32   S    
N11   Ni4   S    
C2    H31   S    
N11   N12   A    
C38   H26   S    
C28   C34   A    
N16   Ni2   S    
C13   C14   A    
C12   C32   A    
C1    N1    A    
C36   H19   S    
C21   H7    S    
C10   H34   S    
N13   Ni1   S    
C39   H18   S    
C9    C43   A    
C23   C30   A    
C8    C41   A    
N3    N5    A    
N9    Ni2   S    
N2    N4    A    
C27   C35   S    
C25   C26   D    
N12   Ni2   S    
C16   H13   S    
C26   H9    S    
N8    Ni1   S    
C19   H6    S    
C1    H1    S    
C5    H33   S    
C40   H12   S    
N10   Ni3   S    
C42   H29   S    
C31   C34   A    
C8    C20   S    
N14   Ni4   S    
C16   C23   A    
C22   C24   A    
C11   H2    S    
C42   N11   A    
C17   C34   S    
C32   H17   S    
C15   C36   S    
C1    C35   A    
C5    C7    A    
C15   C17   A    
C32   N6    A    
C38   H28   S    
C6    C39   A    
C2    C8    A    
C18   H5    S    
C27   H10   S    
C41   H23   S    
C12   C24   S    
C33   C38   S    
C16   N2    A    
C30   N4    A    
N2    Ni3   S    
N9    N15   A    
C11   C13   A    
N1    Ni1   S    
C37   H24   S    
C33   C35   A    
C28   N3    A    
C33   N7    A    
C5    N15   A    
C10   C11   A    
C4    N16   A    
N1    N7    A    
C7    C13   S    
C20   C21   A    
N6    Ni4   S    
N10   N13   A    
C39   N8    A    
C14   C15   A    
C21   C22   A    
C22   H8    S    
C4    H4    S    
