data_mof_unit_pretest_1983.cif
_audit_creation_date              2012-12-10T21:01:06-0500
_audit_creation_method            fapswitch 2.2
_symmetry_space_group_name_H-M    P1
_symmetry_Int_Tables_number       1
_space_group_crystal_system       triclinic
_cell_length_a                    15.846889
_cell_length_b                    15.091371
_cell_length_c                    10.550405
_cell_angle_alpha                 89.595214
_cell_angle_beta                  89.98409
_cell_angle_gamma                 89.993888
_cell_volume                      2523.07979331

loop_
_atom_site_label
_atom_site_type_symbol
_atom_type_description
_atom_site_fract_x
_atom_site_fract_y
_atom_site_fract_z
_atom_type_partial_charge
C1    C     C_R   0.338897 0.500004 0.500035 0.909875
C2    C     C_R   0.086863 0.500006 0.500001 0.160571
C3    C     C_R   0.500158 0.500373 0.256922 1.007979
C4    C     C_R   0.499842 0.499627 0.743078 1.007979
C5    C     C_1   0.250498 0.500011 0.500023 -0.127245
C6    C     C_1   0.749502 0.499989 0.499976 -0.127245
C7    C     C_R   0.451464 0.953595 0.411864 -0.135547
C8    C     C_R   0.548536 0.046405 0.588136 -0.135547
C9    C     C_R   0.548541 0.952711 0.588128 -0.142576
C10   C     C_R   0.451459 0.047288 0.411872 -0.142576
C11   C     C_R   0.500004 0.905031 0.499992 0.058248
C12   C     C_R   0.661103 0.499996 0.499965 0.909874
C13   C     C_R   0.499996 0.094968 0.500008 0.058248
C14   C     C_3   0.500867 0.583841 0.038390 0.638326
C15   C     C_3   0.499133 0.416159 0.961610 0.638325
C16   C     C_3   0.569052 0.540357 0.957154 0.595647
C17   C     C_3   0.430948 0.459643 0.042846 0.595647
C18   C     C_3   0.430053 0.543017 0.957261 -0.484250
C19   C     C_3   0.569947 0.456983 0.042738 -0.484249
C20   C     C_3   0.499333 0.498951 0.877258 -0.391454
C21   C     C_3   0.500667 0.501049 0.122742 -0.391455
C22   C     C_1   0.500002 0.807132 0.499994 0.105981
C23   C     C_1   0.824346 0.499989 0.499988 -0.048384
C24   C     C_1   0.499997 0.192868 0.500006 0.105981
C25   C     C_1   0.175654 0.500011 0.500012 -0.048384
C26   C     C_R   0.956231 0.579660 0.517342 -0.155155
C27   C     C_R   0.043769 0.420340 0.482658 -0.155155
C28   C     C_R   0.043734 0.579667 0.517343 -0.170107
C29   C     C_R   0.956266 0.420333 0.482657 -0.170107
C30   C     C_R   0.913137 0.499994 0.499999 0.160571
F1    F     F_    0.503129 0.670219 0.081164 -0.605473
F2    F     F_    0.496871 0.329781 0.918836 -0.605473
F3    F     F_    0.639384 0.582777 0.908386 -0.616107
F4    F     F_    0.360616 0.417223 0.091614 -0.616106
H1    H     H_    0.413393 0.082560 0.342765 0.155767
H2    H     H_    0.077702 0.358751 0.469249 0.155326
H3    H     H_    0.586607 0.917440 0.657235 0.155767
H4    H     H_    0.586598 0.080984 0.657250 0.155057
H5    H     H_    0.413402 0.919016 0.342749 0.155057
H6    H     H_    0.373496 0.577567 0.919325 0.215620
H7    H     H_    0.626504 0.422433 0.080675 0.215620
H8    H     H_    0.077639 0.641261 0.530754 0.151191
H9    H     H_    0.922361 0.358739 0.469246 0.151191
H10   H     H_    0.922298 0.641249 0.530751 0.155326
N1    N     N_1   0.500000 0.270550 0.500000 -0.071911
N2    N     N_1   0.500000 0.729450 0.500000 -0.071911
O1    O     O_R   0.378020 0.573650 0.500040 -0.624185
O2    O     O_R   0.621980 0.426350 0.499960 -0.624185
O3    O     O_R   0.621980 0.573650 0.499960 -0.602360
O4    O     O_R   0.378020 0.426350 0.500040 -0.602360
O5    O     O_R   0.499980 0.573650 0.313960 -0.578983
O6    O     O_R   0.500020 0.426350 0.686040 -0.578983
O7    O     O_R   0.500020 0.573650 0.686040 -0.600316
O8    O     O_R   0.499980 0.426350 0.313960 -0.600316
Zn1   Zn    Zn3+2 0.500000 0.598370 0.500000 1.044466
Zn2   Zn    Zn3+2 0.500000 0.401630 0.500000 1.044466

loop_
_geom_bond_atom_site_label_1
_geom_bond_atom_site_label_2
_ccdc_geom_bond_type
N2    Zn1   S    
C7    C10   A    
C7    C11   A    
O8    Zn2   S    
C12   O3    A    
C8    C13   A    
C27   H2    S    
C27   C29   A    
C29   C30   A    
C2    C28   A    
C1    O4    A    
C14   C18   S    
C11   C22   S    
C26   C28   A    
O2    Zn2   S    
C16   C20   S    
C14   F1    S    
C12   O2    A    
C9    H3    S    
C17   C18   S    
C26   H10   S    
C15   F2    S    
C29   H9    S    
C15   C19   S    
C9    C11   A    
C2    C27   A    
C8    H4    S    
C4    O6    A    
C16   C19   S    
C5    C25   T    
C24   N1    T    
C14   C21   S    
C28   H8    S    
N1    Zn2   S    
C19   C21   S    
C26   C30   A    
C2    C25   S    
C18   C20   S    
O7    Zn1   S    
C6    C12   S    
C15   C20   S    
C16   F3    S    
C3    O8    A    
C14   C16   S    
C3    C21   S    
C4    O7    A    
C17   F4    S    
C6    C23   T    
C4    C20   S    
C23   C30   S    
O6    Zn2   S    
C1    C5    S    
C18   H6    S    
C10   H1    S    
O1    Zn1   S    
C15   C17   S    
C3    O5    A    
C1    O1    A    
C7    H5    S    
O5    Zn1   S    
C22   N2    T    
O3    Zn1   S    
O4    Zn2   S    
C19   H7    S    
C13   C24   S    
C8    C9    A    
C10   C13   A    
C17   C21   S    
