data_mof_unit_pretest_19.cif
_audit_creation_date              2012-12-10T19:07:01-0500
_audit_creation_method            fapswitch 2.2
_symmetry_space_group_name_H-M    P1
_symmetry_Int_Tables_number       1
_space_group_crystal_system       triclinic
_cell_length_a                    27.812892
_cell_length_b                    10.831816
_cell_length_c                    9.538392
_cell_angle_alpha                 89.7556
_cell_angle_beta                  89.860803
_cell_angle_gamma                 90.211819
_cell_volume                      2873.52098355

loop_
_atom_site_label
_atom_site_type_symbol
_atom_type_description
_atom_site_fract_x
_atom_site_fract_y
_atom_site_fract_z
_atom_type_partial_charge
C1    C     C_R   0.499693 0.262355 0.500137 0.792016
C2    C     C_R   0.278672 0.488486 0.375560 -0.107788
C3    C     C_R   0.253691 0.494872 0.502792 0.368373
C4    C     C_R   0.102092 0.494261 0.506529 -0.044108
C5    C     C_R   0.127606 0.382335 0.499864 -0.020698
C6    C     C_R   0.102342 0.270900 0.494420 -0.145362
C7    C     C_R   0.127854 0.606338 0.511857 -0.021294
C8    C     C_R   0.354501 0.497811 0.500929 -0.038552
C9    C     C_R   0.645600 0.496356 0.501475 -0.043368
C10   C     C_R   0.974507 0.379949 0.514204 0.043163
C11   C     C_R   0.974757 0.607974 0.504247 0.043327
C12   C     C_R   0.407456 0.499406 0.500186 0.786207
C13   C     C_R   0.949382 0.493903 0.509442 0.068012
C14   C     C_R   0.947418 0.269498 0.526851 -0.204181
C15   C     C_R   0.897486 0.270719 0.529058 -0.142323
C16   C     C_R   0.872472 0.381875 0.519164 -0.021271
C17   C     C_R   0.898243 0.493782 0.509646 -0.043717
C18   C     C_R   0.872738 0.605563 0.500083 -0.023191
C19   C     C_R   0.822266 0.603339 0.499354 0.538694
C20   C     C_R   0.821988 0.383816 0.518745 0.535843
C21   C     C_R   0.720446 0.467816 0.628481 -0.094486
C22   C     C_R   0.670313 0.469371 0.626351 -0.216811
C23   C     C_R   0.500422 0.737622 0.499789 0.824751
C24   C     C_R   0.672097 0.520570 0.378811 -0.163108
C25   C     C_R   0.722206 0.519585 0.381233 -0.098295
C26   C     C_R   0.746522 0.493422 0.506059 0.350158
C27   C     C_R   0.025579 0.379998 0.507011 0.043532
C28   C     C_R   0.050956 0.494125 0.507809 0.067558
C29   C     C_R   0.025835 0.608133 0.509783 0.043509
C30   C     C_R   0.052415 0.269469 0.497758 -0.204082
C31   C     C_R   0.102856 0.717620 0.518888 -0.145088
C32   C     C_R   0.947914 0.718336 0.492397 -0.203865
C33   C     C_R   0.897993 0.716873 0.490562 -0.142231
C34   C     C_R   0.592580 0.499063 0.500100 0.831615
C35   C     C_R   0.052932 0.718783 0.518091 -0.204053
C36   C     C_R   0.503240 0.062686 0.625334 0.073794
C37   C     C_R   0.501903 0.129122 0.499636 -0.101687
C38   C     C_R   0.505902 0.064922 0.372395 -0.203474
C39   C     C_R   0.506150 0.936453 0.372266 -0.170938
C40   C     C_R   0.503709 0.870769 0.499399 -0.078422
C41   C     C_R   0.505606 0.935776 0.625361 0.081615
C42   C     C_3   0.474988 0.923875 0.753670 -0.462947
C43   C     C_3   0.471078 0.064437 0.752133 -0.059961
C44   C     C_R   0.521337 0.594453 0.072948 0.166982
C45   C     C_R   0.178089 0.384611 0.498128 0.533804
C46   C     C_R   0.474809 0.414084 0.075065 -0.071321
C47   C     C_R   0.474783 0.414202 0.926194 -0.081325
C48   C     C_R   0.521316 0.594204 0.925295 0.234156
C49   C     C_3   0.572818 0.631409 0.916734 -0.554055
C50   C     C_3   0.573275 0.630002 0.076028 -0.238691
C51   C     C_R   0.178321 0.604392 0.510783 0.534909
C52   C     C_R   0.278960 0.502380 0.629093 -0.109177
C53   C     C_R   0.329087 0.503572 0.628383 -0.220550
C54   C     C_R   0.328818 0.490115 0.374430 -0.215863
Cu1   Cu    Cu3+1 0.500000 0.499980 0.640670 0.943696
Cu2   Cu    Cu3+1 0.500000 0.500020 0.359330 0.956228
H1    H     H_    0.347405 0.485203 0.274725 0.157206
H2    H     H_    0.259691 0.507283 0.727681 0.134857
H3    H     H_    0.121827 0.804973 0.525082 0.186965
H4    H     H_    0.964294 0.808038 0.481359 0.136162
H5    H     H_    0.654321 0.541347 0.281328 0.168115
H6    H     H_    0.879230 0.804011 0.481332 0.188447
H7    H     H_    0.742210 0.539130 0.286108 0.143180
H8    H     H_    0.036754 0.808539 0.526851 0.135873
H9    H     H_    0.506710 0.113232 0.272745 0.160454
H10   H     H_    0.505978 0.889184 0.272702 0.149074
H11   H     H_    0.440832 0.873337 0.733238 0.203274
H12   H     H_    0.259173 0.482709 0.277673 0.134931
H13   H     H_    0.495757 0.888202 0.844586 0.169516
H14   H     H_    0.488786 0.109192 0.843324 0.160253
H15   H     H_    0.455142 0.343120 0.131313 0.133270
H16   H     H_    0.455060 0.343606 0.870979 0.139063
H17   H     H_    0.595882 0.558429 0.871163 0.215701
H18   H     H_    0.577317 0.724129 0.867700 0.191831
H19   H     H_    0.596198 0.555798 0.119858 0.182242
H20   H     H_    0.121107 0.183644 0.487431 0.186772
H21   H     H_    0.650991 0.448472 0.722171 0.151252
H22   H     H_    0.739076 0.447241 0.725308 0.142264
H23   H     H_    0.878523 0.183502 0.538468 0.188563
H24   H     H_    0.963618 0.179907 0.537925 0.136294
H25   H     H_    0.036007 0.179616 0.490017 0.135860
H26   H     H_    0.347866 0.509370 0.727477 0.158762
N1    N     N_R   0.202225 0.494589 0.503764 -0.470748
N2    N     N_R   0.798049 0.493500 0.508478 -0.470221
N3    N     N_R   0.500300 0.500930 0.147930 -0.185474
N4    N     N_R   0.500310 0.500890 0.852020 -0.174687
O1    O     O_R   0.500000 0.319640 0.618810 -0.591108
O2    O     O_2   0.796998 0.276985 0.527211 -0.526978
O3    O     O_2   0.203353 0.711248 0.516221 -0.531950
O4    O     O_2   0.797542 0.710063 0.490384 -0.520341
O5    O     O_R   0.500010 0.319680 0.381230 -0.588512
O6    O     O_R   0.430260 0.500000 0.618780 -0.589969
O7    O     O_R   0.430270 0.500040 0.381190 -0.583966
O8    O     O_R   0.499990 0.680320 0.618770 -0.578953
O9    O     O_R   0.500000 0.680360 0.381190 -0.579320
O10   O     O_R   0.569730 0.499960 0.618810 -0.584600
O11   O     O_R   0.569740 0.500000 0.381220 -0.572862
O12   O     O_2   0.202896 0.277936 0.491422 -0.533638
C55   C     C_3   0.419751 0.111164 0.722654 -0.359594
C56   C     C_3   0.387878 0.098731 0.852434 -0.826468
H27   H     H_    0.384186 0.000279 0.883693 0.260800
H28   H     H_    0.403426 0.151694 0.941000 0.233340
H29   H     H_    0.351581 0.135773 0.829134 0.254057
H30   H     H_    0.420993 0.209957 0.691805 0.206826
H31   H     H_    0.403248 0.059236 0.634521 0.218541
C57   C     C_2   0.581331 0.755184 0.138820 0.436190
H32   H     H_    0.563256 0.835472 0.095789 0.039163
O13   O     O_2   0.608431 0.767636 0.238198 -0.535365

loop_
_geom_bond_atom_site_label_1
_geom_bond_atom_site_label_2
_ccdc_geom_bond_type
C10   C27   A    
C1    O1    A    
Cu2   O9    S    
C21   C26   A    
C40   C41   A    
C24   H5    S    
C41   C42   S    
Cu1   Cu2   S    
C49   H17   S    
Cu1   O6    S    
C36   C37   A    
C34   O10   A    
C2    H12   S    
C45   O12   S    
C4    C7    A    
C5    C6    A    
C9    C22   A    
C57   H32   S    
C15   C16   A    
C19   N2    A    
C34   O11   A    
C18   C19   A    
C25   H7    S    
C31   H3    S    
Cu2   O5    S    
C15   H23   S    
C33   H6    S    
C21   H22   S    
C35   H8    S    
C14   H24   S    
C16   C20   A    
C46   N3    A    
C42   H11   S    
C55   H30   S    
C1    O5    A    
C21   C22   A    
C27   C30   A    
C36   C41   A    
C45   N1    A    
Cu2   O11   S    
Cu1   O8    S    
C4    C28   A    
Cu2   O7    S    
C55   H31   S    
C7    C31   A    
C47   N4    A    
C24   C25   A    
C2    C54   A    
C8    C54   A    
C39   C40   A    
C16   C17   A    
C25   C26   A    
C5    C45   A    
C56   H29   S    
C53   H26   S    
C37   C38   A    
C55   C56   S    
C38   H9    S    
C8    C12   S    
C56   H28   S    
C17   C18   A    
C46   H15   S    
C52   H2    S    
C48   C49   S    
C6    C30   A    
C11   C32   A    
C43   H14   S    
C20   N2    A    
C3    N1    S    
C9    C34   S    
C39   H10   S    
C31   C35   A    
C12   O7    A    
C42   C43   S    
C32   H4    S    
C44   N3    A    
C51   N1    A    
C52   C53   A    
C44   C50   S    
C46   C47   A    
C28   C29   A    
C26   N2    S    
C14   C15   A    
C12   O6    A    
C22   H21   S    
C43   C55   S    
Cu1   O10   S    
C10   C13   A    
C8    C53   A    
C3    C52   A    
C9    C24   A    
C6    H20   S    
C1    C37   S    
C29   C35   A    
C23   O8    A    
C13   C17   A    
C32   C33   A    
C30   H25   S    
C2    C3    A    
C7    C51   A    
C19   O4    S    
C50   H19   S    
C51   O3    S    
C11   C13   A    
Cu2   N3    S    
C38   C39   A    
C57   O13   D    
Cu1   N4    S    
C20   O2    S    
C56   H27   S    
C23   O9    A    
C48   N4    A    
C42   H13   S    
Cu1   O1    S    
C18   C33   A    
C47   H16   S    
C44   C48   A    
C4    C5    A    
C11   C29   A    
C49   C50   S    
C27   C28   A    
C50   C57   S    
C49   H18   S    
C36   C43   S    
C23   C40   S    
C10   C14   A    
C54   H1    S    
