data_mof_unit_pretest_1656.cif
_audit_creation_date              2012-12-10T17:53:56-0500
_audit_creation_method            fapswitch 2.2
_symmetry_space_group_name_H-M    P1
_symmetry_Int_Tables_number       1
_space_group_crystal_system       monoclinic
_cell_length_a                    15.926787
_cell_length_b                    11.732219
_cell_length_c                    10.472608
_cell_angle_alpha                 90.0
_cell_angle_beta                  90.0
_cell_angle_gamma                 89.999982
_cell_volume                      1956.87543233

loop_
_atom_site_label
_atom_site_type_symbol
_atom_type_description
_atom_site_fract_x
_atom_site_fract_y
_atom_site_fract_z
_atom_type_partial_charge
C1    C     C_R   0.500000 0.283320 0.500000 0.821270
C2    C     C_1   0.749627 0.499687 0.500000 -0.099973
C3    C     C_1   0.250373 0.499687 0.500000 -0.099973
C4    C     C_3   0.082879 0.498627 0.500000 -0.017325
C5    C     C_3   0.917121 0.498627 0.500000 -0.017326
C6    C     C_3   0.951426 0.622441 0.499999 -0.337284
C7    C     C_3   0.048574 0.622441 0.500000 -0.337284
C8    C     C_1   0.824947 0.499269 0.500000 0.084824
C9    C     C_1   0.175053 0.499269 0.500000 0.084824
C10   C     C_R   0.339750 0.500009 0.500000 0.814438
C11   C     C_R   0.660249 0.500009 0.500000 0.814438
C12   C     C_1   0.500000 0.059735 0.500000 0.024195
C13   C     C_1   0.500000 0.161944 0.500000 -0.153242
C14   C     C_1   0.500000 0.499988 0.072073 0.135634
C15   C     C_1   0.500000 0.499988 0.927926 0.135634
C16   C     C_R   0.500000 0.716690 0.500000 0.822603
C17   C     C_3   0.049219 0.435472 0.620793 0.173343
C18   C     C_3   0.049219 0.435471 0.379207 0.173343
C19   C     C_3   0.950781 0.435472 0.620793 0.173343
C20   C     C_3   0.950781 0.435471 0.379208 0.173342
C21   C     C_1   0.500000 0.940275 0.500000 0.024459
C22   C     C_1   0.500000 0.838066 0.500000 -0.152594
Cu1   Cu    Cu3+1 0.500000 0.500000 0.625300 1.029672
Cu2   Cu    Cu3+1 0.500000 0.500000 0.374700 1.029672
H1    H     H_    0.071805 0.669499 0.585161 0.224391
H2    H     H_    0.071805 0.669499 0.414839 0.224390
H3    H     H_    0.928194 0.669500 0.585160 0.224390
H4    H     H_    0.928195 0.669499 0.414838 0.224391
H5    H     H_    0.929469 0.345180 0.616099 0.083177
H6    H     H_    0.929470 0.345179 0.383903 0.083176
H7    H     H_    0.070530 0.345179 0.616098 0.083176
H8    H     H_    0.070530 0.345179 0.383902 0.083177
N1    N     N_1   0.500000 0.499990 0.186410 -0.131441
N2    N     N_1   0.500000 0.499990 0.813590 -0.131441
O1    O     O_R   0.500000 0.337200 0.605810 -0.567113
O2    O     O_R   0.500000 0.337200 0.394190 -0.567112
O3    O     O_R   0.379430 0.500010 0.605860 -0.559932
O4    O     O_R   0.379430 0.500010 0.394140 -0.559932
O5    O     O_R   0.620570 0.500010 0.605860 -0.559932
O6    O     O_R   0.620570 0.500010 0.394140 -0.559932
O7    O     O_R   0.500000 0.662810 0.605810 -0.566817
O8    O     O_R   0.500000 0.662810 0.394190 -0.566817
Cl1   Cl    Cl    0.095374 0.490946 0.234627 -0.439958
Cl2   Cl    Cl    0.095375 0.490946 0.765373 -0.439958
Cl3   Cl    Cl    0.904625 0.490945 0.234627 -0.439958
Cl4   Cl    Cl    0.904625 0.490947 0.765373 -0.439958

loop_
_geom_bond_atom_site_label_1
_geom_bond_atom_site_label_2
_ccdc_geom_bond_type
C5    C8    S    
Cu2   O4    S    
Cu1   Cu2   S    
C6    C7    S    
C3    C9    T    
Cu2   N1    S    
Cu1   O3    S    
Cu2   O8    S    
C15   N2    T    
C18   C20   S    
C6    H3    S    
Cu1   O7    S    
C10   O4    A    
Cu1   N2    S    
C4    C18   S    
C14   N1    T    
C19   Cl4   S    
C3    C10   S    
C20   H6    S    
C21   C22   T    
C11   O5    A    
Cu2   O2    S    
C7    H2    S    
C4    C7    S    
Cu1   O5    S    
C4    C17   S    
C12   C21   S    
C17   C19   S    
C5    C19   S    
Cu1   O1    S    
C10   O3    A    
C5    C6    S    
C17   H7    S    
C6    H4    S    
C17   Cl2   S    
C18   H8    S    
C2    C11   S    
C11   O6    A    
C19   H5    S    
C16   O8    A    
C1    C13   S    
C12   C13   T    
C1    O1    A    
C5    C20   S    
C14   C15   S    
C16   C22   S    
Cu2   O6    S    
C4    C9    S    
C18   Cl1   S    
C16   O7    A    
C2    C8    T    
C20   Cl3   S    
C1    O2    A    
C7    H1    S    
