data_mof_unit_pretest_422.cif
_audit_creation_date              2012-12-10T17:48:54-0500
_audit_creation_method            fapswitch 2.2
_symmetry_space_group_name_H-M    P1
_symmetry_Int_Tables_number       1
_space_group_crystal_system       triclinic
_cell_length_a                    10.739543
_cell_length_b                    14.694706
_cell_length_c                    14.733165
_cell_angle_alpha                 65.192491
_cell_angle_beta                  103.42047
_cell_angle_gamma                 102.829868
_cell_volume                      2032.34831574

loop_
_atom_site_label
_atom_site_type_symbol
_atom_type_description
_atom_site_fract_x
_atom_site_fract_y
_atom_site_fract_z
_atom_type_partial_charge
C1    C     C_R   0.478160 0.119597 0.312335 0.835989
C2    C     C_R   0.497643 0.359605 0.077869 0.039639
C3    C     C_R   0.472342 0.319654 0.001562 0.071821
C4    C     C_R   0.260296 0.001108 0.499083 0.849698
C5    C     C_R   0.526971 0.466191 0.051648 0.070536
C6    C     C_R   0.518526 0.532289 0.947856 0.008372
C7    C     C_R   0.495077 0.489878 0.874127 -0.244037
C8    C     C_R   0.472540 0.385871 0.900007 0.354784
C9    C     C_R   0.567730 0.508827 0.125890 -0.157251
C10   C     C_R   0.592450 0.612772 0.099210 -0.183754
C11   C     C_R   0.576027 0.678357 0.997992 0.158986
C12   C     C_3   0.878343 0.998187 0.501379 -0.004875
C13   C     C_R   0.536947 0.638963 0.921282 0.115329
C14   C     C_R   0.598436 0.783341 0.972640 -0.169368
C15   C     C_R   0.581387 0.850141 0.871628 -0.167758
C16   C     C_R   0.522183 0.880325 0.687665 0.816982
C17   C     C_R   0.515013 0.707920 0.820451 -0.213817
C18   C     C_R   0.717951 0.286575 0.666172 -0.273805
C19   C     C_R   0.683742 0.204246 0.637565 0.084645
C20   C     C_R   0.518027 0.284716 0.509413 0.016856
C21   C     C_R   0.548606 0.371621 0.534238 0.015095
C22   C     C_R   0.650535 0.370166 0.615211 0.171552
C23   C     C_3   0.929735 0.904162 0.591835 0.192217
C24   C     C_R   0.481879 0.458650 0.482855 0.020650
C25   C     C_R   0.516859 0.541583 0.515250 0.077077
C26   C     C_R   0.617842 0.534851 0.597700 -0.143743
C27   C     C_R   0.683803 0.451471 0.645633 -0.111060
C28   C     C_R   0.740177 0.999113 0.500834 0.813840
C29   C     C_R   0.382072 0.465590 0.399937 -0.269202
C30   C     C_R   0.316499 0.549339 0.350423 0.381535
C31   C     C_R   0.348901 0.630975 0.381676 0.067599
C32   C     C_R   0.449913 0.628470 0.464000 -0.071977
C33   C     C_R   0.282714 0.715804 0.331554 -0.242374
C34   C     C_3   0.961464 0.095349 0.512926 -0.435437
C35   C     C_R   0.317200 0.797136 0.361561 0.054977
C36   C     C_R   0.480101 0.714381 0.490528 0.059422
C37   C     C_3   0.039067 0.997916 0.399383 0.207644
C38   C     C_3   0.895471 0.998387 0.399646 -0.369873
C39   C     C_3   0.074019 0.904672 0.589887 -0.266329
C40   C     C_3   0.104311 0.097121 0.512389 -0.348601
C41   C     C_3   0.122856 0.001001 0.500341 -0.039456
C42   C     C_1   0.153667 0.896512 0.688796 0.235335
C43   C     C_R   0.470698 0.186762 0.204881 -0.033063
C44   C     C_R   0.539238 0.812523 0.795060 -0.046681
C45   C     C_R   0.447926 0.213995 0.028753 -0.118263
C46   C     C_R   0.448615 0.148249 0.129606 -0.185871
C47   C     C_R   0.490975 0.291328 0.178313 -0.182602
Cl1   Cl    Cl    0.443000 0.342363 0.800904 -0.652494
Cl2   Cl    Cl    0.094073 0.100087 0.289564 -0.639247
Cl3   Cl    Cl    0.193814 0.548234 0.247522 -0.607779
Cl4   Cl    Cl    0.838233 0.785583 0.592643 -0.691790
Cu1   Cu    Cu3+1 0.465900 0.918260 0.475680 0.975370
Cu2   Cu    Cu3+1 0.534100 0.081740 0.524320 0.956630
H1    H     H_    0.047017 0.926766 0.392723 0.137437
H2    H     H_    0.497592 0.535479 0.795026 0.172089
H3    H     H_    0.585851 0.464188 0.205889 0.140291
H4    H     H_    0.629518 0.813746 0.031054 0.143377
H5    H     H_    0.760947 0.450149 0.708272 0.159531
H6    H     H_    0.555840 0.719591 0.550920 0.165378
H7    H     H_    0.266857 0.862568 0.322123 0.147135
H8    H     H_    0.796186 0.284662 0.728207 0.152776
H9    H     H_    0.735069 0.139376 0.677210 0.124350
H10   H     H_    0.440263 0.277784 0.450760 0.129970
H11   H     H_    0.859105 0.066035 0.336092 0.199745
H12   H     H_    0.951710 0.098499 0.585154 0.182260
H13   H     H_    0.648627 0.592822 0.627837 0.171664
H14   H     H_    0.352551 0.406905 0.370627 0.171785
H15   H     H_    0.204965 0.720572 0.268827 0.201043
H16   H     H_    0.836418 0.930892 0.387288 0.197124
H17   H     H_    0.083994 0.836903 0.577855 0.190347
H18   H     H_    0.162211 0.101223 0.584114 0.192070
H19   H     H_    0.138904 0.166883 0.449668 0.229538
H20   H     H_    0.927220 0.164289 0.449952 0.216489
H21   H     H_    0.918623 0.908482 0.663238 0.124087
H22   H     H_    0.476031 0.682022 0.759954 0.154494
H23   H     H_    0.600509 0.930879 0.853585 0.161337
H24   H     H_    0.623824 0.641996 0.158538 0.149365
H25   H     H_    0.429427 0.181080 0.972765 0.195700
H26   H     H_    0.432220 0.067358 0.148565 0.160943
H27   H     H_    0.499298 0.317604 0.237733 0.147262
N1    N     N_R   0.585360 0.204570 0.560800 -0.183686
N2    N     N_R   0.414550 0.795430 0.439160 -0.187157
N3    N     N_1   0.216147 0.890117 0.766088 -0.252648
O1    O     O_R   0.455060 0.022100 0.338110 -0.585742
O2    O     O_R   0.512640 0.160150 0.379180 -0.594086
O3    O     O_R   0.288900 0.930980 0.479450 -0.594403
O4    O     O_R   0.346480 0.069030 0.520520 -0.579407
O5    O     O_R   0.487360 0.839850 0.620820 -0.587188
O6    O     O_R   0.544940 0.977900 0.661890 -0.589041
O7    O     O_R   0.653520 0.930970 0.479480 -0.541631
O8    O     O_R   0.711100 0.069020 0.520550 -0.604671

loop_
_geom_bond_atom_site_label_1
_geom_bond_atom_site_label_2
_ccdc_geom_bond_type
C40   H18   S    
Cu1   O7    S    
C7    H2    S    
C36   H6    S    
C7    C8    A    
C39   C41   S    
C4    O4    A    
C45   C46   A    
C1    O1    A    
C12   C23   S    
C26   C27   A    
C37   C38   S    
C12   C28   S    
C34   C40   S    
C5    C6    A    
C32   C36   A    
C15   C44   A    
C46   H26   S    
C11   C14   A    
C4    O3    A    
C4    C41   S    
C19   H9    S    
Cu2   N1    S    
C18   C19   A    
Cu1   O1    S    
C24   C29   A    
C20   N1    A    
C29   H14   S    
C35   N2    A    
C36   N2    A    
Cu2   O8    S    
C31   C33   A    
C45   H25   S    
C9    C10   A    
C16   C44   S    
C25   C32   A    
C15   H23   S    
C30   Cl3   S    
C38   H16   S    
C16   O6    A    
C21   C22   A    
C37   C41   S    
C47   H27   S    
C34   H12   S    
C10   H24   S    
C1    C43   S    
C39   C42   S    
C38   H11   S    
C1    O2    A    
C26   H13   S    
Cu1   O5    S    
C24   C25   A    
C3    C8    A    
C25   C26   A    
C3    C45   A    
C35   H7    S    
C8    Cl1   S    
C5    C9    A    
C29   C30   A    
C37   Cl2   S    
C23   Cl4   S    
C31   C32   A    
Cu2   O4    S    
C9    H3    S    
Cu1   N2    S    
C37   H1    S    
C40   C41   S    
C22   C27   A    
Cu2   O6    S    
C2    C5    A    
C23   H21   S    
C12   C34   S    
Cu1   Cu2   S    
C17   H22   S    
C14   H4    S    
C40   H19   S    
C18   C22   A    
C42   N3    T    
C27   H5    S    
C28   O7    A    
C18   H8    S    
C6    C7    A    
C2    C47   A    
C13   C17   A    
C20   H10   S    
Cu1   O3    S    
C2    C3    A    
C17   C44   A    
C6    C13   A    
C11   C13   A    
C30   C31   A    
C23   C39   S    
C33   C35   A    
C39   H17   S    
C28   O8    A    
C12   C38   S    
C43   C46   A    
C10   C11   A    
C34   H20   S    
C20   C21   A    
C21   C24   A    
C16   O5    A    
C14   C15   A    
Cu2   O2    S    
C19   N1    A    
C43   C47   A    
C33   H15   S    
