data_mof_unit_pretest_935.cif
_audit_creation_date              2012-12-10T19:04:10-0500
_audit_creation_method            fapswitch 2.2
_symmetry_space_group_name_H-M    P1
_symmetry_Int_Tables_number       1
_space_group_crystal_system       triclinic
_cell_length_a                    10.637559
_cell_length_b                    10.854367
_cell_length_c                    9.54689
_cell_angle_alpha                 90.024926
_cell_angle_beta                  90.530751
_cell_angle_gamma                 90.296775
_cell_volume                      1102.25960473

loop_
_atom_site_label
_atom_site_type_symbol
_atom_type_description
_atom_site_fract_x
_atom_site_fract_y
_atom_site_fract_z
_atom_type_partial_charge
C1    C     C_R   0.500158 0.262749 0.499842 0.844534
C2    C     C_3   0.957161 0.597705 0.432253 -0.196407
C3    C     C_3   0.039631 0.496685 0.365307 -0.191840
C4    C     C_3   0.122767 0.498552 0.497695 0.010646
C5    C     C_R   0.509570 0.062289 0.620821 0.072146
C6    C     C_R   0.500380 0.130184 0.498161 -0.092754
C7    C     C_R   0.491563 0.064548 0.370715 -0.187317
C8    C     C_R   0.491670 0.935368 0.370763 -0.214601
C9    C     C_R   0.500428 0.869936 0.498271 -0.086494
C10   C     C_R   0.509178 0.938084 0.620922 0.127543
C11   C     C_3   0.522635 0.928663 0.776247 -0.526443
C12   C     C_R   0.259396 0.499716 0.499273 0.792022
C13   C     C_3   0.522521 0.071041 0.776435 -0.218309
C14   C     C_R   0.567081 0.586813 0.074448 0.249332
C15   C     C_R   0.424768 0.421906 0.073613 -0.037167
C16   C     C_R   0.424627 0.422016 0.924716 -0.013171
C17   C     C_R   0.567219 0.586650 0.927010 0.249829
C18   C     C_3   0.705983 0.605642 0.923281 -0.496931
C19   C     C_3   0.705712 0.607030 0.081997 -0.493074
C20   C     C_R   0.500393 0.737292 0.499871 0.795955
C21   C     C_R   0.740656 0.498706 0.500567 0.850188
C22   C     C_3   0.043971 0.396974 0.566360 -0.200232
C23   C     C_3   0.958674 0.396491 0.435128 0.023665
C24   C     C_3   0.877505 0.496437 0.501053 -0.048642
C25   C     C_3   0.961547 0.498176 0.632840 -0.150178
C26   C     C_3   0.042834 0.599606 0.564150 -0.138927
Cu1   Cu    Cu3+1 0.499990 0.499980 0.640670 0.957645
Cu2   Cu    Cu3+1 0.500010 0.500020 0.359330 0.967696
H1    H     H_    0.613261 0.885996 0.808081 0.208258
H2    H     H_    0.438095 0.111432 0.826284 0.137812
H3    H     H_    0.365912 0.356874 0.128839 0.136803
H4    H     H_    0.365727 0.357008 0.868238 0.127770
H5    H     H_    0.755560 0.524449 0.880470 0.217121
H6    H     H_    0.732524 0.695631 0.876379 0.193591
H7    H     H_    0.757246 0.527821 0.128296 0.229570
H8    H     H_    0.730428 0.698445 0.127310 0.191364
H9    H     H_    0.082165 0.314638 0.620690 0.146565
H10   H     H_    0.929960 0.498318 0.743010 0.141282
H11   H     H_    0.080508 0.683271 0.617060 0.138153
H12   H     H_    0.918948 0.679863 0.377614 0.146184
H13   H     H_    0.073691 0.495684 0.255717 0.149903
H14   H     H_    0.484445 0.112239 0.271335 0.177506
H15   H     H_    0.484674 0.887512 0.271391 0.166565
H16   H     H_    0.437903 0.887411 0.825232 0.191652
N1    N     N_R   0.500800 0.500930 0.147930 -0.186309
N2    N     N_R   0.500800 0.500890 0.852020 -0.183979
O1    O     O_R   0.500000 0.319640 0.618810 -0.588526
O2    O     O_R   0.500010 0.319680 0.381230 -0.563590
O3    O     O_R   0.316850 0.499950 0.618770 -0.593683
O4    O     O_R   0.316860 0.499990 0.381190 -0.590604
O5    O     O_R   0.499990 0.680320 0.618770 -0.582354
O6    O     O_R   0.500000 0.680360 0.381190 -0.593786
O7    O     O_R   0.683140 0.500010 0.618810 -0.586824
O8    O     O_R   0.683150 0.500050 0.381230 -0.564096
C27   C     C_2   0.915185 0.280967 0.362983 0.822433
O9    O     O_2   0.992748 0.211401 0.312878 -0.600216
O10   O     O_R   0.787129 0.252794 0.353783 -0.755426
H17   H     H_    0.770051 0.172410 0.302773 0.338989
C28   C     C_2   0.644867 0.129164 0.823546 0.913960
O11   O     O_2   0.744321 0.098307 0.770857 -0.592630
O12   O     O_R   0.643535 0.219356 0.927962 -0.771420
H18   H     H_    0.730497 0.253002 0.950453 0.329249

loop_
_geom_bond_atom_site_label_1
_geom_bond_atom_site_label_2
_ccdc_geom_bond_type
C12   O4    A    
C23   C24   S    
Cu1   O7    S    
C1    O2    A    
C23   C27   S    
C6    C7    A    
C13   C28   S    
C2    H12   S    
C25   H10   S    
C16   H4    S    
Cu2   O6    S    
C9    C10   A    
C9    C20   S    
C4    C26   S    
C8    H15   S    
C21   O8    A    
C27   O9    D    
C5    C13   S    
C17   C18   S    
C21   C24   S    
C28   O11   D    
C2    C26   S    
C19   H7    S    
C24   C25   S    
C15   H3    S    
C11   C13   S    
C14   C17   A    
O10   H17   S    
C5    C6    A    
C18   H6    S    
Cu1   O3    S    
C21   O7    A    
Cu1   N2    S    
C3    H13   S    
Cu1   O5    S    
C2    C3    S    
C20   O5    A    
C19   H8    S    
C27   O10   S    
C2    C24   S    
O12   H18   S    
C26   H11   S    
C18   H5    S    
Cu2   N1    S    
C28   O12   S    
C12   O3    A    
C4    C12   S    
C10   C11   S    
C15   N1    A    
Cu1   O1    S    
C15   C16   A    
C11   H16   S    
C13   H2    S    
C5    C10   A    
C4    C22   S    
C17   N2    A    
C11   H1    S    
C20   O6    A    
C7    C8    A    
C7    H14   S    
C16   N2    A    
Cu1   Cu2   S    
C18   C19   S    
Cu2   O8    S    
C22   C23   S    
Cu2   O2    S    
C3    C23   S    
C14   N1    A    
C25   C26   S    
C22   H9    S    
Cu2   O4    S    
C14   C19   S    
C1    O1    A    
C3    C4    S    
C1    C6    S    
C8    C9    A    
C22   C25   S    
