data_mof_unit_pretest_725.cif
_audit_creation_date              2012-12-10T17:47:04-0500
_audit_creation_method            fapswitch 2.2
_symmetry_space_group_name_H-M    P1
_symmetry_Int_Tables_number       1
_space_group_crystal_system       triclinic
_cell_length_a                    9.937719
_cell_length_b                    10.629236
_cell_length_c                    13.626175
_cell_angle_alpha                 92.056277
_cell_angle_beta                  83.519062
_cell_angle_gamma                 91.176093
_cell_volume                      1429.02198173

loop_
_atom_site_label
_atom_site_type_symbol
_atom_type_description
_atom_site_fract_x
_atom_site_fract_y
_atom_site_fract_z
_atom_type_partial_charge
C1    C     C_R   0.503888 0.736607 0.482284 0.916966
C2    C     C_R   0.630286 0.937640 0.460212 -0.031710
C3    C     C_R   0.620986 0.064191 0.483736 -0.292365
C4    C     C_R   0.476211 0.500904 0.685477 0.876229
C5    C     C_R   0.494765 0.122350 0.498677 -0.092582
C6    C     C_R   0.845148 0.671126 0.625038 -0.262237
C7    C     C_R   0.907238 0.757483 0.686036 -0.011901
C8    C     C_R   0.047075 0.754613 0.687202 -0.167712
C9    C     C_R   0.123905 0.667696 0.627545 -0.188430
C10   C     C_R   0.064527 0.583105 0.562493 0.161764
C11   C     C_R   0.920419 0.583898 0.561844 0.186111
C12   C     C_1   0.458749 0.504399 0.789178 -0.174190
C13   C     C_R   0.934322 0.420582 0.440421 -0.070578
C14   C     C_R   0.077631 0.419955 0.439115 0.002622
C15   C     C_R   0.497519 0.258702 0.503861 0.878143
C16   C     C_R   0.523813 0.499262 0.314515 0.906241
C17   C     C_1   0.541459 0.499478 0.210907 -0.154298
C18   C     C_2   0.558297 0.501190 0.019411 -0.147454
C19   C     C_2   0.442429 0.510249 0.980846 -0.164739
C20   C     C_1   0.446834 0.507590 0.876933 0.025178
C21   C     C_1   0.553595 0.500119 0.123233 0.020001
C22   C     C_2   0.823776 0.849576 0.748742 0.400914
C23   C     C_R   0.275580 0.870863 0.405348 0.559634
C24   C     C_2   0.153638 0.329706 0.369177 0.409874
C25   C     C_2   0.767558 0.884666 0.440283 0.448406
C26   C     C_3   0.352314 0.795909 0.251556 -0.290749
C27   C     C_R   0.147303 0.922841 0.425238 -0.181539
C28   C     C_R   0.129487 0.032895 0.483140 -0.203826
C29   C     C_R   0.241603 0.097433 0.513953 -0.172517
C30   C     C_R   0.374159 0.051861 0.487322 0.032023
C31   C     C_R   0.387287 0.929120 0.447067 -0.056806
C32   C     C_R   0.509993 0.867306 0.454055 -0.131255
H1    H     H_    0.345659 0.517971 0.026474 0.168399
H2    H     H_    0.883632 0.356520 0.392532 0.188347
H3    H     H_    0.714809 0.850014 0.747045 0.048648
H4    H     H_    0.261327 0.321479 0.365122 0.143038
H5    H     H_    0.847861 0.922216 0.480815 0.022909
H6    H     H_    0.460196 0.823753 0.254956 0.168649
H7    H     H_    0.297370 0.872136 0.219595 0.173272
H8    H     H_    0.350266 0.712262 0.200684 0.197286
H9    H     H_    0.737817 0.674669 0.629074 0.196359
H10   H     H_    0.097497 0.819199 0.734977 0.190468
H11   H     H_    0.229410 0.669170 0.634949 0.208221
H12   H     H_    0.655014 0.493039 0.973776 0.171846
H13   H     H_    0.061782 0.876493 0.396145 0.188273
H14   H     H_    0.029229 0.070638 0.501988 0.160614
H15   H     H_    0.221519 0.180321 0.560952 0.179147
H16   H     H_    0.714371 0.117738 0.488061 0.169225
N1    N     N_R   0.857120 0.501200 0.500900 -0.126887
N2    N     N_R   0.142720 0.501280 0.500940 -0.153704
O1    O     O_R   0.385310 0.683220 0.500000 -0.606687
O2    O     O_2   0.095047 0.260826 0.313523 -0.594202
O3    O     O_2   0.793000 0.802765 0.376069 -0.545715
O4    O     O_3   0.289283 0.763119 0.345291 -0.588766
O5    O     O_R   0.614640 0.683250 0.500010 -0.617715
O6    O     O_R   0.368830 0.499960 0.640340 -0.630917
O7    O     O_R   0.598160 0.499980 0.640350 -0.625551
O8    O     O_R   0.385360 0.316750 0.499990 -0.666729
O9    O     O_R   0.614690 0.316780 0.500000 -0.617854
O10   O     O_R   0.401840 0.500020 0.359650 -0.609651
O11   O     O_R   0.631170 0.500040 0.359660 -0.583461
O12   O     O_2   0.875315 0.926159 0.802741 -0.555070
Zn1   Zn    Zn3+2 0.346870 0.499980 0.499990 0.947356
Zn2   Zn    Zn3+2 0.653130 0.500020 0.500010 0.971631

loop_
_geom_bond_atom_site_label_1
_geom_bond_atom_site_label_2
_ccdc_geom_bond_type
C4    O7    A    
C24   O2    D    
O11   Zn2   S    
C22   O12   D    
C6    C7    A    
C11   N1    A    
C18   H12   S    
C4    C12   S    
C7    C22   S    
C9    C10   A    
C31   C32   A    
C26   H8    S    
O5    Zn2   S    
C27   H13   S    
C2    C3    A    
C1    O5    A    
O6    Zn1   S    
C13   H2    S    
N1    Zn2   S    
C14   N2    A    
C13   C14   A    
C4    O6    A    
C18   C21   S    
C22   H3    S    
C1    O1    A    
C28   H14   S    
O9    Zn2   S    
C24   H4    S    
C12   C20   T    
C29   H15   S    
O10   Zn1   S    
C13   N1    A    
C26   O4    S    
C28   C29   A    
C8    H10   S    
C18   C19   D    
C2    C25   S    
N2    Zn1   S    
C23   C27   A    
C16   O10   A    
C30   C31   A    
C23   O4    S    
C15   O8    A    
C26   H7    S    
C9    H11   S    
C5    C15   S    
C10   C11   A    
C29   C30   A    
C10   N2    A    
C3    C5    A    
C3    H16   S    
C6    C11   A    
O1    Zn1   S    
O7    Zn2   S    
C2    C32   A    
C5    C30   A    
C19   H1    S    
C14   C24   S    
O8    Zn1   S    
C7    C8    A    
C26   H6    S    
C16   O11   A    
C15   O9    A    
C1    C32   S    
C17   C21   T    
C25   O3    D    
C19   C20   S    
C16   C17   S    
C25   H5    S    
C8    C9    A    
C27   C28   A    
C6    H9    S    
C23   C31   A    
