data_mof_unit_pretest_1902.cif
_audit_creation_date              2012-12-10T20:17:11-0500
_audit_creation_method            fapswitch 2.2
_symmetry_space_group_name_H-M    P1
_symmetry_Int_Tables_number       1
_space_group_crystal_system       triclinic
_cell_length_a                    35.494379
_cell_length_b                    35.49438
_cell_length_c                    23.540141
_cell_angle_alpha                 90.000033
_cell_angle_beta                  90.000011
_cell_angle_gamma                 90.000011
_cell_volume                      29657.0696161

loop_
_atom_site_label
_atom_site_type_symbol
_atom_type_description
_atom_site_fract_x
_atom_site_fract_y
_atom_site_fract_z
_atom_type_partial_charge
C1    C     C_R   0.999999 0.426540 0.499672 0.866631
C2    C     C_R   0.426540 0.000001 0.499672 0.866631
C3    C     C_R   0.000001 0.573460 0.499672 0.866631
C4    C     C_R   0.573460 0.999999 0.499672 0.866631
C5    C     C_R   0.499999 0.926540 0.999672 0.866631
C6    C     C_R   0.926540 0.500001 0.999672 0.866631
C7    C     C_R   0.500001 0.073460 0.999672 0.866631
C8    C     C_R   0.073460 0.499999 0.999672 0.866631
C9    C     C_1   0.999626 0.266816 0.493782 -0.095628
C10   C     C_1   0.266816 0.000374 0.493782 -0.095628
C11   C     C_1   0.000374 0.733184 0.493782 -0.095629
C12   C     C_1   0.733184 0.999626 0.493782 -0.095630
C13   C     C_1   0.499626 0.766816 0.993782 -0.095629
C14   C     C_1   0.766816 0.500374 0.993782 -0.095629
C15   C     C_1   0.500374 0.233184 0.993782 -0.095629
C16   C     C_1   0.233184 0.499626 0.993782 -0.095629
C17   C     C_R   0.965714 0.326361 0.493156 -0.166439
C18   C     C_R   0.326361 0.034285 0.493156 -0.166440
C19   C     C_R   0.034285 0.673639 0.493157 -0.166440
C20   C     C_R   0.673639 0.965715 0.493156 -0.166439
C21   C     C_R   0.034039 0.326153 0.496461 -0.163778
C22   C     C_R   0.673847 0.034039 0.496460 -0.163778
C23   C     C_R   0.965961 0.673847 0.496460 -0.163779
C24   C     C_R   0.326153 0.965961 0.496461 -0.163777
C25   C     C_R   0.465714 0.826361 0.993156 -0.166440
C26   C     C_R   0.826361 0.534285 0.993156 -0.166439
C27   C     C_R   0.534285 0.173639 0.993156 -0.166440
C28   C     C_R   0.173639 0.465714 0.993156 -0.166440
C29   C     C_R   0.534039 0.826153 0.996461 -0.163779
C30   C     C_R   0.173847 0.534039 0.996461 -0.163779
C31   C     C_R   0.465961 0.173847 0.996460 -0.163778
C32   C     C_R   0.826153 0.465961 0.996460 -0.163779
C33   C     C_R   0.965731 0.365522 0.495226 -0.196263
C34   C     C_R   0.365522 0.034269 0.495227 -0.196263
C35   C     C_R   0.034269 0.634478 0.495227 -0.196263
C36   C     C_R   0.634478 0.965731 0.495227 -0.196263
C37   C     C_R   0.034155 0.365335 0.498463 -0.197480
C38   C     C_R   0.634665 0.034155 0.498462 -0.197479
C39   C     C_R   0.965845 0.634665 0.498462 -0.197479
C40   C     C_R   0.365335 0.965845 0.498462 -0.197480
C41   C     C_R   0.465731 0.865522 0.995227 -0.196263
C42   C     C_R   0.865522 0.534269 0.995227 -0.196264
C43   C     C_R   0.534269 0.134478 0.995227 -0.196263
C44   C     C_R   0.134478 0.465731 0.995226 -0.196263
C45   C     C_R   0.534155 0.865335 0.998463 -0.197479
C46   C     C_R   0.134665 0.534155 0.998463 -0.197480
C47   C     C_R   0.465845 0.134665 0.998463 -0.197480
C48   C     C_R   0.865335 0.465845 0.998462 -0.197479
C49   C     C_R   0.999970 0.385300 0.497983 -0.038454
C50   C     C_R   0.385300 0.000030 0.497983 -0.038454
C51   C     C_R   0.000030 0.614699 0.497983 -0.038455
C52   C     C_R   0.614699 0.999970 0.497983 -0.038454
C53   C     C_R   0.499970 0.885301 0.997983 -0.038454
C54   C     C_R   0.885301 0.500030 0.997983 -0.038454
C55   C     C_R   0.500030 0.114699 0.997983 -0.038454
C56   C     C_R   0.114699 0.499970 0.997983 -0.038454
C57   C     C_R   0.999836 0.306823 0.493819 0.158714
C58   C     C_R   0.306823 0.000164 0.493820 0.158714
C59   C     C_R   0.000164 0.693177 0.493820 0.158714
C60   C     C_R   0.693177 0.999836 0.493819 0.158713
C61   C     C_R   0.499836 0.806823 0.993820 0.158714
C62   C     C_R   0.806823 0.500164 0.993819 0.158714
C63   C     C_R   0.500164 0.193177 0.993819 0.158714
C64   C     C_R   0.193177 0.499836 0.993819 0.158714
C65   C     C_R   0.926688 0.000178 0.500109 0.994529
C66   C     C_R   0.000178 0.073312 0.500109 0.994531
C67   C     C_R   0.073312 0.999822 0.500109 0.994531
C68   C     C_R   0.999822 0.926688 0.500109 0.994532
C69   C     C_R   0.426688 0.500178 0.000109 0.994531
C70   C     C_R   0.500178 0.573312 0.000109 0.994529
C71   C     C_R   0.573312 0.499822 0.000109 0.994531
C72   C     C_R   0.499822 0.426688 0.000109 0.994529
C73   C     C_R   0.000000 0.500000 0.609459 0.913666
C74   C     C_R   0.500000 0.000000 0.609459 0.913666
C75   C     C_R   1.000000 0.500000 0.390541 0.912725
C76   C     C_R   0.500000 1.000000 0.390541 0.912725
C77   C     C_R   0.500000 1.000000 0.109459 0.913666
C78   C     C_R   0.000000 0.500000 0.109459 0.913666
C79   C     C_R   0.500000 0.000000 0.890541 0.912725
C80   C     C_R   0.000000 0.500000 0.890541 0.912725
C81   C     C_1   0.000000 0.500000 0.669633 -0.193890
C82   C     C_1   0.500000 0.000000 0.669633 -0.193890
C83   C     C_1   0.000000 0.500000 0.330367 -0.193178
C84   C     C_1   0.500000 1.000000 0.330367 -0.193178
C85   C     C_1   0.500000 1.000000 0.169633 -0.193890
C86   C     C_1   0.000000 0.500000 0.169633 -0.193890
C87   C     C_1   0.500000 0.000000 0.830368 -0.193178
C88   C     C_1   0.000000 0.500000 0.830368 -0.193177
C89   C     C_1   1.000000 0.500000 0.720384 0.005510
C90   C     C_1   0.500000 0.000000 0.720384 0.005510
C91   C     C_1   1.000000 0.500000 0.279616 0.005527
C92   C     C_1   0.500000 1.000000 0.279616 0.005527
C93   C     C_1   0.500000 1.000000 0.220384 0.005510
C94   C     C_1   0.000000 0.500000 0.220384 0.005510
C95   C     C_1   0.500000 0.000000 0.779616 0.005527
C96   C     C_1   0.000000 0.500000 0.779616 0.005527
C97   C     C_R   0.975084 0.172726 0.460354 0.109987
C98   C     C_R   0.172726 0.024915 0.460354 0.109988
C99   C     C_R   0.024915 0.827274 0.460354 0.109988
C100  C     C_R   0.827274 0.975085 0.460353 0.109987
C101  C     C_R   0.020944 0.174208 0.538197 0.118316
C102  C     C_R   0.825791 0.020944 0.538197 0.118314
C103  C     C_R   0.979056 0.825792 0.538197 0.118315
C104  C     C_R   0.174209 0.979056 0.538197 0.118315
C105  C     C_R   0.475085 0.672726 0.960354 0.109987
C106  C     C_R   0.672726 0.524915 0.960354 0.109987
C107  C     C_R   0.524915 0.327274 0.960354 0.109986
C108  C     C_R   0.327274 0.475085 0.960354 0.109988
C109  C     C_R   0.520944 0.674209 0.038197 0.118315
C110  C     C_R   0.325791 0.520944 0.038197 0.118315
C111  C     C_R   0.479056 0.325791 0.038197 0.118315
C112  C     C_R   0.674208 0.479056 0.038197 0.118315
C113  C     C_R   0.974824 0.133350 0.462642 0.366402
C114  C     C_R   0.133350 0.025175 0.462641 0.366403
C115  C     C_R   0.025175 0.866650 0.462641 0.366401
C116  C     C_R   0.866650 0.974825 0.462641 0.366403
C117  C     C_R   0.021223 0.134680 0.539538 0.350282
C118  C     C_R   0.865319 0.021223 0.539538 0.350280
C119  C     C_R   0.978777 0.865319 0.539538 0.350282
C120  C     C_R   0.134680 0.978777 0.539538 0.350284
C121  C     C_R   0.474825 0.633350 0.962641 0.366403
C122  C     C_R   0.633350 0.525175 0.962641 0.366403
C123  C     C_R   0.525175 0.366650 0.962641 0.366403
C124  C     C_R   0.366650 0.474825 0.962641 0.366402
C125  C     C_R   0.521223 0.634680 0.039538 0.350281
C126  C     C_R   0.365319 0.521223 0.039538 0.350281
C127  C     C_R   0.478777 0.365319 0.039538 0.350282
C128  C     C_R   0.634680 0.478777 0.039538 0.350283
C129  C     C_R   0.998887 0.114410 0.500620 -0.362767
C130  C     C_R   0.114411 0.001113 0.500620 -0.362767
C131  C     C_R   0.001113 0.885589 0.500620 -0.362767
C132  C     C_R   0.885589 0.998887 0.500620 -0.362770
C133  C     C_R   0.498887 0.614410 0.000620 -0.362768
C134  C     C_R   0.614411 0.501113 0.000620 -0.362768
C135  C     C_R   0.501113 0.385589 0.000620 -0.362769
C136  C     C_R   0.385589 0.498887 0.000620 -0.362768
C137  C     C_R   0.998237 0.193016 0.498050 -0.117646
C138  C     C_R   0.193016 0.001763 0.498050 -0.117646
C139  C     C_R   0.001763 0.806984 0.498050 -0.117646
C140  C     C_R   0.806984 0.998237 0.498049 -0.117646
C141  C     C_R   0.498237 0.693016 0.998050 -0.117646
C142  C     C_R   0.693016 0.501763 0.998049 -0.117646
C143  C     C_R   0.501763 0.306984 0.998049 -0.117645
C144  C     C_R   0.306984 0.498237 0.998049 -0.117646
C145  C     C_1   0.999145 0.233179 0.495094 0.011328
C146  C     C_1   0.233179 0.000854 0.495094 0.011329
C147  C     C_1   0.000854 0.766821 0.495094 0.011330
C148  C     C_1   0.766821 0.999146 0.495094 0.011333
C149  C     C_1   0.499146 0.733179 0.995094 0.011331
C150  C     C_1   0.733179 0.500854 0.995094 0.011331
C151  C     C_1   0.500854 0.266821 0.995094 0.011330
C152  C     C_1   0.266821 0.499146 0.995094 0.011330
H1    H     H_    0.939162 0.311329 0.491380 0.130781
H2    H     H_    0.311329 0.060838 0.491380 0.130781
H3    H     H_    0.060838 0.688671 0.491380 0.130781
H4    H     H_    0.688671 0.939163 0.491379 0.130781
H5    H     H_    0.060515 0.310955 0.497295 0.132291
H6    H     H_    0.689045 0.060515 0.497295 0.132290
H7    H     H_    0.939485 0.689045 0.497294 0.132291
H8    H     H_    0.310955 0.939485 0.497295 0.132290
H9    H     H_    0.439162 0.811329 0.991380 0.130781
H10   H     H_    0.811329 0.560837 0.991380 0.130781
H11   H     H_    0.560838 0.188671 0.991380 0.130781
H12   H     H_    0.188671 0.439162 0.991379 0.130781
H13   H     H_    0.560515 0.810955 0.997295 0.132291
H14   H     H_    0.189045 0.560515 0.997295 0.132291
H15   H     H_    0.439485 0.189045 0.997295 0.132290
H16   H     H_    0.810955 0.439485 0.997295 0.132291
H17   H     H_    0.939012 0.380248 0.494690 0.157839
H18   H     H_    0.380248 0.060988 0.494690 0.157839
H19   H     H_    0.060988 0.619752 0.494691 0.157839
H20   H     H_    0.619752 0.939012 0.494690 0.157839
H21   H     H_    0.060913 0.379930 0.500530 0.157766
H22   H     H_    0.620070 0.060914 0.500529 0.157766
H23   H     H_    0.939086 0.620070 0.500529 0.157766
H24   H     H_    0.379930 0.939086 0.500529 0.157766
H25   H     H_    0.439012 0.880248 0.994690 0.157839
H26   H     H_    0.880248 0.560988 0.994690 0.157839
H27   H     H_    0.560988 0.119752 0.994690 0.157839
H28   H     H_    0.119752 0.439012 0.994690 0.157839
H29   H     H_    0.560913 0.879930 0.000530 0.157766
H30   H     H_    0.120070 0.560913 0.000530 0.157766
H31   H     H_    0.439086 0.120070 0.000530 0.157766
H32   H     H_    0.879930 0.439086 0.000529 0.157766
O1    O     O_R   0.031300 0.444560 0.499980 -0.624319
O2    O     O_R   0.444560 0.968700 0.499980 -0.624319
O3    O     O_R   0.968700 0.555440 0.499980 -0.624319
O4    O     O_R   0.555440 0.031300 0.499980 -0.624319
O5    O     O_R   0.968700 0.444560 0.500020 -0.624539
O6    O     O_R   0.555440 0.968700 0.500020 -0.624539
O7    O     O_R   0.031300 0.555440 0.500020 -0.624539
O8    O     O_R   0.444560 0.031300 0.500020 -0.624540
O9    O     O_R   0.531300 0.944560 0.999980 -0.624319
O10   O     O_R   0.944560 0.468700 0.999980 -0.624319
O11   O     O_R   0.468700 0.055440 0.999980 -0.624319
O12   O     O_R   0.055440 0.531300 0.999980 -0.624319
O13   O     O_R   0.468700 0.944560 0.000020 -0.624539
O14   O     O_R   0.055440 0.468700 0.000020 -0.624539
O15   O     O_R   0.531300 0.055440 0.000020 -0.624539
O16   O     O_R   0.944560 0.531300 0.000020 -0.624540
O17   O     O_R   0.031300 0.500000 0.582760 -0.613241
O18   O     O_R   0.500000 0.968700 0.582760 -0.613241
O19   O     O_R   0.968700 0.500000 0.582760 -0.613241
O20   O     O_R   0.500000 0.031300 0.582760 -0.613241
O21   O     O_R   0.968700 0.500000 0.417240 -0.613757
O22   O     O_R   0.500000 0.968700 0.417240 -0.613757
O23   O     O_R   0.031300 0.500000 0.417240 -0.613758
O24   O     O_R   0.500000 0.031300 0.417240 -0.613758
O25   O     O_R   0.531300 0.000000 0.082760 -0.613241
O26   O     O_R   1.000000 0.468700 0.082760 -0.613241
O27   O     O_R   0.468700 0.000000 0.082760 -0.613241
O28   O     O_R   1.000000 0.531300 0.082760 -0.613241
O29   O     O_R   0.468700 0.000000 0.917240 -0.613757
O30   O     O_R   1.000000 0.468700 0.917240 -0.613757
O31   O     O_R   0.531300 0.000000 0.917240 -0.613758
O32   O     O_R   0.000000 0.531300 0.917240 -0.613758
O33   O     O_R   0.944690 0.999980 0.546690 -0.632186
O34   O     O_R   0.999980 0.055310 0.546690 -0.632187
O35   O     O_R   0.055310 0.000020 0.546690 -0.632188
O36   O     O_R   0.000020 0.944690 0.546690 -0.632188
O37   O     O_R   0.055310 0.999980 0.453310 -0.589542
O38   O     O_R   0.000020 0.055310 0.453310 -0.589542
O39   O     O_R   0.944690 0.000020 0.453310 -0.589541
O40   O     O_R   0.999980 0.944690 0.453310 -0.589542
O41   O     O_R   0.444690 0.499980 0.046690 -0.632188
O42   O     O_R   0.499980 0.555310 0.046690 -0.632186
O43   O     O_R   0.555310 0.500020 0.046690 -0.632187
O44   O     O_R   0.500020 0.444690 0.046690 -0.632187
O45   O     O_R   0.555310 0.499980 0.953310 -0.589542
O46   O     O_R   0.500020 0.555310 0.953310 -0.589541
O47   O     O_R   0.444690 0.500020 0.953310 -0.589542
O48   O     O_R   0.499980 0.444690 0.953310 -0.589541
Zn1   Zn    Zn3+2 0.041800 0.500000 0.500000 0.955396
Zn2   Zn    Zn3+2 0.500000 0.958200 0.500000 0.955396
Zn3   Zn    Zn3+2 0.958200 0.500000 0.500000 0.955396
Zn4   Zn    Zn3+2 0.500000 0.041800 0.500000 0.955396
Zn5   Zn    Zn3+2 0.541800 0.000000 0.000000 0.955396
Zn6   Zn    Zn3+2 0.000000 0.458200 0.000000 0.955396
Zn7   Zn    Zn3+2 0.458200 0.000000 0.000000 0.955396
Zn8   Zn    Zn3+2 1.000000 0.541800 0.000000 0.955396
Zn9   Zn    Zn3+2 0.000000 0.000000 0.562390 0.894394
Zn10  Zn    Zn3+2 0.000000 0.000000 0.437610 1.028366
Zn11  Zn    Zn3+2 0.500000 0.500000 0.062390 0.894395
Zn12  Zn    Zn3+2 0.500000 0.500000 0.937610 1.028366
N1    N     N_2   0.951480 0.191448 0.420295 -0.281672
H33   H     H_    0.940512 0.216783 0.433932 0.221405
C153  C     C_3   0.967004 0.193544 0.363596 -0.708956
H34   H     H_    0.993022 0.210973 0.363625 0.223299
H35   H     H_    0.946092 0.206664 0.334629 0.223409
H36   H     H_    0.973624 0.164916 0.347336 0.270936
N2    N     N_2   0.191449 0.048519 0.420295 -0.281673
H37   H     H_    0.216783 0.059487 0.433931 0.221406
C154  C     C_3   0.193544 0.032995 0.363595 -0.708955
H38   H     H_    0.210973 0.006977 0.363625 0.223299
H39   H     H_    0.206665 0.053906 0.334628 0.223408
H40   H     H_    0.164916 0.026375 0.347335 0.270936
N3    N     N_2   0.048519 0.808551 0.420295 -0.281673
H41   H     H_    0.059487 0.783217 0.433931 0.221406
C155  C     C_3   0.032995 0.806456 0.363595 -0.708957
H42   H     H_    0.006977 0.789027 0.363625 0.223299
H43   H     H_    0.053906 0.793335 0.334628 0.223409
H44   H     H_    0.026375 0.835083 0.347335 0.270935
N4    N     N_2   0.808551 0.951481 0.420294 -0.281673
H45   H     H_    0.783217 0.940513 0.433930 0.221406
C156  C     C_3   0.806456 0.967005 0.363594 -0.708956
H46   H     H_    0.789027 0.993024 0.363624 0.223299
H47   H     H_    0.793335 0.946095 0.334627 0.223409
H48   H     H_    0.835084 0.973626 0.347335 0.270936
N5    N     N_2   0.045388 0.194538 0.575135 -0.270790
H49   H     H_    0.063439 0.212520 0.554068 0.231539
C157  C     C_3   0.026979 0.212537 0.622896 -0.807274
H50   H     H_    0.012124 0.238482 0.609117 0.247414
H51   H     H_    0.048479 0.220463 0.654977 0.240495
H52   H     H_    0.006298 0.193266 0.643160 0.225869
N6    N     N_2   0.805462 0.045388 0.575136 -0.270790
H53   H     H_    0.787481 0.063440 0.554069 0.231538
C158  C     C_3   0.787462 0.026979 0.622896 -0.807264
H54   H     H_    0.761514 0.012128 0.609117 0.247411
H55   H     H_    0.779541 0.048478 0.654981 0.240493
H56   H     H_    0.806731 0.006293 0.643155 0.225868
N7    N     N_2   0.954611 0.805462 0.575135 -0.270790
H57   H     H_    0.936560 0.787480 0.554068 0.231538
C159  C     C_3   0.973021 0.787463 0.622896 -0.807271
H58   H     H_    0.987874 0.761517 0.609117 0.247412
H59   H     H_    0.951521 0.779539 0.654979 0.240494
H60   H     H_    0.993704 0.806733 0.643158 0.225869
N8    N     N_2   0.194538 0.954612 0.575136 -0.270790
H61   H     H_    0.212520 0.936561 0.554068 0.231539
C160  C     C_3   0.212537 0.973021 0.622896 -0.807278
H62   H     H_    0.238483 0.987876 0.609117 0.247414
H63   H     H_    0.220462 0.951522 0.654978 0.240496
H64   H     H_    0.193267 0.993703 0.643159 0.225870
N9    N     N_2   0.451481 0.691449 0.920294 -0.281673
H65   H     H_    0.440513 0.716783 0.933931 0.221406
C161  C     C_3   0.467005 0.693544 0.863595 -0.708955
H66   H     H_    0.493024 0.710973 0.863625 0.223299
H67   H     H_    0.446094 0.706665 0.834627 0.223409
H68   H     H_    0.473625 0.664916 0.847335 0.270935
N10   N     N_2   0.691449 0.548519 0.920295 -0.281672
H69   H     H_    0.716783 0.559488 0.933931 0.221406
C162  C     C_3   0.693544 0.532995 0.863595 -0.708956
H70   H     H_    0.710973 0.506977 0.863625 0.223299
H71   H     H_    0.706665 0.553906 0.834628 0.223409
H72   H     H_    0.664916 0.526375 0.847336 0.270935
N11   N     N_2   0.548519 0.308551 0.920294 -0.281672
H73   H     H_    0.559487 0.283217 0.933930 0.221405
C163  C     C_3   0.532995 0.306456 0.863595 -0.708951
H74   H     H_    0.506976 0.289027 0.863625 0.223298
H75   H     H_    0.553906 0.293335 0.834627 0.223408
H76   H     H_    0.526374 0.335084 0.847335 0.270934
N12   N     N_2   0.308551 0.451481 0.920295 -0.281673
H77   H     H_    0.283217 0.440512 0.933931 0.221406
C164  C     C_3   0.306456 0.467004 0.863595 -0.708957
H78   H     H_    0.289027 0.493023 0.863624 0.223299
H79   H     H_    0.293336 0.446093 0.834628 0.223409
H80   H     H_    0.335084 0.473624 0.847336 0.270936
N13   N     N_2   0.545388 0.694538 0.075136 -0.270790
H81   H     H_    0.563440 0.712519 0.054068 0.231538
C165  C     C_3   0.526979 0.712538 0.122896 -0.807269
H82   H     H_    0.512126 0.738484 0.109117 0.247412
H83   H     H_    0.548478 0.720460 0.154980 0.240494
H84   H     H_    0.506295 0.693268 0.143158 0.225869
N14   N     N_2   0.305462 0.545388 0.075135 -0.270790
H85   H     H_    0.287480 0.563440 0.054068 0.231539
C166  C     C_3   0.287462 0.526979 0.122896 -0.807271
H86   H     H_    0.261517 0.512126 0.109117 0.247413
H87   H     H_    0.279539 0.548479 0.154978 0.240494
H88   H     H_    0.306733 0.506296 0.143158 0.225869
N15   N     N_2   0.454612 0.305462 0.075135 -0.270790
H89   H     H_    0.436560 0.287480 0.054068 0.231538
C167  C     C_3   0.473021 0.287463 0.122896 -0.807267
H90   H     H_    0.487874 0.261516 0.109118 0.247412
H91   H     H_    0.451521 0.279540 0.154979 0.240494
H92   H     H_    0.493704 0.306733 0.143158 0.225868
N16   N     N_2   0.694538 0.454611 0.075135 -0.270790
H93   H     H_    0.712520 0.436560 0.054067 0.231538
C168  C     C_3   0.712538 0.473020 0.122896 -0.807267
H94   H     H_    0.738484 0.487873 0.109117 0.247412
H95   H     H_    0.720460 0.451521 0.154979 0.240494
H96   H     H_    0.693268 0.493704 0.143158 0.225867
O49   O     O_3   0.951628 0.113361 0.426218 -0.581162
C169  C     C_3   0.917092 0.106447 0.454143 0.130303
H97   H     H_    0.902984 0.133353 0.466103 0.143188
H98   H     H_    0.921479 0.089104 0.492994 0.158291
C170  C     C_3   0.891010 0.084928 0.414458 -0.785450
H99   H     H_    0.904297 0.057960 0.401452 0.268518
H100  H     H_    0.864023 0.078707 0.436423 0.204129
H101  H     H_    0.885096 0.102041 0.375984 0.251086
O50   O     O_3   0.113361 0.048372 0.426217 -0.581162
C171  C     C_3   0.106447 0.082907 0.454142 0.130302
H102  H     H_    0.133353 0.097015 0.466102 0.143188
H103  H     H_    0.089104 0.078520 0.492993 0.158293
C172  C     C_3   0.084928 0.108990 0.414457 -0.785449
H104  H     H_    0.057961 0.095702 0.401451 0.268518
H105  H     H_    0.078708 0.135977 0.436422 0.204130
H106  H     H_    0.102041 0.114903 0.375983 0.251086
O51   O     O_3   0.048372 0.886639 0.426217 -0.581162
C173  C     C_3   0.082907 0.893553 0.454142 0.130303
H107  H     H_    0.097015 0.866647 0.466102 0.143188
H108  H     H_    0.078520 0.910896 0.492993 0.158292
C174  C     C_3   0.108990 0.915072 0.414457 -0.785449
H109  H     H_    0.095702 0.942039 0.401451 0.268518
H110  H     H_    0.135977 0.921292 0.436422 0.204130
H111  H     H_    0.114903 0.897959 0.375983 0.251086
O52   O     O_3   0.886639 0.951629 0.426216 -0.581161
C175  C     C_3   0.893553 0.917093 0.454141 0.130302
H112  H     H_    0.866647 0.902985 0.466100 0.143188
H113  H     H_    0.910896 0.921480 0.492992 0.158291
C176  C     C_3   0.915072 0.891011 0.414456 -0.785447
H114  H     H_    0.942039 0.904298 0.401450 0.268518
H115  H     H_    0.921293 0.864024 0.436420 0.204129
H116  H     H_    0.897959 0.885097 0.375982 0.251085
O53   O     O_3   0.047418 0.115735 0.572596 -0.606325
C177  C     C_3   0.033808 0.112007 0.628744 0.168883
H117  H     H_    0.002833 0.106652 0.630592 0.126854
H118  H     H_    0.040456 0.137770 0.653389 0.163993
C178  C     C_3   0.053785 0.079150 0.657388 -0.858593
H119  H     H_    0.084719 0.083875 0.657194 0.249039
H120  H     H_    0.044042 0.076536 0.702040 0.195968
H121  H     H_    0.047513 0.052465 0.634728 0.275509
O54   O     O_3   0.884266 0.047416 0.572599 -0.606321
C179  C     C_3   0.887993 0.033805 0.628746 0.168885
H122  H     H_    0.893349 0.002830 0.630591 0.126855
H123  H     H_    0.862230 0.040450 0.653390 0.163990
C180  C     C_3   0.920849 0.053782 0.657392 -0.858590
H124  H     H_    0.916123 0.084716 0.657201 0.249039
H125  H     H_    0.923464 0.044037 0.702043 0.195968
H126  H     H_    0.947535 0.047511 0.634731 0.275507
O55   O     O_3   0.952583 0.884266 0.572597 -0.606323
C181  C     C_3   0.966193 0.887993 0.628745 0.168883
H127  H     H_    0.997167 0.893348 0.630591 0.126854
H128  H     H_    0.959546 0.862230 0.653389 0.163992
C182  C     C_3   0.946216 0.920850 0.657389 -0.858592
H129  H     H_    0.915282 0.916125 0.657196 0.249038
H130  H     H_    0.955959 0.923464 0.702041 0.195968
H131  H     H_    0.952488 0.947535 0.634729 0.275508
O56   O     O_3   0.115734 0.952583 0.572597 -0.606324
C183  C     C_3   0.112007 0.966193 0.628745 0.168881
H132  H     H_    0.106652 0.997167 0.630592 0.126854
H133  H     H_    0.137770 0.959545 0.653389 0.163993
C184  C     C_3   0.079150 0.946216 0.657389 -0.858594
H134  H     H_    0.083874 0.915282 0.657195 0.249040
H135  H     H_    0.076536 0.955959 0.702041 0.195969
H136  H     H_    0.052465 0.952488 0.634729 0.275509
O57   O     O_3   0.451628 0.613361 0.926217 -0.581161
C185  C     C_3   0.417093 0.606447 0.954142 0.130301
H137  H     H_    0.402985 0.633353 0.966101 0.143189
H138  H     H_    0.421480 0.589104 0.992993 0.158292
C186  C     C_3   0.391011 0.584928 0.914457 -0.785448
H139  H     H_    0.404298 0.557960 0.901451 0.268518
H140  H     H_    0.364023 0.578708 0.936421 0.204129
H141  H     H_    0.385097 0.602040 0.875982 0.251086
O58   O     O_3   0.613361 0.548372 0.926217 -0.581162
C187  C     C_3   0.606447 0.582907 0.954143 0.130304
H142  H     H_    0.633353 0.597015 0.966102 0.143188
H143  H     H_    0.589104 0.578520 0.992994 0.158291
C188  C     C_3   0.584928 0.608990 0.914458 -0.785449
H144  H     H_    0.557961 0.595703 0.901451 0.268517
H145  H     H_    0.578708 0.635977 0.936422 0.204129
H146  H     H_    0.602041 0.614904 0.875984 0.251086
O59   O     O_3   0.548371 0.386639 0.926217 -0.581162
C189  C     C_3   0.582907 0.393553 0.954142 0.130302
H147  H     H_    0.597015 0.366647 0.966101 0.143188
H148  H     H_    0.578520 0.410896 0.992993 0.158292
C190  C     C_3   0.608989 0.415072 0.914457 -0.785448
H149  H     H_    0.595702 0.442039 0.901451 0.268518
H150  H     H_    0.635977 0.421292 0.936421 0.204129
H151  H     H_    0.614903 0.397959 0.875982 0.251085
O60   O     O_3   0.386639 0.451628 0.926217 -0.581162
C191  C     C_3   0.393553 0.417093 0.954143 0.130302
H152  H     H_    0.366647 0.402985 0.966102 0.143188
H153  H     H_    0.410896 0.421480 0.992994 0.158292
C192  C     C_3   0.415072 0.391010 0.914458 -0.785448
H154  H     H_    0.442039 0.404297 0.901451 0.268517
H155  H     H_    0.421292 0.364023 0.936422 0.204129
H156  H     H_    0.397959 0.385096 0.875983 0.251085
O61   O     O_3   0.547417 0.615734 0.072598 -0.606323
C193  C     C_3   0.533806 0.612007 0.128745 0.168884
H157  H     H_    0.502832 0.606652 0.130591 0.126854
H158  H     H_    0.540452 0.637770 0.153390 0.163991
C194  C     C_3   0.553783 0.579150 0.157390 -0.858592
H159  H     H_    0.584717 0.583876 0.157198 0.249038
H160  H     H_    0.544039 0.576536 0.202042 0.195968
H161  H     H_    0.547512 0.552465 0.134730 0.275508
O62   O     O_3   0.384265 0.547417 0.072597 -0.606323
C195  C     C_3   0.387993 0.533807 0.128745 0.168883
H162  H     H_    0.393348 0.502833 0.130591 0.126855
H163  H     H_    0.362230 0.540454 0.153389 0.163992
C196  C     C_3   0.420850 0.553784 0.157389 -0.858592
H164  H     H_    0.416125 0.584718 0.157196 0.249038
H165  H     H_    0.423464 0.544041 0.202041 0.195968
H166  H     H_    0.447535 0.547512 0.134729 0.275508
O63   O     O_3   0.452583 0.384265 0.072598 -0.606323
C197  C     C_3   0.466193 0.387993 0.128745 0.168883
H167  H     H_    0.497168 0.393348 0.130591 0.126854
H168  H     H_    0.459547 0.362230 0.153390 0.163991
C198  C     C_3   0.446217 0.420850 0.157390 -0.858592
H169  H     H_    0.415282 0.416124 0.157197 0.249039
H170  H     H_    0.455960 0.423464 0.202041 0.195969
H171  H     H_    0.452488 0.447535 0.134729 0.275508
O64   O     O_3   0.615734 0.452583 0.072597 -0.606323
C199  C     C_3   0.612007 0.466193 0.128745 0.168882
H172  H     H_    0.606652 0.497168 0.130591 0.126855
H173  H     H_    0.637770 0.459547 0.153389 0.163991
C200  C     C_3   0.579150 0.446216 0.157390 -0.858593
H174  H     H_    0.583876 0.415282 0.157197 0.249039
H175  H     H_    0.576536 0.455960 0.202041 0.195969
H176  H     H_    0.552465 0.452488 0.134729 0.275508

loop_
_geom_bond_atom_site_label_1
_geom_bond_atom_site_label_2
_ccdc_geom_bond_type
O1    Zn1   S    
O51   C173  S    
C19   H3    S    
C190  H149  S    
C7    C55   S    
C66   O38   A    
C17   H1    S    
C8    C56   S    
C15   C151  T    
C168  H94   S    
O38   Zn10  S    
C90   C95   S    
C80   O32   A    
C162  H70   S    
C179  H122  S    
C98   C138  A    
O26   Zn6   S    
C5    O9    A    
C68   O36   A    
C2    O8    A    
C114  O50   S    
C97   N1    S    
C98   N2    S    
C199  H173  S    
C98   C114  A    
C128  O64   S    
C157  H50   S    
C22   C38   A    
C200  H176  S    
C173  C174  S    
C198  H169  S    
O34   Zn9   S    
C178  H121  S    
C187  C188  S    
C75   O23   A    
C18   C58   A    
C196  H165  S    
N8    C160  S    
C153  H36   S    
O24   Zn4   S    
C176  H116  S    
C143  C151  S    
C126  C136  A    
N1    H33   S    
C187  H143  S    
C114  C130  A    
C76   C84   S    
C102  C118  A    
C6    C54   S    
C73   C81   S    
C172  H105  S    
C76   O22   A    
C106  C142  A    
C174  H111  S    
N14   H85   S    
O21   Zn3   S    
C47   H31   S    
C25   C41   A    
C48   H32   S    
C101  C137  A    
C169  H97   S    
C194  H161  S    
C181  H128  S    
C108  N12   S    
O61   C193  S    
C73   O17   A    
C28   C44   A    
O35   Zn9   S    
C29   C45   A    
C68   C131  S    
O62   C195  S    
C31   C63   A    
O18   Zn2   S    
C192  H156  S    
C170  H101  S    
C119  O55   S    
C31   H15   S    
C102  C140  A    
N5    C157  S    
C35   C51   A    
O54   C179  S    
C198  H171  S    
C185  H138  S    
O41   Zn11  S    
C107  C143  A    
C78   O28   A    
C108  C144  A    
C168  H96   S    
O36   Zn9   S    
C162  H72   S    
N4    C156  S    
C195  H163  S    
O4    Zn4   S    
C70   O42   A    
C105  N9    S    
C155  H43   S    
C169  C170  S    
C3    O3    A    
C111  N15   S    
C1    O1    A    
C83   C91   T    
C182  H129  S    
C4    O4    A    
C89   C96   S    
C32   C62   A    
O20   Zn4   S    
C19   C35   A    
O57   C185  S    
C91   C94   S    
C65   O33   A    
O13   Zn7   S    
C42   H26   S    
C171  H102  S    
C105  C141  A    
C191  H153  S    
O46   Zn12  S    
N16   H93   S    
C80   C88   S    
C123  C135  A    
C163  H75   S    
C186  H139  S    
O52   C175  S    
C76   O24   A    
C112  N16   S    
C180  H125  S    
C126  O62   S    
C39   C51   A    
C165  H83   S    
O50   C171  S    
C117  O53   S    
C75   O21   A    
C8    O14   A    
O40   Zn10  S    
C2    O2    A    
C184  H134  S    
C164  H78   S    
C161  H67   S    
O60   C191  S    
C23   C59   A    
C73   O19   A    
C41   H25   S    
O30   Zn6   S    
O25   Zn5   S    
C3    O7    A    
C154  H38   S    
C38   H22   S    
C14   C62   S    
N3    H41   S    
C67   O37   A    
C177  H117  S    
C122  C134  A    
C2    C50   S    
C27   H11   S    
C193  H157  S    
C85   C93   T    
C25   H9    S    
N11   C163  S    
C23   H7    S    
C119  C131  A    
C8    O12   A    
C197  H167  S    
O31   Zn5   S    
C117  C129  A    
C78   O26   A    
C36   C52   A    
C111  C143  A    
C45   C53   A    
C158  H54   S    
C159  H60   S    
N15   C167  S    
C99   C139  A    
C68   O40   A    
C97   C137  A    
C188  H145  S    
C122  O58   S    
O33   Zn9   S    
C182  H131  S    
C29   C61   A    
C36   H20   S    
O32   Zn8   S    
C4    O6    A    
C39   H23   S    
C40   H24   S    
O45   Zn12  S    
C72   C135  S    
C5    O13   A    
C19   C59   A    
C101  N5    S    
C109  N13   S    
N14   C166  S    
C177  C178  S    
N9    H65   S    
C128  C134  A    
C18   C34   A    
C116  C132  A    
C106  C122  A    
C197  C198  S    
C160  H62   S    
C71   O45   A    
O10   Zn6   S    
C186  H141  S    
C173  H108  S    
C156  H47   S    
C175  C176  S    
C41   C53   A    
C110  C126  A    
C43   C55   A    
C10   C146  T    
N12   C164  S    
C189  H147  S    
C183  H133  S    
C115  O51   S    
C170  H100  S    
C65   C132  S    
C26   C42   A    
C72   O48   A    
C30   C46   A    
C37   H21   S    
C154  H40   S    
N7    C159  S    
O22   Zn2   S    
C163  H76   S    
C46   H30   S    
C67   O35   A    
O47   Zn12  S    
C144  C152  S    
O56   C183  S    
C199  C200  S    
C74   O20   A    
C138  C146  S    
C200  H175  S    
O5    Zn3   S    
C167  H92   S    
C178  H120  S    
C118  C132  A    
C189  C190  S    
C196  H164  S    
C158  H56   S    
C46   C56   A    
C159  H58   S    
C32   H16   S    
C109  C141  A    
C124  O60   S    
C84   C92   T    
C176  H115  S    
C1    O5    A    
C157  H52   S    
C88   C96   T    
O58   C187  S    
C30   C64   A    
C35   H19   S    
N6    H53   S    
C100  C116  A    
C107  C123  A    
C33   H17   S    
C44   H28   S    
C71   C134  S    
C172  H104  S    
C45   H29   S    
N2    H37   S    
C174  H110  S    
C43   H27   S    
O59   C189  S    
C137  C145  S    
C127  C135  A    
C69   O47   A    
C99   C115  A    
C169  H98   S    
C194  H160  S    
C99   N3    S    
C33   C49   A    
C160  H64   S    
C29   H13   S    
N13   C165  S    
C175  H112  S    
O14   Zn6   S    
C192  H155  S    
C102  N6    S    
C20   C60   A    
C106  N10   S    
C113  O49   S    
C66   C129  S    
C81   C89   T    
C155  H44   S    
C153  H35   S    
C31   C47   A    
N5    H49   S    
C190  H150  S    
C17   C33   A    
C74   C82   S    
C11   C59   S    
O15   Zn5   S    
C168  H95   S    
C6    O10   A    
O8    Zn4   S    
C162  H71   S    
C124  C136  A    
C163  H74   S    
C123  O59   S    
C161  H66   S    
C3    C51   S    
C199  H172  S    
C195  C196  S    
C179  C180  S    
C167  H91   S    
O64   C199  S    
C26   H10   S    
C193  C194  S    
C167  H90   S    
O16   Zn8   S    
O19   Zn3   S    
C37   C49   A    
C44   C56   A    
O17   Zn1   S    
N8    H61   S    
C100  N4    S    
C196  H166  S    
C14   C150  T    
C16   C152  T    
C25   C61   A    
C171  H103  S    
C191  C192  S    
O28   Zn8   S    
C27   C63   A    
C28   C64   A    
C69   C136  S    
N1    C153  S    
C187  H142  S    
C67   C130  S    
C7    O11   A    
C65   O39   A    
C172  H106  S    
N16   C168  S    
C180  H124  S    
O11   Zn7   S    
C10   C58   S    
O48   Zn12  S    
C21   H5    S    
C69   O41   A    
C181  H127  S    
O7    Zn1   S    
C22   H6    S    
C82   C90   T    
C101  C117  A    
C142  C150  S    
C66   O34   A    
C42   C54   A    
C6    O16   A    
C75   C83   S    
O42   Zn11  S    
C32   C48   A    
O44   Zn11  S    
C40   C50   A    
C9    C145  T    
C92   C93   S    
C108  C124  A    
O23   Zn1   S    
C166  H86   S    
C177  H118  S    
C112  C128  A    
C164  H79   S    
C165  H82   S    
C20   C36   A    
C27   C43   A    
C21   C37   A    
C24   C58   A    
N11   H73   S    
C72   O44   A    
C185  H137  S    
C160  H63   S    
C197  H168  S    
C17   C57   A    
C104  C120  A    
N12   H77   S    
C195  H162  S    
C159  H59   S    
N15   H89   S    
N10   H69   S    
C22   C60   A    
C140  C148  S    
C181  C182  S    
C188  H144  S    
C141  C149  S    
C115  C131  A    
O49   C169  S    
C107  N11   S    
C48   C54   A    
C182  H130  S    
C139  C147  S    
C79   C87   S    
N13   H81   S    
C4    C52   S    
C120  C130  A    
C5    C53   S    
N6    C158  S    
C125  O61   S    
O43   Zn11  S    
N2    C154  S    
C38   C52   A    
C171  C172  S    
O39   Zn10  S    
C112  C142  A    
C166  H87   S    
C198  H170  S    
C110  N14   S    
C191  H152  S    
C100  C140  A    
C24   C40   A    
C116  O52   S    
C113  C129  A    
C120  O56   S    
C185  C186  S    
C70   C133  S    
O6    Zn2   S    
C186  H140  S    
C86   C94   T    
C156  H46   S    
C34   H18   S    
C77   O25   A    
C180  H126  S    
C78   C86   S    
C79   O31   A    
C165  H84   S    
C189  H148  S    
C183  C184  S    
O63   C197  S    
C184  H135  S    
C121  O57   S    
C161  H68   S    
C175  H113  S    
O37   Zn10  S    
C34   C50   A    
C30   H14   S    
C154  H39   S    
C164  H80   S    
C80   O30   A    
N7    H57   S    
C74   O18   A    
C11   C147  T    
C87   C95   T    
N3    C155  S    
C166  H88   S    
C110  C144  A    
C70   O46   A    
C21   C57   A    
C103  C139  A    
C200  H174  S    
C105  C121  A    
C184  H136  S    
N10   C162  S    
O9    Zn5   S    
C178  H119  S    
C109  C125  A    
C158  H55   S    
C111  C127  A    
O27   Zn7   S    
C97   C113  A    
C155  H42   S    
C188  H146  S    
C28   H12   S    
C47   C55   A    
C176  H114  S    
O12   Zn8   S    
C125  C133  A    
C157  H51   S    
C179  H123  S    
C20   H4    S    
C71   O43   A    
C103  C119  A    
O29   Zn7   S    
C18   H2    S    
C153  H34   S    
C24   H8    S    
C118  O54   S    
C174  H109  S    
C121  C133  A    
C12   C148  T    
N4    H45   S    
C26   C62   A    
C13   C149  T    
N9    C161  S    
O53   C177  S    
C194  H159  S    
O55   C181  S    
C23   C39   A    
C127  O63   S    
C190  H151  S    
C104  C138  A    
C9    C57   S    
C7    O15   A    
C173  H107  S    
C156  H48   S    
C193  H158  S    
C77   O27   A    
C104  N8    S    
C77   C85   S    
C12   C60   S    
C79   O29   A    
C13   C61   S    
C192  H154  S    
C15   C63   S    
C183  H132  S    
C16   C64   S    
O2    Zn2   S    
C170  H99   S    
C1    C49   S    
C103  N7    S    
O3    Zn3   S    
