data_mof_unit_pretest_377.cif
_audit_creation_date              2012-12-10T20:34:51-0500
_audit_creation_method            fapswitch 2.2
_symmetry_space_group_name_H-M    P1
_symmetry_Int_Tables_number       1
_space_group_crystal_system       triclinic
_cell_length_a                    10.659899
_cell_length_b                    10.653971
_cell_length_c                    9.894576
_cell_angle_alpha                 88.814985
_cell_angle_beta                  89.864343
_cell_angle_gamma                 90.12746
_cell_volume                      1123.4831276

loop_
_atom_site_label
_atom_site_type_symbol
_atom_type_description
_atom_site_fract_x
_atom_site_fract_y
_atom_site_fract_z
_atom_type_partial_charge
C1    C     C_R   0.507794 0.260683 0.501271 0.894215
C2    C     C_3   0.878758 0.501918 0.500202 0.119313
C3    C     C_3   0.932473 0.636473 0.457840 0.280886
C4    C     C_3   0.926449 0.401727 0.400311 -0.468716
C5    C     C_R   0.432020 0.063176 0.586927 0.134833
C6    C     C_R   0.515208 0.128374 0.502797 -0.142816
C7    C     C_R   0.586896 0.064251 0.405349 0.139450
C8    C     C_R   0.574943 0.934435 0.400441 -0.235180
C9    C     C_R   0.496683 0.871146 0.492888 -0.121790
C10   C     C_R   0.419047 0.936430 0.578826 0.081728
C11   C     C_3   0.390885 0.918385 0.725945 -0.481329
C12   C     C_R   0.257912 0.496807 0.500566 0.893455
C13   C     C_3   0.412048 0.059252 0.737651 -0.047958
C14   C     C_R   0.390435 0.488127 0.071707 0.221857
C15   C     C_R   0.607667 0.517277 0.070926 -0.115041
C16   C     C_R   0.607682 0.517937 0.927503 -0.144080
C17   C     C_R   0.390271 0.489091 0.929144 0.220711
C18   C     C_3   0.302330 0.380568 0.925582 -0.533476
C19   C     C_3   0.304224 0.377849 0.078233 -0.471465
C20   C     C_R   0.498434 0.739434 0.498473 0.889636
C21   C     C_R   0.742255 0.500953 0.499990 0.846070
C22   C     C_3   0.070669 0.456141 0.642921 -0.399125
C23   C     C_3   0.927989 0.456403 0.641677 -0.406259
C24   C     C_3   0.077262 0.632854 0.471396 -0.459832
C25   C     C_3   0.069860 0.406841 0.392799 0.006296
C26   C     C_3   0.121579 0.496782 0.501854 0.068770
H1    H     H_    0.103205 0.522629 0.720783 0.180881
H2    H     H_    0.886934 0.414522 0.297127 0.201885
H3    H     H_    0.123286 0.669500 0.377586 0.189802
H4    H     H_    0.633483 0.882218 0.331668 0.182931
H5    H     H_    0.291447 0.890415 0.742940 0.180747
H6    H     H_    0.459146 0.857955 0.781156 0.227668
H7    H     H_    0.324415 0.108405 0.766371 0.141259
H8    H     H_    0.695130 0.527884 0.123669 0.186580
H9    H     H_    0.105247 0.360847 0.671740 0.199678
H10   H     H_    0.695209 0.530564 0.873714 0.151925
H11   H     H_    0.209297 0.407006 0.884690 0.201559
H12   H     H_    0.344441 0.296506 0.880363 0.204495
H13   H     H_    0.211706 0.401277 0.120938 0.212740
H14   H     H_    0.348987 0.292388 0.122621 0.225239
H15   H     H_    0.893732 0.359324 0.664493 0.177444
H16   H     H_    0.893054 0.512729 0.726162 0.194599
H17   H     H_    0.110759 0.695409 0.552346 0.177533
H18   H     H_    0.095060 0.446141 0.291971 0.161194
H19   H     H_    0.895284 0.306950 0.435644 0.183897
N1    N     N_R   0.499150 0.499140 0.142800 -0.111465
N2    N     N_R   0.499150 0.499180 0.857150 -0.114583
O1    O     O_R   0.500020 0.316790 0.614690 -0.624176
O2    O     O_R   0.500000 0.316760 0.385350 -0.597086
O3    O     O_R   0.314800 0.500000 0.614670 -0.623772
O4    O     O_R   0.314790 0.499960 0.385330 -0.614704
O5    O     O_R   0.500000 0.683240 0.614650 -0.621911
O6    O     O_R   0.499980 0.683210 0.385310 -0.604947
O7    O     O_R   0.685210 0.500040 0.614670 -0.638444
O8    O     O_R   0.685200 0.500000 0.385330 -0.621989
Zn1   Zn    Zn3+2 0.500010 0.500020 0.653130 0.928472
Zn2   Zn    Zn3+2 0.499990 0.499980 0.346870 0.961101
I1    I     I_    0.893874 0.683215 0.245824 -0.524848
C27   C     C_3   0.686315 0.127495 0.317594 -0.388516
C28   C     C_3   0.647127 0.133018 0.169531 -0.810088
H20   H     H_    0.637451 0.036615 0.130276 0.254439
H21   H     H_    0.556651 0.183415 0.157783 0.264852
H22   H     H_    0.719706 0.183785 0.108936 0.243262
H23   H     H_    0.707351 0.223789 0.350976 0.202000
H24   H     H_    0.775713 0.074470 0.327093 0.214163
C29   C     C_3   0.525195 0.093786 0.828231 -0.354353
C30   C     C_3   0.653925 0.044749 0.783925 -0.828138
H25   H     H_    0.651940 0.942763 0.764351 0.262693
H26   H     H_    0.687846 0.096009 0.692310 0.249906
H27   H     H_    0.723030 0.061089 0.865493 0.240920
H28   H     H_    0.532000 0.197194 0.835912 0.223219
H29   H     H_    0.504902 0.056511 0.931553 0.205980
C31   C     C_3   0.874233 0.751008 0.531738 -0.378631
C32   C     C_3   0.883370 0.754174 0.685975 -0.880593
H30   H     H_    0.805403 0.699752 0.733037 0.261203
H31   H     H_    0.974991 0.719932 0.723956 0.260478
H32   H     H_    0.872369 0.852537 0.718960 0.255280
H33   H     H_    0.920525 0.837762 0.491464 0.232940
H34   H     H_    0.773586 0.759400 0.504575 0.202104
I2    I     I_    0.146812 0.219043 0.405065 -0.476975

loop_
_geom_bond_atom_site_label_1
_geom_bond_atom_site_label_2
_ccdc_geom_bond_type
C25   I2    S    
C31   C32   S    
C4    C25   S    
C7    C8    A    
C14   N1    A    
C22   H9    S    
C27   H23   S    
C23   H16   S    
C32   H31   S    
C28   H22   S    
C18   H11   S    
C24   C26   S    
C21   O7    A    
C15   C16   A    
O2    Zn2   S    
C25   H18   S    
C28   H21   S    
C18   C19   S    
C24   H3    S    
C29   H29   S    
C8    C9    A    
C32   H32   S    
C31   H33   S    
O4    Zn2   S    
C9    C10   A    
C15   H8    S    
C5    C13   S    
C13   C29   S    
C29   C30   S    
C11   H5    S    
C27   C28   S    
C14   C17   A    
C3    C24   S    
C16   N2    A    
C7    C27   S    
C4    H2    S    
C4    H19   S    
O7    Zn1   S    
C32   H30   S    
C1    C6    S    
C19   H14   S    
C21   O8    A    
O6    Zn2   S    
C25   C26   S    
O3    Zn1   S    
C30   H25   S    
C12   C26   S    
C28   H20   S    
C30   H26   S    
C2    C4    S    
C13   H7    S    
C9    C20   S    
C29   H28   S    
C2    C21   S    
C17   C18   S    
C31   H34   S    
C19   H13   S    
C11   H6    S    
C22   H1    S    
O8    Zn2   S    
N1    Zn2   S    
C12   O4    A    
O1    Zn1   S    
C14   C19   S    
C17   N2    A    
C20   O6    A    
C12   O3    A    
C1    O1    A    
C6    C7    A    
C23   H15   S    
C30   H27   S    
C8    H4    S    
C2    C3    S    
C18   H12   S    
C5    C10   A    
C20   O5    A    
C27   H24   S    
C11   C13   S    
C5    C6    A    
C3    C31   S    
C10   C11   S    
C3    I1    S    
C22   C26   S    
C2    C23   S    
C24   H17   S    
C22   C23   S    
C15   N1    A    
C1    O2    A    
C16   H10   S    
O5    Zn1   S    
N2    Zn1   S    
