data_mof_unit_pretest_653.cif
_audit_creation_date              2012-12-10T19:03:38-0500
_audit_creation_method            fapswitch 2.2
_symmetry_space_group_name_H-M    P1
_symmetry_Int_Tables_number       1
_space_group_crystal_system       triclinic
_cell_length_a                    15.8729
_cell_length_b                    10.849147
_cell_length_c                    9.533558
_cell_angle_alpha                 90.103142
_cell_angle_beta                  90.391592
_cell_angle_gamma                 90.707703
_cell_volume                      1641.58298569

loop_
_atom_site_label
_atom_site_type_symbol
_atom_type_description
_atom_site_fract_x
_atom_site_fract_y
_atom_site_fract_z
_atom_type_partial_charge
C1    C     C_R   0.493907 0.262783 0.499555 0.831534
C2    C     C_3   0.952734 0.445405 0.636330 -0.400901
C3    C     C_3   0.917161 0.501844 0.499833 0.192828
C4    C     C_3   0.951069 0.636022 0.485211 -0.476785
C5    C     C_3   0.050003 0.636600 0.482275 0.335192
C6    C     C_1   0.824980 0.500940 0.502194 -0.064532
C7    C     C_1   0.175155 0.501069 0.494998 -0.001960
C8    C     C_1   0.250676 0.500860 0.497891 -0.168765
C9    C     C_R   0.491073 0.063582 0.621413 -0.069178
C10   C     C_R   0.479861 0.130229 0.498615 -0.282002
C11   C     C_R   0.455065 0.064629 0.375688 0.332983
C12   C     C_R   0.340224 0.500310 0.499551 0.795502
C13   C     C_R   0.462638 0.934351 0.372843 0.353891
C14   C     C_R   0.485609 0.871025 0.497793 -0.228721
C15   C     C_R   0.490097 0.937448 0.622829 -0.030349
C16   C     C_3   0.548175 0.931053 0.747324 -0.484146
C17   C     C_3   0.549842 0.071961 0.745388 0.372631
C18   C     C_R   0.572955 0.519826 0.074609 0.280620
C19   C     C_R   0.429853 0.467480 0.073499 -0.081139
C20   C     C_R   0.429775 0.467572 0.924857 -0.095386
C21   C     C_R   0.573086 0.519182 0.927201 0.289127
C22   C     C_3   0.628974 0.630371 0.922121 -0.521357
C23   C     C_R   0.497781 0.737999 0.499575 0.856246
C24   C     C_3   0.628316 0.631604 0.081363 -0.498588
C25   C     C_R   0.659802 0.499940 0.500473 0.822896
C26   C     C_3   0.050090 0.442810 0.631066 -0.446976
C27   C     C_3   0.046255 0.425489 0.363095 0.450170
C28   C     C_3   0.947958 0.423249 0.374728 -0.364118
C29   C     C_1   0.749433 0.500338 0.501853 -0.183046
C30   C     C_3   0.082903 0.501214 0.492445 0.148562
Cu1   Cu    Cu3+1 0.500000 0.499980 0.640670 0.953475
Cu2   Cu    Cu3+1 0.500000 0.500020 0.359330 0.963872
H1    H     H_    0.927791 0.349829 0.649855 0.190755
H2    H     H_    0.077434 0.491459 0.723595 0.191612
H3    H     H_    0.932045 0.499555 0.728801 0.173657
H4    H     H_    0.927090 0.675446 0.385028 0.162160
H5    H     H_    0.515391 0.893345 0.840888 0.178387
H6    H     H_    0.609196 0.886764 0.723737 0.189165
H7    H     H_    0.517933 0.111897 0.838155 0.122584
H8    H     H_    0.372395 0.444200 0.127852 0.148896
H9    H     H_    0.071392 0.346135 0.641291 0.206529
H10   H     H_    0.372388 0.442953 0.869531 0.147930
H11   H     H_    0.691798 0.609501 0.877739 0.202198
H12   H     H_    0.597134 0.710533 0.874814 0.214546
H13   H     H_    0.690860 0.611691 0.128719 0.199093
H14   H     H_    0.595871 0.712786 0.126232 0.245967
H15   H     H_    0.923615 0.327350 0.386930 0.172424
H16   H     H_    0.918821 0.457943 0.275968 0.191743
H17   H     H_    0.066684 0.670668 0.376018 0.160739
H18   H     H_    0.923668 0.693765 0.568705 0.155611
N1    N     N_R   0.500530 0.500930 0.147930 -0.177329
N2    N     N_R   0.500530 0.500890 0.852020 -0.185789
O1    O     O_R   0.500000 0.319640 0.618810 -0.566215
O2    O     O_R   0.500010 0.319680 0.381230 -0.543242
O3    O     O_R   0.379430 0.499990 0.618840 -0.583567
O4    O     O_R   0.379440 0.500030 0.381260 -0.610339
O5    O     O_R   0.499990 0.680320 0.618770 -0.582829
O6    O     O_R   0.500000 0.680360 0.381190 -0.530945
O7    O     O_R   0.620560 0.499970 0.618740 -0.570606
O8    O     O_R   0.620570 0.500010 0.381160 -0.582828
O9    O     O_3   0.431960 0.125664 0.254119 -0.559691
C31   C     C_3   0.348624 0.169599 0.268284 0.075994
H19   H     H_    0.349507 0.259778 0.323233 0.170238
H20   H     H_    0.306766 0.105452 0.328122 0.130352
C32   C     C_3   0.309433 0.187665 0.123395 -0.822804
H21   H     H_    0.285807 0.098682 0.080313 0.224498
H22   H     H_    0.255222 0.250477 0.130761 0.205690
H23   H     H_    0.356242 0.227491 0.049849 0.254254
O10   O     O_3   0.461149 0.870863 0.246119 -0.558947
C33   C     C_3   0.381479 0.877004 0.179828 0.119347
H24   H     H_    0.384153 0.949365 0.098131 0.194996
H25   H     H_    0.328775 0.894829 0.253754 0.123955
C34   C     C_3   0.362609 0.755942 0.105365 -0.810633
H26   H     H_    0.354308 0.681496 0.183823 0.266691
H27   H     H_    0.303711 0.763813 0.042705 0.195389
H28   H     H_    0.415049 0.733022 0.033684 0.257794
O11   O     O_3   0.631428 0.126521 0.726689 -0.556135
C35   C     C_3   0.669887 0.103592 0.595449 0.123786
H29   H     H_    0.650860 0.175084 0.518988 0.145010
H30   H     H_    0.654552 0.011327 0.550877 0.132356
C36   C     C_3   0.765047 0.113242 0.613217 -0.801303
H31   H     H_    0.787099 0.042554 0.688704 0.246361
H32   H     H_    0.796090 0.098099 0.510668 0.205717
H33   H     H_    0.783111 0.206300 0.652911 0.251201
O12   O     O_3   0.064572 0.488538 0.235051 -0.605895
C37   C     C_3   0.136627 0.446972 0.164257 0.089719
H34   H     H_    0.120486 0.362314 0.103505 0.185260
H35   H     H_    0.190172 0.428871 0.236216 0.156548
C38   C     C_3   0.164851 0.545372 0.060981 -0.843536
H36   H     H_    0.179911 0.632343 0.117918 0.254510
H37   H     H_    0.221822 0.514484 0.004489 0.199496
H38   H     H_    0.113793 0.562563 0.983521 0.253871
I1    I     I_    0.086667 0.231265 0.367996 -0.538637
O13   O     O_3   0.095511 0.719163 0.573177 -0.575203
C39   C     C_3   0.054759 0.753617 0.698156 0.099078
H39   H     H_    0.020343 0.676172 0.748157 0.135662
H40   H     H_    0.010623 0.830062 0.676167 0.156180
C40   C     C_3   0.120788 0.800922 0.802104 -0.795111
H41   H     H_    0.152827 0.884284 0.759563 0.256943
H42   H     H_    0.090391 0.825035 0.902908 0.205800
H43   H     H_    0.168581 0.728924 0.821559 0.249310

loop_
_geom_bond_atom_site_label_1
_geom_bond_atom_site_label_2
_ccdc_geom_bond_type
C2    H3    S    
C23   O6    A    
C4    H4    S    
C28   H15   S    
C18   C21   A    
C34   H26   S    
C39   H39   S    
Cu2   O6    S    
Cu1   N2    S    
C3    C6    S    
C5    O13   S    
C39   C40   S    
C7    C8    T    
O11   C35   S    
C18   C24   S    
C24   H13   S    
C3    C28   S    
O10   C33   S    
C35   H30   S    
C15   C16   S    
C17   H7    S    
Cu1   O7    S    
C27   O12   S    
C1    O1    A    
C31   H20   S    
C26   H2    S    
C22   H12   S    
C22   H11   S    
C16   C17   S    
C32   H22   S    
C33   H24   S    
C25   O8    A    
C38   H37   S    
C9    C10   A    
C16   H5    S    
C7    C30   S    
C21   C22   S    
C27   C30   S    
C34   H27   S    
C5    H17   S    
O9    C31   S    
Cu2   O2    S    
C36   H32   S    
C18   N1    A    
C36   H31   S    
C25   C29   S    
C10   C11   A    
C37   H34   S    
O12   C37   S    
C4    H18   S    
C14   C23   S    
C1    O2    A    
Cu2   N1    S    
C31   H19   S    
Cu1   Cu2   S    
C8    C12   S    
C32   H23   S    
C33   C34   S    
C17   O11   S    
C2    C26   S    
Cu1   O1    S    
C38   H38   S    
C12   O4    A    
C2    H1    S    
C9    C17   S    
C26   C30   S    
C40   H42   S    
C34   H28   S    
C22   C24   S    
C27   I1    S    
Cu2   O8    S    
C3    C4    S    
C36   H33   S    
C5    C30   S    
C23   O5    A    
C28   H16   S    
C31   C32   S    
C35   H29   S    
C1    C10   S    
C4    C5    S    
C11   O9    S    
C37   C38   S    
C20   H10   S    
C39   H40   S    
C40   H43   S    
C24   H14   S    
Cu1   O5    S    
C19   C20   A    
C2    C3    S    
C9    C15   A    
C20   N2    A    
C11   C13   A    
C35   C36   S    
C13   O10   S    
C37   H35   S    
C32   H21   S    
O13   C39   S    
C12   O3    A    
C19   H8    S    
C19   N1    A    
C6    C29   T    
C40   H41   S    
C27   C28   S    
C14   C15   A    
C33   H25   S    
C25   O7    A    
Cu1   O3    S    
C38   H36   S    
C13   C14   A    
Cu2   O4    S    
C21   N2    A    
C26   H9    S    
C16   H6    S    
