data_mof_unit_pretest_1332.cif
_audit_creation_date              2012-12-10T19:11:05-0500
_audit_creation_method            fapswitch 2.2
_symmetry_space_group_name_H-M    P1
_symmetry_Int_Tables_number       1
_space_group_crystal_system       triclinic
_cell_length_a                    10.79045
_cell_length_b                    9.081562
_cell_length_c                    7.779404
_cell_angle_alpha                 90.003263
_cell_angle_beta                  90.056252
_cell_angle_gamma                 90.013497
_cell_volume                      762.3356202

loop_
_atom_site_label
_atom_site_type_symbol
_atom_type_description
_atom_site_fract_x
_atom_site_fract_y
_atom_site_fract_z
_atom_type_partial_charge
C1    C     C_R   0.500059 0.220024 0.499995 0.813779
C2    C     C_R   0.260088 0.488728 0.499750 0.855096
C3    C     C_R   0.740279 0.492249 0.500027 0.775933
C4    C     C_R   0.499888 0.779972 0.499999 0.868967
C5    C     C_1   0.500024 0.065398 0.499993 -0.172349
C6    C     C_3   0.073439 0.390275 0.655334 -0.026494
C7    C     C_3   0.070436 0.415224 0.325440 -0.055167
C8    C     C_3   0.929061 0.401659 0.663750 -0.029860
C9    C     C_3   0.926045 0.405644 0.333064 -0.002911
C10   C     C_1   0.499964 0.934610 0.499999 -0.173974
C11   C     C_3   0.075638 0.650732 0.521643 0.259143
C12   C     C_3   0.928434 0.654460 0.497086 0.190997
C13   C     C_3   0.122522 0.484627 0.499157 -0.043912
C14   C     C_3   0.877951 0.487457 0.499527 -0.065174
Cu1   Cu    Cu3+1 0.500000 0.500010 0.669080 0.988847
Cu2   Cu    Cu3+1 0.500000 0.500010 0.330920 0.980847
H1    H     H_    0.109650 0.437299 0.777009 0.155462
H2    H     H_    0.094173 0.488995 0.216694 0.114756
H3    H     H_    0.906427 0.465291 0.781249 0.109426
H4    H     H_    0.890206 0.462738 0.217343 0.141551
N1    N     N_1   0.500000 0.499970 0.076820 -0.055210
N2    N     N_1   0.500000 0.499970 0.923180 -0.053253
O1    O     O_R   0.500000 0.288400 0.642760 -0.587340
O2    O     O_R   0.500000 0.288400 0.357240 -0.586360
O3    O     O_R   0.317700 0.499990 0.642790 -0.573208
O4    O     O_R   0.317700 0.499990 0.357210 -0.595348
O5    O     O_R   0.682300 0.499990 0.642790 -0.601534
O6    O     O_R   0.682300 0.499990 0.357210 -0.603468
O7    O     O_R   0.500000 0.711620 0.642810 -0.570074
O8    O     O_R   0.500000 0.711620 0.357190 -0.572459
N3    N     N_3   0.119396 0.237318 0.658701 -0.578201
H5    H     H_    0.080441 0.171898 0.563380 0.281011
H6    H     H_    0.215640 0.234522 0.645019 0.220286
N4    N     N_3   0.125457 0.271159 0.283267 -0.594857
H7    H     H_    0.220866 0.280139 0.265658 0.235931
H8    H     H_    0.091496 0.237873 0.163335 0.247961
N5    N     N_3   0.871709 0.255906 0.687929 -0.585238
H9    H     H_    0.776551 0.266314 0.707597 0.235121
H10   H     H_    0.905378 0.210832 0.802627 0.249376
N6    N     N_3   0.878784 0.254036 0.312647 -0.568250
H11   H     H_    0.918283 0.180206 0.398696 0.285201
H12   H     H_    0.782716 0.250028 0.327492 0.233648
N7    N     N_3   0.112493 0.705404 0.693913 -0.556033
H13   H     H_    0.058833 0.662286 0.793143 0.184190
H14   H     H_    0.101147 0.819735 0.700023 0.253586
N8    N     N_3   0.139886 0.748554 0.397827 -0.568825
H15   H     H_    0.102287 0.854701 0.402286 0.250826
H16   H     H_    0.137198 0.711856 0.271170 0.206398
N9    N     N_3   0.870788 0.744866 0.634237 -0.573095
H17   H     H_    0.857974 0.687592 0.748643 0.198942
H18   H     H_    0.782421 0.780109 0.597216 0.228629
N10   N     N_3   0.896920 0.729355 0.333172 -0.591560
H19   H     H_    0.801518 0.729323 0.310697 0.233192
H20   H     H_    0.940278 0.685092 0.225503 0.185048

loop_
_geom_bond_atom_site_label_1
_geom_bond_atom_site_label_2
_ccdc_geom_bond_type
Cu2   O6    S    
C6    C8    S    
C9    C14   S    
N3    H6    S    
C11   N7    S    
Cu2   N1    S    
Cu1   O7    S    
C6    H1    S    
C11   C13   S    
C9    H4    S    
Cu1   O5    S    
C4    O7    A    
N7    H13   S    
C7    H2    S    
N6    H12   S    
C12   N9    S    
C5    C10   T    
C2    O4    A    
N1    N2    T    
C6    C13   S    
N7    H14   S    
N5    H9    S    
C3    C14   S    
C1    C5    S    
Cu1   O1    S    
C3    O6    A    
C12   N10   S    
N10   H20   S    
C1    O1    A    
C2    O3    A    
N4    H8    S    
C3    O5    A    
Cu1   N2    S    
Cu2   O4    S    
N5    H10   S    
C7    N4    S    
N8    H16   S    
Cu1   O3    S    
C8    H3    S    
C8    N5    S    
Cu2   O8    S    
Cu1   Cu2   S    
C6    N3    S    
C7    C9    S    
C7    C13   S    
N10   H19   S    
C1    O2    A    
Cu2   O2    S    
N4    H7    S    
N9    H17   S    
C2    C13   S    
N8    H15   S    
N6    H11   S    
C11   N8    S    
C8    C14   S    
C4    C10   S    
C9    N6    S    
C4    O8    A    
N3    H5    S    
C11   C12   S    
C12   C14   S    
N9    H18   S    
