data_mof_unit_pretest_1169.cif
_audit_creation_date              2012-12-10T18:58:10-0500
_audit_creation_method            fapswitch 2.2
_symmetry_space_group_name_H-M    P1
_symmetry_Int_Tables_number       1
_space_group_crystal_system       triclinic
_cell_length_a                    10.979348
_cell_length_b                    10.82293
_cell_length_c                    9.534286
_cell_angle_alpha                 89.987684
_cell_angle_beta                  102.09512
_cell_angle_gamma                 89.905733
_cell_volume                      1107.79508056

loop_
_atom_site_label
_atom_site_type_symbol
_atom_type_description
_atom_site_fract_x
_atom_site_fract_y
_atom_site_fract_z
_atom_type_partial_charge
C1    C     C_R   0.501807 0.262240 0.500382 0.836706
C2    C     C_R   0.513969 0.129111 0.502648 -0.077842
C3    C     C_R   0.524193 0.064289 0.377780 -0.203095
C4    C     C_R   0.524964 0.935548 0.377969 -0.219233
C5    C     C_R   0.514857 0.870715 0.502849 -0.096855
C6    C     C_R   0.522226 0.936311 0.630362 0.121257
C7    C     C_3   0.442642 0.929511 0.739436 -0.459994
C8    C     C_3   0.442148 0.069856 0.739310 -0.485427
C9    C     C_R   0.553226 0.595167 0.086494 0.248795
C10   C     C_R   0.436696 0.412876 0.059200 -0.067733
C11   C     C_R   0.436569 0.412951 0.910206 -0.078017
C12   C     C_R   0.262400 0.497153 0.442580 0.844210
C13   C     C_R   0.553245 0.595141 0.939114 0.253438
C14   C     C_3   0.685985 0.635137 0.965260 -0.494636
C15   C     C_3   0.685941 0.635181 0.124532 -0.492685
C16   C     C_R   0.502395 0.737696 0.500483 0.797462
C17   C     C_R   0.737305 0.494182 0.557266 0.907428
C18   C     C_2   0.127285 0.482753 0.412120 -0.306756
C19   C     C_2   0.069409 0.454102 0.518524 -0.229698
C20   C     C_2   0.873004 0.486057 0.586594 -0.417130
C21   C     C_2   0.934771 0.432781 0.493917 0.006358
C22   C     C_R   0.521843 0.063478 0.630277 0.143035
Cu1   Cu    Cu3+1 0.499990 0.499980 0.640670 0.948749
Cu2   Cu    Cu3+1 0.500010 0.500020 0.359330 0.959310
H1    H     H_    0.492642 0.110302 0.842297 0.200280
H2    H     H_    0.387386 0.341030 0.103146 0.139319
H3    H     H_    0.386967 0.341331 0.842414 0.135337
H4    H     H_    0.748562 0.563645 0.934999 0.229626
H5    H     H_    0.696087 0.728969 0.921684 0.190177
H6    H     H_    0.748484 0.563751 0.185179 0.232296
H7    H     H_    0.695995 0.729042 0.172848 0.188444
H8    H     H_    0.121139 0.450357 0.629009 0.180069
H9    H     H_    0.923869 0.535412 0.679992 0.144742
H10   H     H_    0.076126 0.492170 0.302192 0.189592
H11   H     H_    0.525364 0.112275 0.278372 0.158850
H12   H     H_    0.526912 0.887544 0.278777 0.161475
H13   H     H_    0.349556 0.888534 0.695976 0.202854
H14   H     H_    0.493455 0.889147 0.842450 0.193539
H15   H     H_    0.348781 0.110541 0.695766 0.196011
N1    N     N_R   0.500780 0.500930 0.148120 -0.182673
N2    N     N_R   0.500790 0.500890 0.852210 -0.182808
O1    O     O_R   0.500000 0.319640 0.618810 -0.587573
O2    O     O_R   0.500010 0.319680 0.381230 -0.577721
O3    O     O_R   0.320680 0.500000 0.575130 -0.582523
O4    O     O_R   0.320690 0.500040 0.337550 -0.578928
O5    O     O_R   0.499990 0.680320 0.618770 -0.582095
O6    O     O_R   0.500000 0.680360 0.381190 -0.588911
O7    O     O_R   0.679310 0.499960 0.662450 -0.580981
O8    O     O_R   0.679320 0.500000 0.424870 -0.563802
C23   C     C_2   0.874672 0.344117 0.379941 0.888764
O9    O     O_2   0.914483 0.331956 0.270233 -0.623231
O10   O     O_R   0.776270 0.269731 0.401699 -0.762787
H16   H     H_    0.744688 0.212497 0.317861 0.325010

loop_
_geom_bond_atom_site_label_1
_geom_bond_atom_site_label_2
_ccdc_geom_bond_type
C2    C22   A    
C8    C22   S    
Cu1   Cu2   S    
C4    H12   S    
C15   H7    S    
C6    C7    S    
C12   O4    A    
C8    H15   S    
C11   H3    S    
C23   O10   S    
Cu1   N2    S    
C17   O7    A    
C3    H11   S    
C19   H8    S    
C10   H2    S    
C13   N2    A    
C23   O9    D    
C7    H13   S    
C7    C8    S    
C12   O3    A    
Cu1   O5    S    
C13   C14   S    
O10   H16   S    
C8    H1    S    
C18   H10   S    
Cu1   O1    S    
Cu2   N1    S    
C20   H9    S    
C16   O6    A    
C21   C23   S    
C19   C21   S    
C7    H14   S    
C11   N2    A    
C2    C3    A    
C9    C15   S    
C5    C6    A    
C10   C11   A    
Cu2   O4    S    
C14   H5    S    
C12   C18   S    
C3    C4    A    
C6    C22   A    
C1    O1    A    
C17   C20   S    
C20   C21   D    
C15   H6    S    
C10   N1    A    
C1    C2    S    
C16   O5    A    
Cu2   O8    S    
Cu2   O2    S    
C9    C13   A    
C14   C15   S    
C18   C19   D    
C5    C16   S    
Cu1   O7    S    
C14   H4    S    
Cu2   O6    S    
C1    O2    A    
C9    N1    A    
C17   O8    A    
Cu1   O3    S    
C4    C5    A    
