data_mof_unit_pretest_1480.cif
_audit_creation_date              2012-10-26T21:25:55-0400
_audit_creation_method            fapswitch 2.2
_symmetry_space_group_name_H-M    P1
_symmetry_Int_Tables_number       1
_space_group_crystal_system       triclinic
_cell_length_a                    10.821688
_cell_length_b                    10.831498
_cell_length_c                    12.727573
_cell_angle_alpha                 92.991235
_cell_angle_beta                  93.188922
_cell_angle_gamma                 89.304317
_cell_volume                      1487.46021644

loop_
_atom_site_label
_atom_site_type_symbol
_atom_type_description
_atom_site_fract_x
_atom_site_fract_y
_atom_site_fract_z
_atom_type_partial_charge
C1    C     C_R   0.261984 0.496808 0.500364 0.544537
C2    C     C_R   0.801555 0.739725 0.365491 -0.052268
C3    C     C_R   0.133645 0.368949 0.663344 -0.013042
C4    C     C_R   0.866355 0.631049 0.336655 -0.013042
C5    C     C_R   0.128437 0.406036 0.770383 -0.114693
C6    C     C_R   0.871564 0.593960 0.229616 -0.114693
C7    C     C_R   0.188465 0.335999 0.847462 -0.186300
C8    C     C_R   0.811533 0.663994 0.152535 -0.186299
C9    C     C_R   0.252425 0.227785 0.818306 -0.081149
C10   C     C_R   0.747571 0.772208 0.181690 -0.081148
C11   C     C_R   0.939239 0.448967 0.581025 -0.141675
C12   C     C_R   0.738016 0.503192 0.499636 0.544536
C13   C     C_R   0.060761 0.551033 0.418975 -0.141675
C14   C     C_R   0.871701 0.505598 0.499547 0.013863
C15   C     C_R   0.128299 0.494402 0.500453 0.013863
C16   C     C_R   0.502857 0.261976 0.500825 0.574265
C17   C     C_R   0.497142 0.738024 0.499175 0.574266
C18   C     C_R   0.932590 0.559050 0.418362 -0.022808
C19   C     C_R   0.067410 0.440950 0.581638 -0.022808
C20   C     C_2   0.473652 0.459511 0.030703 -0.176289
C21   C     C_2   0.526347 0.540489 0.969297 -0.176289
C22   C     C_1   0.522094 0.527114 0.852914 0.151215
C23   C     C_R   0.497723 0.871511 0.497577 -0.000984
C24   C     C_1   0.477906 0.472886 0.147085 0.151215
C25   C     C_R   0.878295 0.169644 0.716677 -0.113650
C26   C     C_R   0.121701 0.830360 0.283326 -0.113650
C27   C     C_R   0.793778 0.121129 0.638760 -0.061044
C28   C     C_R   0.206220 0.878873 0.361243 -0.061044
C29   C     C_R   0.666296 0.127684 0.653749 0.085525
C30   C     C_R   0.333701 0.872317 0.346252 0.085524
C31   C     C_R   0.624776 0.182521 0.748065 -0.026086
C32   C     C_R   0.375219 0.817478 0.251936 -0.026086
C33   C     C_R   0.709505 0.233651 0.824694 -0.109432
C34   C     C_R   0.502277 0.128489 0.502423 -0.000986
C35   C     C_R   0.290489 0.766349 0.175308 -0.109433
C36   C     C_R   0.836263 0.227043 0.809082 -0.104653
C37   C     C_R   0.163731 0.772959 0.190921 -0.104654
C38   C     C_R   0.575673 0.936431 0.572183 0.381027
C39   C     C_R   0.424327 0.063569 0.427816 0.381029
C40   C     C_R   0.421581 0.935173 0.424253 -0.021118
C41   C     C_R   0.578419 0.064827 0.575747 -0.021122
C42   C     C_R   0.256702 0.189490 0.711943 0.373231
C43   C     C_R   0.743295 0.810505 0.288053 0.373232
C44   C     C_R   0.198443 0.260273 0.634506 -0.052269
Cu1   Cu    Cu3+1 0.492140 0.492110 0.395880 1.042684
Cu2   Cu    Cu3+1 0.507860 0.507890 0.604120 1.042684
F1    F     F_    0.651530 0.874385 0.640685 -0.617352
F2    F     F_    0.348470 0.125615 0.359315 -0.617351
F3    F     F_    0.315595 0.082618 0.683971 -0.666986
F4    F     F_    0.684400 0.917376 0.316023 -0.666986
H1    H     H_    0.901941 0.265385 0.868910 0.121851
H2    H     H_    0.426260 0.379634 0.993365 0.126356
H3    H     H_    0.976364 0.162275 0.705514 0.131953
H4    H     H_    0.023633 0.837730 0.294490 0.131953
H5    H     H_    0.827600 0.076300 0.567731 0.136639
H6    H     H_    0.172400 0.923703 0.432272 0.136642
H7    H     H_    0.527182 0.185318 0.762401 0.160607
H8    H     H_    0.472813 0.814680 0.237599 0.160611
H9    H     H_    0.676985 0.276875 0.896771 0.114948
H10   H     H_    0.323007 0.723124 0.103231 0.114948
H11   H     H_    0.297927 0.173233 0.878231 0.138668
H12   H     H_    0.098051 0.734618 0.131094 0.121852
H13   H     H_    0.702067 0.826757 0.121764 0.138666
H14   H     H_    0.201769 0.229440 0.552349 0.146536
H15   H     H_    0.798228 0.770559 0.447648 0.146535
H16   H     H_    0.078188 0.489093 0.793938 0.131385
H17   H     H_    0.921814 0.510903 0.206062 0.131385
H18   H     H_    0.184613 0.365141 0.929868 0.122104
H19   H     H_    0.815386 0.634850 0.070130 0.122104
H20   H     H_    0.891520 0.407025 0.642513 0.139162
H21   H     H_    0.108480 0.592975 0.357487 0.139163
H22   H     H_    0.573739 0.620367 0.006635 0.126356
N1    N     N_1   0.480320 0.480250 0.239400 -0.179321
N2    N     N_1   0.519680 0.519750 0.760600 -0.179321
O1    O     O_R   0.313000 0.493330 0.412070 -0.496673
O2    O     O_R   0.687000 0.506670 0.587930 -0.496672
O3    O     O_R   0.326280 0.506660 0.587930 -0.497054
O4    O     O_R   0.673720 0.493340 0.412070 -0.497054
O5    O     O_R   0.493370 0.312980 0.412070 -0.426375
O6    O     O_R   0.506630 0.687020 0.587930 -0.426375
O7    O     O_R   0.506650 0.326310 0.587930 -0.527604
O8    O     O_R   0.493350 0.673690 0.412070 -0.527604

loop_
_geom_bond_atom_site_label_1
_geom_bond_atom_site_label_2
_ccdc_geom_bond_type
Cu2   O6    S    
C27   C29   A    
C1    O3    A    
C14   C18   A    
Cu1   O8    S    
C32   H8    S    
C2    H15   S    
C10   H13   S    
Cu2   O2    S    
C37   H12   S    
C28   H6    S    
C11   H20   S    
Cu1   Cu2   S    
C44   H14   S    
C15   C19   A    
C11   C19   A    
C9    C42   A    
C17   C23   S    
C13   C18   A    
C9    H11   S    
C35   C37   A    
C25   H3    S    
C11   C14   A    
C27   H5    S    
C24   N1    T    
C23   C40   A    
C33   C36   A    
Cu1   N1    S    
C17   O8    A    
C16   C34   S    
C7    H18   S    
C20   C24   S    
C12   O4    A    
C31   C33   A    
C3    C19   S    
Cu1   O4    S    
C1    C15   S    
C4    C18   S    
C42   F3    S    
C33   H9    S    
C21   C22   S    
C34   C41   A    
C42   C44   A    
C26   H4    S    
C3    C44   A    
C21   H22   S    
C34   C39   A    
C1    O1    A    
C32   C35   A    
C38   C41   A    
C4    C6    A    
C39   C40   A    
C5    C7    A    
C6    C8    A    
C13   H21   S    
C17   O6    A    
C35   H10   S    
C2    C4    A    
Cu1   O5    S    
Cu2   O7    S    
C2    C43   A    
C8    H19   S    
C30   C40   S    
C26   C37   A    
C38   F1    S    
C36   H1    S    
C8    C10   A    
C6    H17   S    
C12   C14   S    
C13   C15   A    
C12   O2    A    
C22   N2    T    
Cu2   N2    S    
C7    C9    A    
C29   C41   S    
C10   C43   A    
C5    H16   S    
C3    C5    A    
Cu2   O3    S    
C43   F4    S    
C25   C27   A    
C23   C38   A    
C26   C28   A    
Cu1   O1    S    
C16   O5    A    
C31   H7    S    
C28   C30   A    
C20   H2    S    
C30   C32   A    
C16   O7    A    
C25   C36   A    
C20   C21   D    
C29   C31   A    
C39   F2    S    
