data_mof_unit_pretest_127.cif
_audit_creation_date              2012-12-10T20:34:46-0500
_audit_creation_method            fapswitch 2.2
_symmetry_space_group_name_H-M    P1
_symmetry_Int_Tables_number       1
_space_group_crystal_system       triclinic
_cell_length_a                    10.74331
_cell_length_b                    10.721042
_cell_length_c                    9.908041
_cell_angle_alpha                 90.49868
_cell_angle_beta                  91.545733
_cell_angle_gamma                 90.236633
_cell_volume                      1140.73363416

loop_
_atom_site_label
_atom_site_type_symbol
_atom_type_description
_atom_site_fract_x
_atom_site_fract_y
_atom_site_fract_z
_atom_type_partial_charge
C1    C     C_R   0.507950 0.260343 0.499302 0.898448
C2    C     C_3   0.878183 0.499360 0.501459 0.113056
C3    C     C_3   0.926015 0.638495 0.511074 -0.048954
C4    C     C_3   0.923232 0.440556 0.365726 -0.492849
C5    C     C_R   0.510771 0.065793 0.619709 0.098953
C6    C     C_R   0.530202 0.128763 0.499848 -0.166817
C7    C     C_R   0.573586 0.061329 0.386622 0.068468
C8    C     C_R   0.570813 0.931697 0.390015 -0.218854
C9    C     C_R   0.526216 0.871137 0.504026 -0.146090
C10   C     C_R   0.509996 0.938476 0.622811 0.085991
C11   C     C_3   0.406436 0.935188 0.720960 -0.541197
C12   C     C_R   0.257587 0.501006 0.497681 0.845406
C13   C     C_3   0.407583 0.076231 0.717562 -0.080602
C14   C     C_R   0.452935 0.400614 0.069016 0.195235
C15   C     C_R   0.556874 0.591581 0.076714 -0.125146
C16   C     C_R   0.564201 0.588984 0.933742 0.169907
C17   C     C_R   0.449095 0.402662 0.926731 0.203872
C18   C     C_3   0.316091 0.361768 0.922778 -0.517141
C19   C     C_3   0.323724 0.351985 0.074982 -0.531746
C20   C     C_R   0.504386 0.739912 0.500812 0.861735
C21   C     C_R   0.741981 0.496180 0.501010 0.834012
C22   C     C_3   0.075296 0.411561 0.602755 -0.463977
C23   C     C_3   0.933288 0.414690 0.614576 -0.044257
C24   C     C_3   0.071316 0.640605 0.517729 0.031000
C25   C     C_3   0.064375 0.458810 0.352105 -0.107482
C26   C     C_3   0.120718 0.504727 0.493479 0.075058
H1    H     H_    0.120279 0.427077 0.702765 0.191892
H2    H     H_    0.874026 0.482221 0.276713 0.221225
H3    H     H_    0.096650 0.692911 0.425920 0.103836
H4    H     H_    0.896033 0.683835 0.414364 0.111236
H5    H     H_    0.596380 0.879293 0.300965 0.169144
H6    H     H_    0.320036 0.894791 0.677452 0.200260
H7    H     H_    0.434458 0.898614 0.821411 0.185911
H8    H     H_    0.437802 0.120910 0.814610 0.163679
H9    H     H_    0.598751 0.666417 0.136048 0.159956
H10   H     H_    0.103260 0.315429 0.573037 0.151347
H11   H     H_    0.252599 0.436664 0.888565 0.198987
H12   H     H_    0.300015 0.270700 0.872759 0.212647
H13   H     H_    0.260873 0.416617 0.126677 0.217464
H14   H     H_    0.321125 0.254299 0.111563 0.194766
H15   H     H_    0.897138 0.318033 0.596684 0.124220
H16   H     H_    0.106910 0.367797 0.324121 0.151396
H17   H     H_    0.900422 0.339122 0.361135 0.147526
N1    N     N_R   0.499150 0.499140 0.142800 -0.129106
N2    N     N_R   0.499150 0.499180 0.857150 -0.136734
O1    O     O_R   0.500020 0.316790 0.614690 -0.598286
O2    O     O_R   0.500000 0.316760 0.385350 -0.630962
O3    O     O_R   0.314800 0.500000 0.614670 -0.603702
O4    O     O_R   0.314790 0.499960 0.385330 -0.636789
O5    O     O_R   0.500000 0.683240 0.614650 -0.641991
O6    O     O_R   0.499980 0.683210 0.385310 -0.626834
O7    O     O_R   0.685210 0.500040 0.614670 -0.605990
O8    O     O_R   0.685200 0.500000 0.385330 -0.644801
Zn1   Zn    Zn3+2 0.500010 0.500020 0.653130 0.943336
Zn2   Zn    Zn3+2 0.499990 0.499980 0.346870 0.915681
N3    N     N_3   0.615438 0.119723 0.266317 -0.466731
H18   H     H_    0.539482 0.160274 0.215702 0.209103
H19   H     H_    0.681461 0.188216 0.292798 0.190113
N4    N     N_3   0.293187 0.128868 0.657450 -0.456807
H20   H     H_    0.220060 0.108938 0.721481 0.176357
H21   H     H_    0.271553 0.085316 0.564713 0.186106
C27   C     C_3   0.644442 0.687642 0.871551 -0.347100
C28   C     C_3   0.771911 0.703744 0.943029 -0.941420
H22   H     H_    0.763634 0.751917 0.041870 0.249176
H23   H     H_    0.817378 0.612048 0.958643 0.271272
H24   H     H_    0.831926 0.763487 0.881119 0.261056
H25   H     H_    0.662811 0.663016 0.767453 0.280759
H26   H     H_    0.595864 0.778232 0.873885 0.188499
N5    N     N_3   0.895804 0.451692 0.750365 -0.416159
H27   H     H_    0.942369 0.532611 0.780699 0.233297
H28   H     H_    0.923131 0.381939 0.817999 0.163755
C29   C     C_3   0.140541 0.725471 0.624424 -0.392794
C30   C     C_3   0.127352 0.699373 0.774548 -0.814593
H29   H     H_    0.032587 0.719607 0.808570 0.254641
H30   H     H_    0.154502 0.603760 0.800179 0.248128
H31   H     H_    0.191185 0.762505 0.833092 0.230931
H32   H     H_    0.240871 0.722175 0.602620 0.202849
H33   H     H_    0.113071 0.824045 0.607019 0.173328
N6    N     N_3   0.869574 0.710360 0.619831 -0.443756
H34   H     H_    0.904637 0.801309 0.618345 0.179729
H35   H     H_    0.775832 0.723331 0.593443 0.166520
N7    N     N_3   0.081968 0.548128 0.241440 -0.482256
H36   H     H_    0.060033 0.503444 0.149481 0.179096
H37   H     H_    0.172848 0.581008 0.235787 0.211554

loop_
_geom_bond_atom_site_label_1
_geom_bond_atom_site_label_2
_ccdc_geom_bond_type
C28   H23   S    
C30   H29   S    
C23   N5    S    
C12   O3    A    
C3    N6    S    
C12   O4    A    
C7    C8    A    
O3    Zn1   S    
O5    Zn1   S    
C27   H25   S    
O2    Zn2   S    
C18   H11   S    
C17   N2    A    
C15   N1    A    
C20   O6    A    
C5    C6    A    
C1    O1    A    
C15   C16   A    
N3    H18   S    
C18   C19   S    
N5    H28   S    
C24   H3    S    
C20   O5    A    
C29   H32   S    
C8    C9    A    
C29   H33   S    
C9    C10   A    
C5    C13   S    
C28   H24   S    
N4    H20   S    
C30   H30   S    
C14   C17   A    
C3    C24   S    
C16   C27   S    
C7    N3    S    
C15   H9    S    
C4    H2    S    
O7    Zn1   S    
C4    C25   S    
O8    Zn2   S    
N4    H21   S    
C1    C6    S    
C11   H7    S    
C19   H14   S    
N6    H35   S    
C1    O2    A    
C25   C26   S    
O4    Zn2   S    
C28   H22   S    
C12   C26   S    
C25   H16   S    
C3    H4    S    
C2    C4    S    
C27   C28   S    
C9    C20   S    
O1    Zn1   S    
C2    C21   S    
C17   C18   S    
C19   H13   S    
C11   H6    S    
N7    H37   S    
C22   H1    S    
C25   N7    S    
C30   H31   S    
C24   C29   S    
C14   N1    A    
C8    H5    S    
C14   C19   S    
C24   C26   S    
C29   C30   S    
C16   N2    A    
N2    Zn1   S    
C6    C7    A    
C13   N4    S    
C4    H17   S    
C22   H10   S    
C23   H15   S    
C27   H26   S    
C2    C3    S    
C18   H12   S    
C5    C10   A    
C21   O8    A    
C11   C13   S    
N1    Zn2   S    
N3    H19   S    
O6    Zn2   S    
N5    H27   S    
C10   C11   S    
N6    H34   S    
C13   H8    S    
N7    H36   S    
C22   C26   S    
C2    C23   S    
C22   C23   S    
C21   O7    A    
