data_mof_unit_pretest_1849.cif
_audit_creation_date              2012-12-10T20:21:04-0500
_audit_creation_method            fapswitch 2.2
_symmetry_space_group_name_H-M    P1
_symmetry_Int_Tables_number       1
_space_group_crystal_system       triclinic
_cell_length_a                    36.302122
_cell_length_b                    25.68147
_cell_length_c                    25.678354
_cell_angle_alpha                 89.999786
_cell_angle_beta                  90.00754
_cell_angle_gamma                 90.000011
_cell_volume                      23939.7201299

loop_
_atom_site_label
_atom_site_type_symbol
_atom_type_description
_atom_site_fract_x
_atom_site_fract_y
_atom_site_fract_z
_atom_type_partial_charge
C1    C     C_R   0.749999 0.349065 0.599071 0.828112
C2    C     C_R   0.775214 0.502595 0.708894 -0.178752
C3    C     C_R   0.480764 0.797245 0.999964 -0.179365
C4    C     C_R   0.038486 0.249997 0.499999 0.162930
C5    C     C_R   0.961514 0.249998 0.500000 0.162927
C6    C     C_R   0.538486 0.749997 1.000000 0.162929
C7    C     C_R   0.461514 0.749998 0.000000 0.162930
C8    C     C_R   0.019236 0.202750 0.499948 -0.177953
C9    C     C_R   0.980764 0.202751 0.499949 -0.177889
C10   C     C_R   0.519236 0.702750 0.000036 -0.177966
C11   C     C_R   0.480764 0.702751 0.000037 -0.177914
C12   C     C_1   0.077975 0.249996 0.499999 -0.075825
C13   C     C_R   0.768965 0.508187 0.296711 -0.178223
C14   C     C_1   0.922025 0.249997 0.500000 -0.075814
C15   C     C_1   0.577975 0.749996 1.000000 -0.075818
C16   C     C_1   0.422025 0.749997 0.000000 -0.075825
C17   C     C_1   0.888910 0.249992 0.500000 -0.136726
C18   C     C_1   0.111090 0.249992 0.500000 -0.136742
C19   C     C_1   0.388910 0.749992 0.000000 -0.136740
C20   C     C_1   0.611090 0.749992 1.000000 -0.136732
C21   C     C_R   0.849557 0.249984 0.500000 0.829982
C22   C     C_R   0.150443 0.249984 0.500000 0.829973
C23   C     C_R   0.349557 0.749984 1.000000 0.829974
C24   C     C_R   0.225155 0.503013 0.291524 -0.178805
C25   C     C_R   0.650443 0.749984 0.000000 0.829980
C26   C     C_R   0.650418 0.249997 0.499991 0.830219
C27   C     C_R   0.349581 0.249994 0.500009 0.830333
C28   C     C_R   0.150417 0.749997 0.999991 0.830211
C29   C     C_R   0.849581 0.749993 0.000009 0.830341
C30   C     C_3   0.521853 0.222291 0.550156 0.025124
C31   C     C_3   0.478843 0.228594 0.553583 0.028393
C32   C     C_3   0.478152 0.217263 0.453005 0.025359
C33   C     C_3   0.521154 0.223257 0.448917 0.028512
C34   C     C_3   0.021853 0.722201 0.050105 0.025157
C35   C     C_R   0.733638 0.009813 0.201664 -0.177968
C36   C     C_3   0.978842 0.728498 0.053543 0.028409
C37   C     C_3   0.978153 0.717348 0.952944 0.025358
C38   C     C_3   0.021155 0.723346 0.948869 0.028514
C39   C     C_1   0.389030 0.250044 0.500070 -0.145727
C40   C     C_1   0.610969 0.250051 0.499933 -0.145731
C41   C     C_1   0.889029 0.750043 0.000069 -0.145716
C42   C     C_1   0.110969 0.750051 0.999934 -0.145743
C43   C     C_3   0.536854 0.250314 0.499517 0.115842
C44   C     C_3   0.463146 0.250337 0.500485 0.115756
C45   C     C_3   0.036854 0.750314 0.999517 0.115848
C46   C     C_R   0.275059 0.002772 0.208717 -0.178730
C47   C     C_3   0.963145 0.750336 0.000483 0.115759
C48   C     C_3   0.477826 0.308592 0.494350 -0.156153
C49   C     C_3   0.522168 0.308882 0.499654 -0.156253
C50   C     C_3   0.977825 0.808601 0.994453 -0.156184
C51   C     C_3   0.022167 0.808882 0.999757 -0.156265
C52   C     C_1   0.422215 0.250089 0.500264 -0.033394
C53   C     C_1   0.577784 0.250087 0.499748 -0.032992
C54   C     C_1   0.922214 0.750088 0.000262 -0.033383
C55   C     C_1   0.077784 0.750088 0.999748 -0.033000
C56   C     C_3   0.457787 0.182099 0.577821 -0.865834
C57   C     C_R   0.269128 0.008074 0.796598 -0.178225
C58   C     C_3   0.536294 0.166282 0.559034 -0.851713
C59   C     C_3   0.542257 0.174597 0.429496 -0.866639
C60   C     C_3   0.463768 0.160607 0.449994 -0.852042
C61   C     C_3   0.957786 0.681960 0.077698 -0.865874
C62   C     C_3   0.036293 0.666177 0.058880 -0.851802
C63   C     C_3   0.042257 0.674718 0.929365 -0.866615
C64   C     C_3   0.963767 0.660698 0.949831 -0.852056
C65   C     C_1   0.534780 0.335601 0.547918 0.158448
C66   C     C_1   0.459974 0.343174 0.533451 0.183470
C67   C     C_1   0.465210 0.330217 0.443602 0.158801
C68   C     C_R   0.726262 0.004188 0.792700 -0.178747
C69   C     C_1   0.540013 0.339290 0.457213 0.183622
C70   C     C_1   0.034780 0.835515 0.048068 0.158461
C71   C     C_1   0.959973 0.843113 0.033616 0.183483
C72   C     C_1   0.965210 0.830317 0.943744 0.158814
C73   C     C_1   0.040012 0.839363 0.957371 0.183616
C74   C     C_R   0.250028 0.461387 0.711417 0.161909
C75   C     C_R   0.749975 0.461389 0.711414 0.161438
C76   C     C_R   0.749973 0.461387 0.288583 0.161724
C77   C     C_R   0.250003 0.349065 0.599074 0.828276
C78   C     C_R   0.250025 0.461389 0.288586 0.161375
C79   C     C_R   0.750028 0.961387 0.211417 0.161925
C80   C     C_R   0.249975 0.961389 0.211414 0.161426
C81   C     C_R   0.249973 0.961387 0.788583 0.161710
C82   C     C_R   0.750025 0.961389 0.788586 0.161422
C83   C     C_R   0.266406 0.451633 0.759858 -0.176662
C84   C     C_R   0.724735 0.458858 0.752618 -0.176018
C85   C     C_R   0.730982 0.453264 0.241773 -0.176321
C86   C     C_R   0.274896 0.458440 0.246963 -0.175843
C87   C     C_R   0.766417 0.951639 0.259852 -0.176668
C88   C     C_R   0.250001 0.349065 0.400929 0.828056
C89   C     C_R   0.224890 0.958681 0.252796 -0.175990
C90   C     C_R   0.230819 0.953378 0.741886 -0.176301
C91   C     C_R   0.773790 0.957265 0.745787 -0.175895
C92   C     C_R   0.766415 0.990153 0.298372 -0.177984
C93   C     C_R   0.224889 0.997194 0.291318 -0.177908
C94   C     C_R   0.230821 0.991892 0.703366 -0.177849
C95   C     C_R   0.773790 0.995778 0.707265 -0.177919
C96   C     C_R   0.266405 0.490148 0.798377 -0.177957
C97   C     C_R   0.724734 0.497371 0.791141 -0.177918
C98   C     C_R   0.730983 0.491779 0.203253 -0.177865
C99   C     C_R   0.749997 0.349064 0.400926 0.828263
C100  C     C_R   0.274897 0.496953 0.208440 -0.177894
C101  C     C_R   0.750024 0.038579 0.288619 0.161765
C102  C     C_R   0.249974 0.038577 0.288622 0.161476
C103  C     C_R   0.249976 0.038579 0.711380 0.161652
C104  C     C_R   0.750026 0.038577 0.711379 0.161501
C105  C     C_R   0.250024 0.538579 0.788618 0.161748
C106  C     C_R   0.749974 0.538577 0.788622 0.161494
C107  C     C_R   0.749976 0.538579 0.211381 0.161663
C108  C     C_R   0.250026 0.538577 0.211378 0.161494
C109  C     C_R   0.733636 0.048327 0.240183 -0.178523
C110  C     C_R   0.249999 0.849065 0.099071 0.828123
C111  C     C_R   0.275058 0.041284 0.247240 -0.178721
C112  C     C_R   0.269129 0.046588 0.758078 -0.178743
C113  C     C_R   0.726262 0.042701 0.754178 -0.178778
C114  C     C_R   0.233647 0.548333 0.740177 -0.178513
C115  C     C_R   0.775214 0.541107 0.747417 -0.178760
C116  C     C_R   0.768966 0.546701 0.258191 -0.178746
C117  C     C_R   0.225155 0.541526 0.253002 -0.178812
C118  C     C_1   0.250025 0.421756 0.671782 -0.072786
C119  C     C_1   0.749980 0.421758 0.671777 -0.072891
C120  C     C_1   0.749976 0.421755 0.328218 -0.072720
C121  C     C_R   0.750003 0.849065 0.099073 0.828266
C122  C     C_1   0.250021 0.421758 0.328222 -0.072795
C123  C     C_1   0.750025 0.921756 0.171783 -0.072807
C124  C     C_1   0.249980 0.921758 0.171777 -0.072859
C125  C     C_1   0.249976 0.921755 0.828218 -0.072712
C126  C     C_1   0.750021 0.921758 0.828222 -0.072791
C127  C     C_1   0.750023 0.078210 0.328254 -0.074758
C128  C     C_1   0.249972 0.078207 0.328259 -0.074725
C129  C     C_1   0.249977 0.078210 0.671746 -0.074801
C130  C     C_1   0.750027 0.078207 0.671741 -0.074798
C131  C     C_1   0.250023 0.578210 0.828253 -0.074734
C132  C     C_R   0.750001 0.849065 0.900929 0.828062
C133  C     C_1   0.749972 0.578207 0.828259 -0.074756
C134  C     C_1   0.749977 0.578210 0.171745 -0.074811
C135  C     C_1   0.250027 0.578207 0.171741 -0.074798
C136  C     C_1   0.750023 0.111407 0.361451 -0.138285
C137  C     C_1   0.249972 0.111404 0.361457 -0.138093
C138  C     C_1   0.249977 0.111408 0.638548 -0.138371
C139  C     C_1   0.750027 0.111404 0.638543 -0.138225
C140  C     C_1   0.250023 0.611407 0.861451 -0.138261
C141  C     C_1   0.749972 0.611404 0.861457 -0.138122
C142  C     C_1   0.749977 0.611408 0.138548 -0.138379
C143  C     C_R   0.249997 0.849064 0.900926 0.828269
C144  C     C_1   0.250027 0.611404 0.138542 -0.138224
C145  C     C_1   0.250017 0.388560 0.638583 -0.136321
C146  C     C_1   0.749987 0.388563 0.638576 -0.136301
C147  C     C_1   0.749983 0.388560 0.361418 -0.136167
C148  C     C_1   0.250013 0.388564 0.361424 -0.136141
C149  C     C_1   0.750017 0.888561 0.138582 -0.136344
C150  C     C_1   0.249987 0.888563 0.138576 -0.136270
C151  C     C_1   0.249983 0.888560 0.861418 -0.136162
C152  C     C_1   0.750013 0.888563 0.861424 -0.136147
C153  C     C_R   0.750023 0.150910 0.400953 0.824460
C154  C     C_R   0.233648 0.509819 0.701658 -0.177939
C155  C     C_R   0.249974 0.150910 0.400956 0.824478
C156  C     C_R   0.249976 0.150910 0.599047 0.824592
C157  C     C_R   0.750025 0.150910 0.599044 0.824499
C158  C     C_R   0.250023 0.650910 0.900953 0.824473
C159  C     C_R   0.749975 0.650910 0.900956 0.824466
C160  C     C_R   0.749976 0.650910 0.099047 0.824585
C161  C     C_R   0.250025 0.650910 0.099044 0.824492
C162  C     C_R   0.019236 0.297244 0.500051 -0.179323
C163  C     C_R   0.980764 0.297245 0.500052 -0.179376
C164  C     C_R   0.519236 0.797244 0.999963 -0.179304
H1    H     H_    0.525784 0.250965 0.416247 0.143219
H2    H     H_    0.294573 0.073109 0.244771 0.143138
H3    H     H_    0.284032 0.082539 0.764684 0.142970
H4    H     H_    0.707774 0.075628 0.757748 0.143065
H5    H     H_    0.220903 0.585641 0.732213 0.143017
H6    H     H_    0.794849 0.572795 0.745086 0.143110
H7    H     H_    0.783742 0.582740 0.264885 0.142961
H8    H     H_    0.205807 0.573539 0.255658 0.143021
H9    H     H_    0.220906 0.517778 0.664342 0.143138
H10   H     H_    0.794850 0.504933 0.677208 0.143053
H11   H     H_    0.783740 0.514876 0.332758 0.143134
H12   H     H_    0.466481 0.234899 0.416987 0.145504
H13   H     H_    0.205806 0.505677 0.323536 0.143019
H14   H     H_    0.720888 0.017767 0.164352 0.143111
H15   H     H_    0.294575 0.005248 0.176894 0.143071
H16   H     H_    0.284029 0.014675 0.832557 0.143141
H17   H     H_    0.707773 0.007766 0.825626 0.143047
H18   H     H_    0.279149 0.414325 0.767822 0.143690
H19   H     H_    0.705100 0.427170 0.754949 0.144822
H20   H     H_    0.716207 0.417225 0.235079 0.144140
H21   H     H_    0.294244 0.426426 0.244306 0.145027
H22   H     H_    0.779167 0.914335 0.267811 0.143681
H23   H     H_    0.474160 0.259471 0.583260 0.143183
H24   H     H_    0.205375 0.926856 0.255264 0.144829
H25   H     H_    0.215918 0.917426 0.735280 0.144165
H26   H     H_    0.792277 0.924337 0.742216 0.144897
H27   H     H_    0.779164 0.982199 0.335683 0.143288
H28   H     H_    0.205374 0.994718 0.323142 0.143854
H29   H     H_    0.215919 0.985291 0.667407 0.143584
H30   H     H_    0.792278 0.992200 0.674338 0.143854
H31   H     H_    0.279146 0.482189 0.835694 0.143312
H32   H     H_    0.705098 0.495032 0.822828 0.143848
H33   H     H_    0.716209 0.485090 0.167206 0.143565
H34   H     H_    0.533488 0.243569 0.584171 0.145633
H35   H     H_    0.294245 0.494289 0.176428 0.143911
H36   H     H_    0.966059 0.333960 0.500092 0.143162
H37   H     H_    0.033942 0.333959 0.500091 0.143190
H38   H     H_    0.466059 0.833960 0.999935 0.143170
H39   H     H_    0.533941 0.833959 0.999935 0.143205
H40   H     H_    0.033941 0.166035 0.499908 0.144172
H41   H     H_    0.966059 0.166036 0.499909 0.144211
H42   H     H_    0.533941 0.666035 0.000064 0.144163
H43   H     H_    0.466059 0.666036 0.000065 0.144193
H44   H     H_    0.458198 0.146804 0.553442 0.255570
H45   H     H_    0.025788 0.751111 0.916247 0.143216
H46   H     H_    0.469832 0.172256 0.616327 0.238020
H47   H     H_    0.428586 0.192629 0.585108 0.242100
H48   H     H_    0.520811 0.136833 0.536874 0.247387
H49   H     H_    0.565929 0.162838 0.549177 0.241231
H50   H     H_    0.533654 0.155894 0.600858 0.231501
H51   H     H_    0.542088 0.142076 0.457473 0.255566
H52   H     H_    0.530084 0.160683 0.392351 0.238417
H53   H     H_    0.571386 0.184497 0.420872 0.241404
H54   H     H_    0.479397 0.133597 0.474890 0.247642
H55   H     H_    0.434186 0.158098 0.460426 0.240886
H56   H     H_    0.966484 0.735050 0.916956 0.145505
H57   H     H_    0.466244 0.146029 0.409419 0.231258
H58   H     H_    0.958190 0.646713 0.053251 0.255566
H59   H     H_    0.969835 0.672041 0.116181 0.238022
H60   H     H_    0.928587 0.692482 0.085012 0.242090
H61   H     H_    0.020806 0.636770 0.036671 0.247407
H62   H     H_    0.065928 0.662748 0.049012 0.241218
H63   H     H_    0.033657 0.655715 0.100686 0.231468
H64   H     H_    0.042079 0.642144 0.957281 0.255557
H65   H     H_    0.030087 0.660876 0.892191 0.238410
H66   H     H_    0.071389 0.684628 0.920769 0.241420
H67   H     H_    0.974159 0.759322 0.083275 0.143178
H68   H     H_    0.979393 0.633644 0.974683 0.247635
H69   H     H_    0.934184 0.658173 0.960250 0.240888
H70   H     H_    0.966248 0.646191 0.909231 0.231259
H71   H     H_    0.033488 0.743419 0.084159 0.145620
H72   H     H_    0.720885 0.085630 0.232224 0.143005
N1    N     N_1   0.544634 0.356360 0.585435 -0.193749
N2    N     N_1   0.446039 0.370015 0.563840 -0.190977
N3    N     N_1   0.455354 0.347019 0.404153 -0.193331
N4    N     N_1   0.553941 0.362879 0.424235 -0.190453
N5    N     N_1   0.044635 0.856209 0.085621 -0.193718
N6    N     N_1   0.946038 0.869901 0.064053 -0.190958
N7    N     N_1   0.955353 0.847190 0.904325 -0.193212
N8    N     N_1   0.053943 0.863012 0.924433 -0.190438
O1    O     O_3   0.750020 0.249980 0.500000 -0.482206
O2    O     O_R   0.771480 0.810110 0.102800 -0.634356
O3    O     O_R   0.771480 0.810110 0.897200 -0.634076
O4    O     O_R   0.228520 0.810110 0.897200 -0.634197
O5    O     O_R   0.728520 0.189860 0.397190 -0.637151
O6    O     O_R   0.271480 0.189860 0.397190 -0.636749
O7    O     O_R   0.271480 0.189860 0.602810 -0.637315
O8    O     O_R   0.728520 0.189860 0.602810 -0.636895
O9    O     O_R   0.228520 0.689860 0.897190 -0.637154
O10   O     O_R   0.771480 0.689860 0.897190 -0.636771
O11   O     O_R   0.771480 0.689860 0.102810 -0.637315
O12   O     O_3   0.249980 0.249980 0.500000 -0.482203
O13   O     O_R   0.228520 0.689860 0.102810 -0.636887
O14   O     O_R   0.771490 0.352810 0.439870 -0.636629
O15   O     O_R   0.228510 0.352810 0.439870 -0.636793
O16   O     O_R   0.228510 0.352810 0.560130 -0.636530
O17   O     O_R   0.771490 0.352810 0.560130 -0.636696
O18   O     O_R   0.271490 0.852810 0.939870 -0.636630
O19   O     O_R   0.728510 0.852810 0.939870 -0.636800
O20   O     O_R   0.728510 0.852810 0.060130 -0.636551
O21   O     O_R   0.271490 0.852810 0.060130 -0.636700
O22   O     O_R   0.771530 0.147160 0.560090 -0.636117
O23   O     O_3   0.250020 0.749980 0.000000 -0.482208
O24   O     O_R   0.228470 0.147160 0.560090 -0.635859
O25   O     O_R   0.228470 0.147160 0.439910 -0.636157
O26   O     O_R   0.771530 0.147160 0.439910 -0.635892
O27   O     O_R   0.271530 0.647160 0.060090 -0.636121
O28   O     O_R   0.728470 0.647160 0.060090 -0.635858
O29   O     O_R   0.728470 0.647160 0.939910 -0.636154
O30   O     O_R   0.271530 0.647160 0.939910 -0.635871
O31   O     O_R   0.832000 0.292700 0.500000 -0.637741
O32   O     O_R   0.168000 0.292700 0.500000 -0.637672
O33   O     O_R   0.332000 0.792700 0.000000 -0.637733
O34   O     O_3   0.749980 0.749980 0.000000 -0.482200
O35   O     O_R   0.668000 0.792700 0.000000 -0.637654
O36   O     O_R   0.668030 0.249990 0.542720 -0.635016
O37   O     O_R   0.331970 0.249990 0.542720 -0.636345
O38   O     O_R   0.331970 0.249990 0.457280 -0.634403
O39   O     O_R   0.668030 0.249990 0.457280 -0.635618
O40   O     O_R   0.168030 0.749990 0.042720 -0.635017
O41   O     O_R   0.831970 0.749990 0.042720 -0.636337
O42   O     O_R   0.831970 0.749990 0.957280 -0.634399
O43   O     O_R   0.168030 0.749990 0.957280 -0.635626
O44   O     O_R   0.832010 0.207260 0.500000 -0.636495
O45   O     O_R   0.728520 0.310110 0.602800 -0.634294
O46   O     O_R   0.167990 0.207260 0.500000 -0.636580
O47   O     O_R   0.332010 0.707260 0.000000 -0.636517
O48   O     O_R   0.667990 0.707260 0.000000 -0.636588
O49   O     O_R   0.271480 0.310110 0.602800 -0.634361
O50   O     O_R   0.271480 0.310110 0.397200 -0.634078
O51   O     O_R   0.728520 0.310110 0.397200 -0.634194
O52   O     O_R   0.228520 0.810110 0.102800 -0.634270
Zn1   Zn    Zn3+2 0.719300 0.249980 0.438970 0.981586
Zn2   Zn    Zn3+2 0.219280 0.311020 0.500000 0.980193
Zn3   Zn    Zn3+2 0.280720 0.811020 0.000000 0.980162
Zn4   Zn    Zn3+2 0.719280 0.811020 0.000000 0.980186
Zn5   Zn    Zn3+2 0.780730 0.188950 0.500000 0.978629
Zn6   Zn    Zn3+2 0.219270 0.188950 0.500000 0.978600
Zn7   Zn    Zn3+2 0.280730 0.688950 0.000000 0.978628
Zn8   Zn    Zn3+2 0.719270 0.688950 0.000000 0.978590
Zn9   Zn    Zn3+2 0.280700 0.249980 0.438970 0.982477
Zn10  Zn    Zn3+2 0.280700 0.249980 0.561030 0.980983
Zn11  Zn    Zn3+2 0.719300 0.249980 0.561030 0.981868
Zn12  Zn    Zn3+2 0.219300 0.749980 0.938970 0.981583
Zn13  Zn    Zn3+2 0.780700 0.749980 0.938970 0.982465
Zn14  Zn    Zn3+2 0.780700 0.749980 0.061030 0.980987
Zn15  Zn    Zn3+2 0.219300 0.749980 0.061030 0.981888
Zn16  Zn    Zn3+2 0.780720 0.311020 0.500000 0.980155

loop_
_geom_bond_atom_site_label_1
_geom_bond_atom_site_label_2
_ccdc_geom_bond_type
O15   Zn2   S    
C29   O42   A    
O23   Zn7   S    
O27   Zn7   S    
C74   C83   A    
C25   O35   A    
C79   C87   A    
C105  C131  S    
C38   C63   S    
O25   Zn6   S    
C59   H51   S    
C62   H63   S    
C36   C47   S    
C13   H11   S    
C50   C72   S    
C38   C45   S    
C131  C140  T    
O33   Zn3   S    
C106  C133  S    
O34   Zn4   S    
C77   O16   A    
C122  C148  T    
C4    C12   S    
O12   Zn6   S    
C35   C109  A    
C35   H14   S    
C143  C151  S    
C33   C59   S    
C49   C69   S    
C72   N7    T    
C102  C111  A    
C26   O36   A    
C87   H22   S    
C15   C20   T    
O42   Zn13  S    
C160  O28   A    
C159  O29   A    
C8    H40   S    
C127  C136  T    
C59   H53   S    
C60   H55   S    
O11   Zn14  S    
O12   Zn9   S    
C99   O14   A    
C17   C21   S    
C82   C91   A    
C116  H7    S    
C103  C112  A    
C19   C23   S    
C37   C38   S    
C42   C55   T    
C100  H35   S    
C88   C148  S    
C1    O45   A    
O19   Zn4   S    
C3    C164  A    
C56   H47   S    
C132  O19   A    
C81   C90   A    
C58   H50   S    
C121  O2    A    
C85   H20   S    
C132  C152  S    
C89   H24   S    
C30   C43   S    
O23   Zn15  S    
O3    Zn13  S    
C93   H28   S    
C28   O40   A    
C99   C147  S    
C46   H15   S    
C110  C150  S    
C57   H16   S    
C132  O3    A    
O45   Zn11  S    
C62   H61   S    
C3    C7    A    
C106  C115  A    
C70   N5    T    
C136  C153  S    
C117  H8    S    
C153  O5    A    
C121  C149  S    
C48   C67   S    
C139  C157  S    
C86   H21   S    
C31   H23   S    
C3    H38   S    
C159  O10   A    
C101  C109  A    
C76   C85   A    
C114  C154  A    
C110  O21   A    
C2    C75   A    
C44   C48   S    
O6    Zn9   S    
O44   Zn5   S    
O43   Zn12  S    
C60   H57   S    
O28   Zn8   S    
C113  H4    S    
C156  O7    A    
O51   Zn1   S    
C119  C146  T    
O12   Zn2   S    
C157  O22   A    
C76   C120  S    
C5    C163  A    
C160  O11   A    
C107  C134  S    
C23   O47   A    
C16   C19   T    
C75   C84   A    
C143  O4    A    
C74   C154  A    
C61   H58   S    
C125  C151  T    
C88   O15   A    
C140  C158  S    
C126  C152  T    
C141  C159  S    
C96   H31   S    
O23   Zn3   S    
O23   Zn12  S    
C31   C56   S    
C37   C47   S    
C92   H27   S    
C44   C52   S    
O4    Zn12  S    
C66   N2    T    
C14   C17   T    
C11   H43   S    
O9    Zn12  S    
C115  H6    S    
C34   H71   S    
O40   Zn15  S    
O26   Zn5   S    
O2    Zn14  S    
C74   C118  S    
C100  C108  A    
C108  C135  S    
C111  H2    S    
C112  H3    S    
C110  O52   A    
C5    C9    A    
C60   H54   S    
O39   Zn1   S    
C156  O24   A    
O52   Zn15  S    
C143  O18   A    
C30   H34   S    
C95   H30   S    
O1    Zn5   S    
O8    Zn11  S    
C29   O41   A    
C98   H33   S    
C81   C125  S    
C18   C22   S    
C108  C117  A    
C118  C145  T    
C33   H1    S    
O20   Zn4   S    
C71   N6    T    
O32   Zn2   S    
C37   H56   S    
C68   C82   A    
C10   H42   S    
C61   H60   S    
C46   C80   A    
O49   Zn10  S    
C73   N8    T    
C83   C96   A    
C35   C79   A    
C101  C127  S    
C34   C36   S    
C89   C93   A    
C21   O44   A    
C107  C116  A    
C10   C11   A    
C77   O49   A    
C104  C113  A    
C45   C55   S    
C48   C66   S    
C46   C111  A    
O1    Zn11  S    
C114  H5    S    
C96   C105  A    
C144  C161  S    
O5    Zn1   S    
C153  O26   A    
O29   Zn8   S    
O47   Zn7   S    
O30   Zn7   S    
C27   O38   A    
C23   O33   A    
O34   Zn14  S    
C24   C117  A    
C84   C97   A    
C99   O51   A    
C121  O20   A    
C30   C31   S    
O12   Zn10  S    
C20   C25   S    
C161  O13   A    
C34   C62   S    
C80   C89   A    
C82   C126  S    
C43   C53   S    
O34   Zn13  S    
C86   C100  A    
C68   C113  A    
C63   H65   S    
C29   C41   S    
O36   Zn11  S    
C104  C130  S    
C87   C92   A    
C130  C139  T    
C21   O31   A    
C22   O32   A    
C90   C94   A    
C68   H17   S    
C25   O48   A    
O24   Zn6   S    
C64   H68   S    
C59   H52   S    
C62   H62   S    
C98   C107  A    
C50   C71   S    
C56   H46   S    
C164  H39   S    
C134  C142  T    
C2    C115  A    
C56   H44   S    
C50   C51   S    
C103  C129  S    
C5    C14   S    
C92   C101  A    
C47   C54   S    
C97   C106  A    
C24   C78   A    
C7    C16   S    
C6    C164  A    
C94   C103  A    
C4    C162  A    
O38   Zn9   S    
C32   C60   S    
C36   C61   S    
C37   C64   S    
C162  C163  A    
C80   C124  S    
C124  C150  T    
C64   H70   S    
C93   C102  A    
C6    C10   A    
C63   H64   S    
C58   H48   S    
C133  C141  T    
C32   C33   S    
O16   Zn2   S    
C36   H67   S    
C88   O50   A    
C69   N4    T    
C13   C116  A    
C58   H49   S    
O1    Zn1   S    
C120  C147  T    
C24   H13   S    
O10   Zn13  S    
O14   Zn16  S    
O31   Zn16  S    
O34   Zn8   S    
C123  C149  T    
C94   H29   S    
O17   Zn16  S    
C47   C50   S    
C4    C8    A    
O1    Zn16  S    
O50   Zn9   S    
C161  O27   A    
C7    C11   A    
C32   H12   S    
C137  C155  S    
C49   C65   S    
C97   H32   S    
C57   C112  A    
O41   Zn14  S    
C45   C51   S    
C28   O43   A    
C67   N3    T    
O37   Zn10  S    
C85   C98   A    
C6    C15   S    
C129  C138  T    
C27   C39   S    
C8    C9    A    
O46   Zn6   S    
C51   C70   S    
C78   C86   A    
C39   C52   T    
C65   N1    T    
C1    C146  S    
C78   C122  S    
C155  O25   A    
C155  O6    A    
C158  O30   A    
C91   H26   S    
O21   Zn3   S    
C31   C44   S    
C162  H37   S    
C33   C43   S    
C105  C114  A    
C75   C119  S    
C43   C49   S    
C79   C123  S    
O35   Zn4   S    
C83   H18   S    
C128  C137  T    
C61   H59   S    
C13   C76   A    
O22   Zn5   S    
C32   C44   S    
C34   C45   S    
C26   O39   A    
C1    O17   A    
C135  C144  T    
C163  H36   S    
O18   Zn3   S    
C63   H66   S    
C57   C81   A    
C157  O8    A    
C77   C145  S    
C95   C104  A    
C138  C156  S    
C48   C49   S    
C154  H9    S    
C84   H19   S    
C51   C73   S    
C142  C160  S    
C27   O37   A    
O13   Zn15  S    
C158  O9    A    
C64   H69   S    
C9    H41   S    
C2    H10   S    
C26   C40   S    
O7    Zn10  S    
C30   C58   S    
C28   C42   S    
O48   Zn8   S    
C38   H45   S    
C22   O46   A    
C41   C54   T    
C109  H72   S    
C91   C95   A    
C40   C53   T    
C12   C18   T    
C102  C128  S    
C90   H25   S    
