data_mof_unit_pretest_892.cif
_audit_creation_date              2012-12-10T21:32:08-0500
_audit_creation_method            fapswitch 2.2
_symmetry_space_group_name_H-M    P1
_symmetry_Int_Tables_number       1
_space_group_crystal_system       triclinic
_cell_length_a                    15.496098
_cell_length_b                    16.176757
_cell_length_c                    16.852711
_cell_angle_alpha                 95.480137
_cell_angle_beta                  88.633155
_cell_angle_gamma                 110.638348
_cell_volume                      3935.17520095

loop_
_atom_site_label
_atom_site_type_symbol
_atom_type_description
_atom_site_fract_x
_atom_site_fract_y
_atom_site_fract_z
_atom_type_partial_charge
C1    C     C_R   0.500348 0.487210 0.347124 0.833516
C2    C     C_R   0.564200 0.494639 0.777857 -0.235237
C3    C     C_R   0.457258 0.521401 0.139270 -0.162114
C4    C     C_R   0.565830 0.501235 0.860177 -0.157810
C5    C     C_R   0.506699 0.474422 0.095598 0.325612
C6    C     C_R   0.507838 0.538965 0.903369 0.324333
C7    C     C_R   0.547650 0.425196 0.134823 -0.189985
C8    C     C_R   0.453410 0.575052 0.863649 -0.185243
C9    C     C_R   0.543910 0.426597 0.217417 -0.246922
C10   C     C_R   0.451547 0.568091 0.780954 -0.242257
C11   C     C_R   0.537309 0.783224 0.544681 0.236160
C12   C     C_R   0.500395 0.513230 0.652587 0.866124
C13   C     C_R   0.488315 0.221709 0.445328 0.203169
C14   C     C_R   0.533123 0.867906 0.540694 -0.277272
C15   C     C_R   0.483428 0.134936 0.454586 -0.293271
C16   C     C_R   0.326363 0.444538 0.502769 0.934067
C17   C     C_R   0.673950 0.555317 0.497430 0.925862
C18   C     C_R   0.476082 0.882141 0.484634 0.294192
C19   C     C_R   0.501135 0.110950 0.528028 0.307858
C20   C     C_R   0.427094 0.810370 0.430358 -0.329621
C21   C     C_R   0.524632 0.176922 0.592182 -0.325258
C22   C     C_R   0.434427 0.726558 0.434195 -0.007849
C23   C     C_R   0.898081 0.399827 0.539382 -0.185168
C24   C     C_R   0.529794 0.263913 0.581752 -0.003941
C25   C     C_R   0.225603 0.409141 0.509197 -0.287548
C26   C     C_R   0.775607 0.590474 0.500071 -0.284002
C27   C     C_R   0.082574 0.302011 0.551161 -0.325866
C28   C     C_R   0.923014 0.707215 0.530858 -0.322389
C29   C     C_R   0.178179 0.327750 0.540453 0.426501
C30   C     C_R   0.827239 0.680856 0.519695 0.426082
C31   C     C_R   0.176528 0.461699 0.487794 0.372263
C32   C     C_R   0.821495 0.529419 0.486940 0.374615
C33   C     C_R   0.086774 0.445392 0.515889 -0.049440
C34   C     C_R   0.102746 0.602961 0.532065 -0.177007
C35   C     C_R   0.912921 0.552923 0.513343 -0.053342
C36   C     C_R   0.035310 0.360188 0.538836 0.000892
C37   C     C_R   0.967260 0.644228 0.527912 -0.001605
C38   C     C_R   0.047696 0.512157 0.521089 0.036809
C39   C     C_R   0.951827 0.487447 0.522931 0.033973
C40   C     C_3   0.883435 0.243882 0.573858 -0.433976
C41   C     C_3   0.779214 0.220453 0.584533 -0.341866
C42   C     C_3   0.735854 0.125010 0.606699 -0.879566
C43   C     C_3   0.123291 0.767372 0.559570 -0.438212
C44   C     C_3   0.225705 0.786842 0.578177 -0.363079
C45   C     C_R   0.939143 0.336572 0.550757 0.107895
C46   C     C_3   0.276662 0.885600 0.600740 -0.837688
C47   C     C_3   0.467947 0.237151 0.361867 -0.370836
C48   C     C_3   0.367474 0.231038 0.352629 -0.334759
C49   C     C_3   0.342146 0.234601 0.266438 -0.900169
C50   C     C_3   0.595887 0.772689 0.610343 -0.363004
C51   C     C_3   0.546573 0.764172 0.691096 -0.336521
C52   C     C_3   0.548455 0.852852 0.733036 -0.889159
C53   C     C_3   0.809699 0.444358 0.367478 0.091543
C54   C     C_3   0.776985 0.500908 0.315502 -0.378659
C55   C     C_3   0.792606 0.480632 0.227186 -0.959242
C56   C     C_R   0.063770 0.669765 0.539919 0.111011
C57   C     C_3   0.182629 0.502255 0.360404 0.081302
C58   C     C_3   0.224098 0.436693 0.317882 -0.383044
C59   C     C_3   0.205307 0.424065 0.228303 -0.950277
C60   C     C_3   0.809276 0.806226 0.478467 0.088464
C61   C     C_3   0.854891 0.898896 0.521813 -0.344902
C62   C     C_3   0.875115 0.971060 0.464746 -0.989486
C63   C     C_3   0.202728 0.194256 0.524178 0.092528
C64   C     C_3   0.162450 0.120723 0.579726 -0.322585
C65   C     C_3   0.139443 0.029089 0.534468 -1.001776
C66   C     C_R   0.498591 0.477127 0.260778 -0.024597
C67   C     C_R   0.505885 0.526585 0.738280 -0.014979
C68   C     C_R   0.454443 0.523501 0.221161 -0.226395
H1    H     H_    0.465724 0.085811 0.403561 0.154954
H2    H     H_    0.175935 0.620798 0.540717 0.187077
H3    H     H_    0.607544 0.463669 0.745017 0.142229
H4    H     H_    0.418612 0.562602 0.253576 0.155092
H5    H     H_    0.610510 0.475104 0.889935 0.145058
H6    H     H_    0.422415 0.558135 0.110539 0.145155
H7    H     H_    0.584853 0.388050 0.101500 0.139313
H8    H     H_    0.409168 0.604628 0.896820 0.137450
H9    H     H_    0.578467 0.390491 0.246986 0.153174
H10   H     H_    0.405207 0.591632 0.750512 0.145188
H11   H     H_    0.742248 0.077613 0.556665 0.266358
H12   H     H_    0.574984 0.922604 0.581276 0.167216
H13   H     H_    0.769988 0.115717 0.660649 0.254488
H14   H     H_    0.661978 0.109487 0.620007 0.257801
H15   H     H_    0.765774 0.265814 0.633065 0.217840
H16   H     H_    0.746838 0.226479 0.528234 0.237297
H17   H     H_    0.893925 0.194941 0.527178 0.205369
H18   H     H_    0.912034 0.235528 0.631228 0.204895
H19   H     H_    0.278375 0.923804 0.549041 0.268452
H20   H     H_    0.242604 0.910208 0.651627 0.255458
H21   H     H_    0.348623 0.896571 0.618647 0.259088
H22   H     H_    0.259499 0.765950 0.525061 0.238650
H23   H     H_    0.383163 0.819181 0.385372 0.151350
H24   H     H_    0.231720 0.749980 0.628933 0.222563
H25   H     H_    0.118979 0.804724 0.508632 0.206587
H26   H     H_    0.093754 0.793265 0.612909 0.205719
H27   H     H_    0.382667 0.299537 0.245301 0.281919
H28   H     H_    0.354640 0.180933 0.227082 0.261988
H29   H     H_    0.267926 0.225757 0.262554 0.245837
H30   H     H_    0.321148 0.166703 0.372204 0.196336
H31   H     H_    0.354374 0.285117 0.390048 0.252830
H32   H     H_    0.520565 0.296955 0.342616 0.219758
H33   H     H_    0.477752 0.185009 0.318362 0.163899
H34   H     H_    0.538880 0.161322 0.650382 0.147808
H35   H     H_    0.619513 0.902631 0.734798 0.259036
H36   H     H_    0.501270 0.878105 0.702734 0.261739
H37   H     H_    0.524420 0.843322 0.795237 0.250157
H38   H     H_    0.473702 0.719196 0.682966 0.233756
H39   H     H_    0.581549 0.734372 0.730741 0.225417
H40   H     H_    0.615483 0.714271 0.595548 0.254990
H41   H     H_    0.662131 0.829606 0.615549 0.182627
H42   H     H_    0.781854 0.374101 0.341821 0.165862
H43   H     H_    0.886238 0.464629 0.365877 0.126424
H44   H     H_    0.702583 0.487999 0.325651 0.228669
H45   H     H_    0.395768 0.671624 0.392385 0.160317
H46   H     H_    0.815350 0.572439 0.332586 0.202093
H47   H     H_    0.867064 0.494256 0.215970 0.262280
H48   H     H_    0.769066 0.523198 0.191605 0.274240
H49   H     H_    0.752805 0.410067 0.207593 0.257431
H50   H     H_    0.202881 0.562704 0.327826 0.161356
H51   H     H_    0.105811 0.473574 0.358142 0.128017
H52   H     H_    0.299636 0.461565 0.328760 0.226777
H53   H     H_    0.193929 0.371168 0.342206 0.200609
H54   H     H_    0.129861 0.397859 0.216184 0.261938
H55   H     H_    0.235790 0.376041 0.199835 0.273179
H56   H     H_    0.548231 0.312846 0.632544 0.146802
H57   H     H_    0.236980 0.488075 0.201710 0.259003
H58   H     H_    0.745310 0.803910 0.448368 0.167586
H59   H     H_    0.855729 0.794463 0.430409 0.118374
H60   H     H_    0.808883 0.911044 0.569418 0.221385
H61   H     H_    0.920494 0.903514 0.550274 0.217062
H62   H     H_    0.921366 0.960795 0.416463 0.263843
H63   H     H_    0.909678 0.036997 0.497837 0.263833
H64   H     H_    0.809945 0.970364 0.438117 0.267923
H65   H     H_    0.267411 0.188446 0.499312 0.159344
H66   H     H_    0.154617 0.183958 0.472761 0.110632
H67   H     H_    0.047541 0.238565 0.573644 0.153742
H68   H     H_    0.213332 0.128407 0.627809 0.234982
H69   H     H_    0.098754 0.125848 0.607768 0.210917
H70   H     H_    0.085982 0.018608 0.488080 0.272410
H71   H     H_    0.112642 0.977139 0.576472 0.266205
H72   H     H_    0.202113 0.022456 0.505548 0.266125
H73   H     H_    0.961227 0.776942 0.544924 0.155583
H74   H     H_    0.825172 0.383049 0.549472 0.188404
N1    N     N_2   0.517710 0.476567 0.012542 -0.207179
N2    N     N_2   0.499184 0.537910 0.986429 -0.211983
N3    N     N_R   0.489120 0.713640 0.490430 -0.109435
N4    N     N_R   0.510880 0.286360 0.509570 -0.086932
N5    N     N_2   0.470303 0.967784 0.478581 -0.187990
N6    N     N_2   0.501127 0.023635 0.537527 -0.197953
O1    O     O_R   0.503890 0.423710 0.387290 -0.632866
O2    O     O_3   0.217307 0.529468 0.439292 -0.645659
O3    O     O_3   0.783333 0.741939 0.534540 -0.647160
O4    O     O_3   0.226363 0.278399 0.568240 -0.614085
O5    O     O_R   0.496110 0.576290 0.612710 -0.648227
O6    O     O_R   0.496910 0.560910 0.381140 -0.623512
O7    O     O_R   0.503090 0.439090 0.618860 -0.619830
O8    O     O_R   0.373240 0.392210 0.504830 -0.594874
O9    O     O_R   0.626760 0.607790 0.495170 -0.605433
O10   O     O_R   0.366260 0.529410 0.498680 -0.566621
O11   O     O_R   0.633740 0.470590 0.501320 -0.562238
O12   O     O_3   0.776205 0.446959 0.446303 -0.636946
Zn1   Zn    Zn3+2 0.504660 0.408390 0.504100 0.957721
Zn2   Zn    Zn3+2 0.495340 0.591610 0.495900 0.939086

loop_
_geom_bond_atom_site_label_1
_geom_bond_atom_site_label_2
_ccdc_geom_bond_type
C53   H42   S    
C25   C31   A    
C66   C68   A    
C64   H68   S    
C52   H35   S    
C34   C56   A    
C47   H33   S    
C27   C29   A    
C41   C42   S    
C14   C18   A    
C2    C4    A    
C3    C68   A    
C42   H14   S    
C24   H56   S    
C12   O5    A    
C33   C36   A    
C10   H10   S    
C46   H21   S    
C10   C67   A    
O7    Zn1   S    
C26   C32   A    
C23   C45   A    
C17   C26   S    
C63   H65   S    
C35   C37   A    
C38   C39   A    
C11   C14   A    
C5    N1    S    
C55   H48   S    
N1    N2    D    
C41   H15   S    
C8    H8    S    
C43   H26   S    
C40   H18   S    
C3    H6    S    
C62   H62   S    
C9    C66   A    
C15   C19   A    
C37   C56   A    
C22   H45   S    
N5    N6    D    
C58   H53   S    
C16   O8    A    
C31   C33   A    
C23   H74   S    
C1    O1    A    
C14   H12   S    
C17   O9    A    
C34   H2    S    
C44   H24   S    
C61   H61   S    
C57   H51   S    
C53   H43   S    
C59   H54   S    
C42   H11   S    
C25   C29   A    
C65   H72   S    
C1    O6    A    
C42   H13   S    
C13   N4    A    
N4    Zn1   S    
C44   C46   S    
C1    C66   S    
C46   H20   S    
C64   H69   S    
C59   H55   S    
C40   C45   S    
C15   H1    S    
C20   H23   S    
C16   O10   A    
C51   C52   S    
C32   C35   A    
C62   H64   S    
C4    C6    A    
C2    C67   A    
C5    C7    A    
C31   O2    S    
C11   N3    A    
C7    H7    S    
C12   C67   S    
C58   C59   S    
C53   C54   S    
C41   H16   S    
C50   H41   S    
C47   H32   S    
C60   C61   S    
C60   O3    S    
C40   H17   S    
C35   C39   A    
C43   C44   S    
C63   H66   S    
C47   C48   S    
C22   N3    A    
C68   H4    S    
C57   O2    S    
C58   H52   S    
C50   C51   S    
C54   H44   S    
C36   C45   A    
C9    H9    S    
C49   H27   S    
C4    H5    S    
C65   H70   S    
C8    C10   A    
C48   C49   S    
C20   C22   A    
C52   H37   S    
C18   N5    S    
C13   C15   A    
O1    Zn1   S    
C21   H34   S    
C12   O7    A    
C6    N2    S    
C2    H3    S    
O6    Zn2   S    
C44   H22   S    
C13   C47   S    
C46   H19   S    
C55   H49   S    
C16   C25   S    
C7    C9    A    
C48   H31   S    
C54   C55   S    
C52   H36   S    
C53   O12   S    
C19   C21   A    
C34   C38   A    
C62   H63   S    
C50   H40   S    
C60   H59   S    
C19   N6    S    
C3    C5    A    
O8    Zn1   S    
C6    C8    A    
C26   C30   A    
C27   C36   A    
C59   H57   S    
C48   H30   S    
C33   C38   A    
O5    Zn2   S    
C27   H67   S    
C64   C65   S    
C60   H58   S    
O11   Zn1   S    
C11   C50   S    
C24   N4    A    
C29   O4    S    
C30   O3    S    
C55   H47   S    
C28   C37   A    
C51   H38   S    
C23   C39   A    
C54   H46   S    
C28   C30   A    
C43   H25   S    
C61   H60   S    
C18   C20   A    
C49   H28   S    
C61   C62   S    
C17   O11   A    
C63   O4    S    
O10   Zn2   S    
C49   H29   S    
C63   C64   S    
C65   H71   S    
C43   C56   S    
C51   H39   S    
N3    Zn2   S    
C21   C24   A    
C40   C41   S    
C28   H73   S    
C57   C58   S    
O9    Zn2   S    
C57   H50   S    
C32   O12   S    
