data_mof_unit_pretest_784.cif
_audit_creation_date              2012-12-10T17:37:21-0500
_audit_creation_method            fapswitch 2.2
_symmetry_space_group_name_H-M    P1
_symmetry_Int_Tables_number       1
_space_group_crystal_system       triclinic
_cell_length_a                    11.973808
_cell_length_b                    12.777124
_cell_length_c                    16.722394
_cell_angle_alpha                 90.843667
_cell_angle_beta                  81.558168
_cell_angle_gamma                 94.349796
_cell_volume                      2523.34798965

loop_
_atom_site_label
_atom_site_type_symbol
_atom_type_description
_atom_site_fract_x
_atom_site_fract_y
_atom_site_fract_z
_atom_type_partial_charge
Br1   Br    Br    0.283725 0.294773 0.134577 -0.440395
Br2   Br    Br    0.701490 0.527700 0.908526 -0.500324
C1    C     C_R   0.523506 0.700652 0.496329 0.984118
C2    C     C_R   0.538546 0.131322 0.539805 0.448885
C3    C     C_R   0.452920 0.973427 0.484224 -0.205084
C4    C     C_R   0.546530 0.026624 0.516097 -0.186953
C5    C     C_R   0.960205 0.396126 0.428968 -0.233779
C6    C     C_R   0.039786 0.603852 0.571032 -0.255094
C7    C     C_R   0.843525 0.406922 0.435323 0.120902
C8    C     C_R   0.156476 0.593115 0.564637 0.114994
C9    C     C_R   0.855991 0.545680 0.530181 -0.025689
C10   C     C_R   0.143997 0.454243 0.469873 0.005182
C11   C     C_R   0.973685 0.537940 0.525682 0.071103
C12   C     C_R   0.476489 0.299376 0.503562 0.971941
C13   C     C_R   0.026299 0.461984 0.474363 0.067854
C14   C     C_R   0.484808 0.501333 0.654109 0.914989
C15   C     C_R   0.514139 0.492504 0.346330 0.928385
C16   C     C_R   0.474945 0.495661 0.741487 -0.068589
C17   C     C_R   0.516953 0.456531 0.263342 -0.106288
C18   C     C_R   0.572369 0.510911 0.778614 -0.200919
C19   C     C_R   0.419100 0.404434 0.240450 -0.223955
C20   C     C_R   0.565835 0.496416 0.861202 0.305057
C21   C     C_R   0.420477 0.364285 0.162922 0.304456
C22   C     C_R   0.460664 0.463956 0.906675 0.091412
C23   C     C_R   0.459544 0.187328 0.508195 -0.253610
C24   C     C_R   0.520091 0.378581 0.107098 0.084270
C25   C     C_R   0.362503 0.454103 0.870385 -0.146463
C26   C     C_R   0.620075 0.423157 0.131600 -0.140731
C27   C     C_R   0.369473 0.469704 0.787874 -0.146739
C28   C     C_R   0.618654 0.461997 0.209753 -0.169003
C29   C     C_2   0.450152 0.442308 0.992383 -0.145265
C30   C     C_2   0.514712 0.375065 0.020951 -0.106094
C31   C     C_R   0.540352 0.812778 0.491613 -0.215946
C32   C     C_R   0.644050 0.972784 0.522220 0.488907
C33   C     C_R   0.355629 0.027470 0.477809 0.510818
C34   C     C_R   0.634693 0.864363 0.518420 -0.322324
C35   C     C_R   0.365244 0.135861 0.481278 -0.284565
C36   C     C_R   0.460836 0.868719 0.460538 0.441756
H1    H     H_    0.653733 0.533948 0.743495 0.178507
H2    H     H_    0.389693 0.484681 0.033036 0.182988
H3    H     H_    0.281084 0.431450 0.905609 0.179645
H4    H     H_    0.696975 0.434818 0.088651 0.195396
H5    H     H_    0.296652 0.179732 0.467165 0.217392
H6    H     H_    0.703178 0.820446 0.532552 0.181382
H7    H     H_    0.186099 0.396568 0.430636 0.126701
H8    H     H_    0.813886 0.603319 0.569448 0.124232
H9    H     H_    0.723254 0.293399 0.656634 0.380690
H10   H     H_    0.466894 0.713556 0.275070 0.382386
H11   H     H_    0.893855 0.907236 0.498645 0.351652
H12   H     H_    0.341438 0.394363 0.282804 0.180992
H13   H     H_    0.058179 0.998632 0.558675 0.404160
H14   H     H_    0.207485 0.644002 0.599558 0.151513
H15   H     H_    0.792521 0.356101 0.400351 0.153859
H16   H     H_    0.998236 0.336936 0.389022 0.182347
H17   H     H_    0.001762 0.663078 0.610944 0.165211
H18   H     H_    0.695751 0.498952 0.227508 0.180761
H19   H     H_    0.293185 0.458165 0.760131 0.175943
H20   H     H_    0.577231 0.334673 0.980651 0.195046
N1    N     N_R   0.206400 0.519440 0.514690 -0.112074
N2    N     N_R   0.793600 0.480560 0.485310 -0.110827
O1    O     O_R   0.421320 0.658850 0.503920 -0.583550
O2    O     O_2   0.609922 0.091449 0.681697 -0.239068
O3    O     O_3   0.710856 0.256998 0.605621 -0.468967
O4    O     O_2   0.298865 0.753208 0.393645 -0.220398
O5    O     O_2   0.390350 0.908146 0.318336 -0.237178
O6    O     O_3   0.503906 0.744116 0.320186 -0.572477
O7    O     O_2   0.789275 0.138926 0.473396 -0.237445
O8    O     O_2   0.817225 0.050666 0.597543 -0.236629
O9    O     O_3   0.874600 0.958720 0.460072 -0.487168
O10   O     O_2   0.181864 0.950445 0.403122 -0.168587
O11   O     O_2   0.209682 0.862619 0.527999 -0.319245
O12   O     O_R   0.578680 0.341150 0.496080 -0.577625
O13   O     O_3   0.126682 0.044898 0.539435 -0.518504
O14   O     O_R   0.609840 0.646370 0.494500 -0.626279
O15   O     O_R   0.390160 0.353630 0.505500 -0.631792
O16   O     O_R   0.394600 0.506990 0.621070 -0.635702
O17   O     O_R   0.605400 0.493010 0.378930 -0.625174
O18   O     O_R   0.583120 0.494520 0.611640 -0.612598
O19   O     O_R   0.416880 0.505480 0.388360 -0.603811
O20   O     O_2   0.502797 0.245388 0.675871 -0.330261
S1    S     S_3+6 0.590083 0.180593 0.629116 0.092593
S2    S     S_3+6 0.408181 0.819181 0.371787 0.097407
S3    S     S_3+6 0.782911 0.034798 0.515048 0.097405
S4    S     S_3+6 0.216493 0.966272 0.485483 0.087385
Zn1   Zn    Zn3+2 0.374120 0.508330 0.506290 1.008495
Zn2   Zn    Zn3+2 0.625880 0.491670 0.493710 1.004047

loop_
_geom_bond_atom_site_label_1
_geom_bond_atom_site_label_2
_ccdc_geom_bond_type
C24   C30   S    
C6    C11   A    
C25   C27   A    
C22   C25   A    
C30   H20   S    
C8    H14   S    
C2    C23   A    
O7    S3    D    
O3    S1    S    
C17   C19   A    
H9    O3    S    
C3    C4    A    
C1    C31   S    
C15   O19   A    
C31   C34   A    
C29   H2    S    
C21   C24   A    
C1    O14   A    
C23   C35   A    
C10   N1    A    
O15   Zn1   S    
C2    S1    S    
Br2   C20   S    
O10   S4    D    
O13   S4    S    
C16   C18   A    
O18   Zn2   S    
C5    C13   A    
H11   O9    S    
C3    C36   A    
C36   S2    S    
C6    H17   S    
C19   H12   S    
C1    O1    A    
C19   C21   A    
C2    C4    A    
C18   H1    S    
N2    Zn2   S    
O20   S1    D    
C28   H18   S    
C4    C32   A    
C35   H5    S    
N1    Zn1   S    
O9    S3    S    
O6    S2    S    
C25   H3    S    
C29   C30   D    
C10   C13   A    
C15   O17   A    
C16   C27   A    
O14   Zn2   S    
O4    S2    D    
O1    Zn1   S    
C14   C16   S    
O2    S1    D    
C27   H19   S    
O17   Zn2   S    
Br1   C21   S    
C11   C13   A    
C20   C22   A    
C34   H6    S    
C7    H15   S    
C32   S3    S    
C9    N2    A    
O19   Zn1   S    
O11   S4    D    
C5    C7    A    
C33   C35   A    
C14   O16   A    
O8    S3    D    
C12   O12   A    
H13   O13   S    
C18   C20   A    
C10   H7    S    
O12   Zn2   S    
C33   S4    S    
C24   C26   A    
C31   C36   A    
C7    N2    A    
C12   O15   A    
C26   C28   A    
C8    N1    A    
C22   C29   S    
C9    C11   A    
O5    S2    D    
C3    C33   A    
C26   H4    S    
C15   C17   S    
C32   C34   A    
C14   O18   A    
C12   C23   S    
C6    C8    A    
C9    H8    S    
C5    H16   S    
H10   O6    S    
C17   C28   A    
O16   Zn1   S    
