data_mof_unit_pretest_696.cif
_audit_creation_date              2012-12-10T20:31:02-0500
_audit_creation_method            fapswitch 2.2
_symmetry_space_group_name_H-M    P1
_symmetry_Int_Tables_number       1
_space_group_crystal_system       triclinic
_cell_length_a                    14.935239
_cell_length_b                    10.650785
_cell_length_c                    9.877524
_cell_angle_alpha                 90.215569
_cell_angle_beta                  89.684628
_cell_angle_gamma                 90.44952
_cell_volume                      1571.1546644

loop_
_atom_site_label
_atom_site_type_symbol
_atom_type_description
_atom_site_fract_x
_atom_site_fract_y
_atom_site_fract_z
_atom_type_partial_charge
C1    C     C_R   0.499251 0.259878 0.499820 0.910745
C2    C     C_R   0.907104 0.579850 0.580995 0.127968
C3    C     C_R   0.954431 0.329525 0.324727 -0.215224
C4    C     C_R   0.047189 0.327412 0.328563 -0.205667
C5    C     C_R   0.093776 0.405164 0.418970 -0.005397
C6    C     C_R   0.046803 0.493174 0.499100 0.019593
C7    C     C_R   0.093298 0.580129 0.581761 0.122265
C8    C     C_R   0.046718 0.665886 0.662659 -0.187454
C9    C     C_R   0.953797 0.665240 0.662892 -0.197249
C10   C     C_R   0.186857 0.398663 0.430266 0.445855
C11   C     C_R   0.231592 0.493234 0.502462 -0.136906
C12   C     C_R   0.327025 0.498308 0.500593 0.924810
C13   C     C_R   0.185867 0.581301 0.580224 -0.319408
C14   C     C_R   0.499843 0.063897 0.621272 0.123260
C15   C     C_R   0.486527 0.128091 0.501232 -0.189196
C16   C     C_R   0.450346 0.065604 0.388817 -0.217978
C17   C     C_R   0.441737 0.935811 0.390689 0.397666
C18   C     C_R   0.476156 0.870648 0.503705 -0.232199
C19   C     C_R   0.495521 0.936356 0.622320 0.102621
C20   C     C_3   0.572609 0.926380 0.717740 -0.459821
C21   C     C_3   0.577230 0.068618 0.716270 -0.454113
C22   C     C_R   0.463721 0.401340 0.070890 0.111490
C23   C     C_R   0.493845 0.739587 0.500359 0.857914
C24   C     C_R   0.543179 0.591427 0.071945 -0.063160
C25   C     C_R   0.543230 0.591369 0.928046 -0.110611
C26   C     C_R   0.464425 0.400869 0.928559 0.027562
C27   C     C_3   0.370590 0.349984 0.922664 0.164068
C28   C     C_3   0.369633 0.352084 0.077469 0.176800
C29   C     C_R   0.672997 0.499400 0.499533 0.948702
C30   C     C_R   0.814672 0.580079 0.580434 -0.357709
C31   C     C_R   0.768501 0.496017 0.497899 -0.111148
C32   C     C_R   0.812388 0.407944 0.416004 0.370852
C33   C     C_R   0.906362 0.408607 0.412642 0.011394
C34   C     C_R   0.953366 0.493801 0.497468 0.040497
H1    H     H_    0.778208 0.646496 0.643109 0.161879
H2    H     H_    0.551740 0.888107 0.817645 0.204669
H3    H     H_    0.632148 0.881062 0.671000 0.193047
H4    H     H_    0.558981 0.112090 0.815050 0.202167
H5    H     H_    0.639303 0.106447 0.668258 0.202802
H6    H     H_    0.576692 0.666530 0.126105 0.147618
H7    H     H_    0.577082 0.666041 0.873902 0.136045
H8    H     H_    0.367375 0.253847 0.878757 0.102541
H9    H     H_    0.364322 0.257911 0.125351 0.086295
H10   H     H_    0.921500 0.269394 0.251600 0.161519
H11   H     H_    0.082380 0.265170 0.259889 0.172411
H12   H     H_    0.222664 0.650663 0.639017 0.169571
H13   H     H_    0.082136 0.733025 0.725840 0.148004
H14   H     H_    0.918429 0.731795 0.726486 0.145078
H15   H     H_    0.429996 0.116609 0.299608 0.182282
N1    N     N_R   0.499390 0.499140 0.142800 -0.073261
N2    N     N_R   0.499390 0.499180 0.857150 -0.090856
O1    O     O_R   0.500010 0.316790 0.614690 -0.625460
O2    O     O_R   0.500000 0.316760 0.385350 -0.609482
O3    O     O_R   0.367850 0.499990 0.614680 -0.596850
O4    O     O_R   0.367840 0.499950 0.385340 -0.545561
O5    O     O_R   0.500000 0.683240 0.614650 -0.625106
O6    O     O_R   0.499990 0.683210 0.385310 -0.615695
O7    O     O_R   0.632160 0.500050 0.614660 -0.634601
O8    O     O_R   0.632150 0.500010 0.385320 -0.578837
Zn1   Zn    Zn3+2 0.500010 0.500020 0.653130 0.959810
Zn2   Zn    Zn3+2 0.499990 0.499980 0.346870 1.022320
O9    O     O_3   0.403545 0.877379 0.280170 -0.757289
H16   H     H_    0.373697 0.799360 0.311790 0.346530
O10   O     O_3   0.308313 0.431679 0.863398 -0.710085
H17   H     H_    0.321841 0.519079 0.892769 0.376888
O11   O     O_3   0.310464 0.440763 0.131770 -0.680666
H18   H     H_    0.249870 0.402603 0.124256 0.367112
O12   O     O_3   0.761424 0.322129 0.343893 -0.766898
H19   H     H_    0.792286 0.240256 0.344418 0.321287
O13   O     O_3   0.235693 0.301250 0.373146 -0.651322
C35   C     C_3   0.220438 0.187851 0.445462 0.015937
H20   H     H_    0.256139 0.112312 0.389887 0.190694
H21   H     H_    0.148629 0.159842 0.446558 0.144566
C36   C     C_3   0.255743 0.193102 0.591531 -0.345986
H22   H     H_    0.325215 0.229875 0.591928 0.236904
H23   H     H_    0.213828 0.257306 0.653614 0.237824
C37   C     C_3   0.253602 0.063516 0.656964 -0.938243
H24   H     H_    0.183743 0.027204 0.662152 0.262088
H25   H     H_    0.280554 0.069997 0.761302 0.265612
H26   H     H_    0.295206 0.996670 0.597981 0.261875

loop_
_geom_bond_atom_site_label_1
_geom_bond_atom_site_label_2
_ccdc_geom_bond_type
C8    C9    A    
C24   C25   A    
C19   C20   S    
C7    C8    A    
O3    Zn1   S    
C37   H24   S    
C26   C27   S    
C36   H23   S    
C30   H1    S    
C14   C21   S    
C5    C6    A    
C3    C33   A    
O7    Zn1   S    
C15   C16   A    
C18   C19   A    
C1    O2    A    
O1    Zn1   S    
O2    Zn2   S    
C21   H4    S    
C29   O8    A    
C16   C17   A    
C36   C37   S    
O13   C35   S    
C1    C15   S    
C22   N1    A    
C2    C34   A    
O11   H18   S    
C22   C28   S    
C17   C18   A    
C4    H11   S    
C37   H25   S    
C24   N1    A    
C3    H10   S    
O8    Zn2   S    
C36   H22   S    
C18   C23   S    
C23   O5    A    
C16   H15   S    
C27   O10   S    
C25   H7    S    
C35   H21   S    
O12   H19   S    
C6    C34   A    
C28   O11   S    
C25   N2    A    
O9    H16   S    
C17   O9    S    
C31   C32   A    
C21   H5    S    
C33   C34   A    
C29   O7    A    
C10   O13   S    
C3    C4    A    
C37   H26   S    
C13   H12   S    
C23   O6    A    
C14   C19   A    
C4    C5    A    
C35   C36   S    
C11   C12   S    
O6    Zn2   S    
C6    C7    A    
C28   H9    S    
C32   O12   S    
C2    C30   A    
O10   H17   S    
C8    H13   S    
C5    C10   A    
C29   C31   S    
C26   N2    A    
C32   C33   A    
C20   H3    S    
C11   C13   A    
C27   H8    S    
C30   C31   A    
O4    Zn2   S    
C24   H6    S    
C1    O1    A    
C12   O4    A    
C10   C11   A    
C20   H2    S    
O5    Zn1   S    
C7    C13   A    
C35   H20   S    
C20   C21   S    
C9    H14   S    
C22   C26   A    
C27   C28   S    
N1    Zn2   S    
C14   C15   A    
N2    Zn1   S    
C2    C9    A    
C12   O3    A    
