data_mof_unit_pretest_1546.cif
_audit_creation_date              2012-12-10T18:18:59-0500
_audit_creation_method            fapswitch 2.2
_symmetry_space_group_name_H-M    P1
_symmetry_Int_Tables_number       1
_space_group_crystal_system       triclinic
_cell_length_a                    18.579698
_cell_length_b                    18.378355
_cell_length_c                    18.819175
_cell_angle_alpha                 109.360843
_cell_angle_beta                  109.813964
_cell_angle_gamma                 108.820675
_cell_volume                      4971.88048387

loop_
_atom_site_label
_atom_site_type_symbol
_atom_type_description
_atom_site_fract_x
_atom_site_fract_y
_atom_site_fract_z
_atom_type_partial_charge
C1    C     C_R   0.620282 0.498117 0.620511 0.868389
C2    C     C_3   0.840759 0.737660 0.511360 0.650214
C3    C     C_3   0.229625 0.147734 0.458253 -0.581862
C4    C     C_3   0.797216 0.855112 0.572563 -0.731660
C5    C     C_3   0.767720 0.590890 0.748108 -0.507826
C6    C     C_3   0.234063 0.406238 0.247481 -0.494247
C7    C     C_3   0.836086 0.594587 0.824999 -0.416962
C8    C     C_3   0.165422 0.404590 0.172110 -0.418867
C9    C     C_3   0.650530 0.463680 0.740791 -0.059672
C10   C     C_3   0.349573 0.538072 0.260809 -0.053881
C11   C     C_3   0.720239 0.432491 0.646391 0.400257
C12   C     C_R   0.379015 0.501058 0.379470 0.863081
C13   C     C_3   0.270644 0.557442 0.351921 0.396915
C14   C     C_3   0.687558 0.495602 0.687342 0.039133
C15   C     C_3   0.311536 0.502801 0.312488 0.015022
C16   C     C_R   0.382765 0.378024 0.503102 0.866404
C17   C     C_R   0.621482 0.621823 0.500652 0.903381
C18   C     C_3   0.810793 0.499535 0.810191 0.080330
C19   C     C_3   0.189094 0.500655 0.190209 0.067408
C20   C     C_3   0.722756 0.462423 0.810899 -0.464862
C21   C     C_3   0.278505 0.542744 0.193263 -0.465681
C22   C     C_3   0.796656 0.437352 0.720351 -0.184937
C23   C     C_3   0.311047 0.215257 0.465062 0.262634
C24   C     C_3   0.200113 0.558731 0.279846 -0.167993
C25   C     C_3   0.000293 0.309174 0.812786 0.003568
C26   C     C_3   0.999101 0.690312 0.187723 0.005079
C27   C     C_R   0.995861 0.118093 0.620328 0.857877
C28   C     C_R   0.004218 0.882170 0.379681 0.885602
C29   C     C_R   0.120736 0.125303 0.503419 0.895249
C30   C     C_R   0.879089 0.875421 0.497062 0.960135
C31   C     C_R   0.997768 0.621554 0.118835 0.879559
C32   C     C_R   0.002424 0.378370 0.881629 0.864117
C33   C     C_R   0.878817 0.501662 0.880297 0.862179
C34   C     C_3   0.723465 0.787176 0.574987 0.310574
C35   C     C_R   0.121222 0.498915 0.120283 0.852352
C36   C     C_3   0.908533 0.197845 0.650348 0.291213
C37   C     C_3   0.093960 0.807158 0.348622 0.281130
C38   C     C_3   0.995928 0.160915 0.759025 -0.446357
C39   C     C_3   0.996410 0.834628 0.237170 -0.448795
C40   C     C_3   0.079686 0.347752 0.798086 0.436097
C41   C     C_3   0.921653 0.650864 0.204448 0.439773
C42   C     C_3   0.994325 0.230843 0.830258 -0.423252
C43   C     C_3   0.998123 0.764487 0.166109 -0.420489
C44   C     C_3   0.914744 0.270859 0.727510 -0.483398
C45   C     C_3   0.314108 0.308420 0.501272 -0.007955
C46   C     C_3   0.086697 0.732369 0.272342 -0.484240
C47   C     C_3   0.993173 0.185663 0.686868 0.031641
C48   C     C_3   0.006092 0.814132 0.313076 0.019877
C49   C     C_3   0.079763 0.273142 0.730567 -0.508729
C50   C     C_3   0.922717 0.725348 0.274725 -0.502287
C51   C     C_3   0.330017 0.339377 0.595732 -0.447727
C52   C     C_3   0.653309 0.683204 0.410827 -0.517143
C53   C     C_3   0.262898 0.266032 0.598447 0.406727
C54   C     C_3   0.722127 0.757455 0.410748 0.425139
C55   C     C_3   0.225681 0.300465 0.445593 -0.500931
C56   C     C_3   0.690304 0.690648 0.501745 0.027562
C57   C     C_3   0.767452 0.670361 0.514989 -0.555531
C58   C     C_3   0.192516 0.380621 0.932011 -0.310040
C59   C     C_3   0.785331 0.620223 0.093217 -0.311650
C60   C     C_3   0.633833 0.275660 0.592760 -0.335972
C61   C     C_3   0.390748 0.704773 0.424875 -0.282281
C62   C     C_3   0.285711 0.338167 0.738036 -0.355094
C63   C     C_3   0.671203 0.715961 0.264505 -0.320531
C64   C     C_3   0.049138 0.263281 0.498478 -0.186956
C65   C     C_3   0.890022 0.643427 0.445789 -0.324641
C66   C     C_3   0.188255 0.194517 0.503103 -0.055668
C67   C     C_3   0.811816 0.806937 0.498049 -0.017407
C68   C     C_3   0.151062 0.241540 0.453688 0.633596
H1    H     H_    0.248730 0.109109 0.488272 0.186830
H2    H     H_    0.202799 0.379912 0.281037 0.145410
H3    H     H_    0.868267 0.602797 0.474510 0.145715
H4    H     H_    0.962341 0.687196 0.484479 0.173490
H5    H     H_    0.874076 0.597196 0.380118 0.189300
H6    H     H_    0.902208 0.629344 0.833573 0.188496
H7    H     H_    0.099251 0.367706 0.162480 0.186677
H8    H     H_    0.838805 0.634956 0.885935 0.166427
H9    H     H_    0.163602 0.367116 0.110754 0.159571
H10   H     H_    0.136819 0.264692 0.761219 0.207013
H11   H     H_    0.863741 0.732681 0.249680 0.211460
H12   H     H_    0.733384 0.501746 0.876581 0.177958
H13   H     H_    0.270559 0.508913 0.127738 0.178144
H14   H     H_    0.749816 0.462083 0.613515 0.116093
H15   H     H_    0.779405 0.904553 0.562146 0.170127
H16   H     H_    0.234958 0.517104 0.374175 0.123140
H17   H     H_    0.781985 0.372613 0.716991 0.148635
H18   H     H_    0.221879 0.627443 0.291343 0.162730
H19   H     H_    0.594082 0.395329 0.695796 0.146000
H20   H     H_    0.406988 0.605180 0.305636 0.114299
H21   H     H_    0.700327 0.393407 0.798695 0.169401
H22   H     H_    0.300414 0.613185 0.210562 0.165495
H23   H     H_    0.856637 0.244641 0.735480 0.186810
H24   H     H_    0.143165 0.757802 0.261908 0.191907
H25   H     H_    0.089051 0.291217 0.682450 0.167875
H26   H     H_    0.179606 0.097149 0.389376 0.177766
H27   H     H_    0.920014 0.708817 0.325685 0.180194
H28   H     H_    0.912700 0.325010 0.714285 0.158950
H29   H     H_    0.091133 0.680336 0.288252 0.159508
H30   H     H_    0.064999 0.386890 0.766629 0.105295
H31   H     H_    0.937994 0.611767 0.235233 0.095199
H32   H     H_    0.056782 0.157564 0.789435 0.193610
H33   H     H_    0.933473 0.834739 0.207703 0.194833
H34   H     H_    0.940652 0.094119 0.731613 0.155170
H35   H     H_    0.048711 0.901880 0.260987 0.159069
H36   H     H_    0.931726 0.199139 0.829562 0.192710
H37   H     H_    0.858913 0.896180 0.636297 0.189672
H38   H     H_    0.058234 0.797092 0.163249 0.191751
H39   H     H_    0.046511 0.252296 0.895389 0.153460
H40   H     H_    0.942117 0.737351 0.100882 0.161105
H41   H     H_    0.323951 0.400061 0.619545 0.241880
H42   H     H_    0.636104 0.617561 0.360594 0.234288
H43   H     H_    0.397751 0.357288 0.641151 0.136277
H44   H     H_    0.591187 0.686183 0.391444 0.115805
H45   H     H_    0.296515 0.233574 0.626662 0.097489
H46   H     H_    0.699172 0.806509 0.409084 0.064430
H47   H     H_    0.231940 0.367621 0.467015 0.210352
H48   H     H_    0.209696 0.276518 0.376952 0.117183
H49   H     H_    0.742051 0.602375 0.462974 0.217879
H50   H     H_    0.179953 0.311729 0.900262 0.146998
H51   H     H_    0.163291 0.389713 0.974583 0.149448
H52   H     H_    0.264599 0.423143 0.975021 0.173688
H53   H     H_    0.821665 0.688157 0.106196 0.144758
H54   H     H_    0.739446 0.616952 0.118953 0.174305
H55   H     H_    0.745093 0.576890 0.021655 0.169197
H56   H     H_    0.265876 0.197357 0.338028 0.182726
H57   H     H_    0.364160 0.201115 0.381857 0.210405
H58   H     H_    0.814074 0.788812 0.679347 0.154060
H59   H     H_    0.793423 0.668513 0.576565 0.123376
H60   H     H_    0.774810 0.856307 0.708328 0.171534
H61   H     H_    0.389935 0.161523 0.501480 0.187195
H62   H     H_    0.446248 0.269420 0.534789 0.189928
H63   H     H_    0.670841 0.867497 0.610917 0.174765
H64   H     H_    0.630922 0.813398 0.503951 0.147929
H65   H     H_    0.053902 0.211928 0.336577 0.169552
H66   H     H_    0.092821 0.140888 0.325752 0.144733
H67   H     H_    0.939277 0.735460 0.605566 0.149319
H68   H     H_    0.923404 0.819084 0.646348 0.143789
H69   H     H_    0.669439 0.580108 0.832174 0.198162
H70   H     H_    0.748028 0.640506 0.773362 0.215026
H71   H     H_    0.583675 0.487456 0.805292 0.166780
H72   H     H_    0.329225 0.424581 0.163116 0.193914
H73   H     H_    0.419156 0.517725 0.198449 0.167440
H74   H     H_    0.633980 0.290914 0.654811 0.139033
H75   H     H_    0.681364 0.252318 0.589187 0.187816
H76   H     H_    0.567627 0.219825 0.540481 0.184380
H77   H     H_    0.365626 0.704254 0.362233 0.119902
H78   H     H_    0.450443 0.697667 0.441214 0.173105
H79   H     H_    0.411302 0.771324 0.475555 0.189384
H80   H     H_    0.925492 0.464452 0.757288 0.203733
H81   H     H_    0.256541 0.359998 0.220873 0.213200
H82   H     H_    0.898934 0.530785 0.722264 0.189352
H83   H     H_    0.073985 0.540481 0.242196 0.196969
H84   H     H_    0.088917 0.462728 0.264158 0.191780
H85   H     H_    0.822095 0.062610 0.563300 0.183333
H86   H     H_    0.821173 0.098332 0.657570 0.165725
H87   H     H_    0.175093 0.944089 0.426872 0.175929
H88   H     H_    0.172958 0.903120 0.331291 0.175581
H89   H     H_    0.962340 0.278164 0.604171 0.149304
H90   H     H_    0.877785 0.175079 0.523421 0.210640
H91   H     H_    0.050083 0.738763 0.409173 0.166707
H92   H     H_    0.798003 0.610964 0.711093 0.147734
H93   H     H_    0.140790 0.840316 0.480073 0.219543
H94   H     H_    0.264505 0.377831 0.776050 0.224447
H95   H     H_    0.354529 0.383495 0.758944 0.155760
H96   H     H_    0.282774 0.284442 0.753779 0.162313
H97   H     H_    0.677097 0.681619 0.207723 0.179032
H98   H     H_    0.684867 0.783022 0.274006 0.159797
H99   H     H_    0.602823 0.676899 0.249158 0.144964
H100  H     H_    0.051253 0.231033 0.538665 0.188582
H101  H     H_    0.993417 0.217510 0.431043 0.151254
H102  H     H_    0.035877 0.317433 0.526611 0.153662
N1    N     N_3   0.302895 0.180258 0.378052 -0.466199
N2    N     N_3   0.118364 0.529967 0.283464 -0.464398
N3    N     N_3   0.826006 0.115492 0.611073 -0.460056
N4    N     N_3   0.172663 0.890521 0.381424 -0.455213
N5    N     N_3   0.902551 0.226743 0.585181 -0.450657
N6    N     N_3   0.108055 0.784534 0.418722 -0.436303
N7    N     N_3   0.757001 0.793761 0.661372 -0.427655
N8    N     N_3   0.390367 0.221754 0.527094 -0.488050
N9    N     N_3   0.650031 0.806493 0.559249 -0.431449
N10   N     N_3   0.074973 0.177274 0.365262 -0.463794
N11   N     N_3   0.925849 0.782113 0.592596 -0.440544
N12   N     N_3   0.617295 0.518581 0.780029 -0.438217
N13   N     N_3   0.381612 0.483298 0.218940 -0.430535
N14   N     N_3   0.875658 0.466321 0.712062 -0.480679
O1    O     O_R   0.592570 0.552270 0.644860 -0.610214
O2    O     O_R   0.407350 0.552250 0.459650 -0.590600
O3    O     O_R   0.407370 0.459660 0.552260 -0.622813
O4    O     O_R   0.592630 0.540340 0.447740 -0.639321
O5    O     O_R   0.407450 0.355140 0.447760 -0.643769
O6    O     O_R   0.592550 0.644860 0.552240 -0.591735
O7    O     O_R   0.052270 0.092540 0.644860 -0.620777
O8    O     O_R   0.947730 0.907460 0.355140 -0.618278
O9    O     O_R   0.947710 0.092600 0.540380 -0.668743
O10   O     O_R   0.052290 0.907400 0.459620 -0.643263
O11   O     O_R   0.144880 0.092570 0.552230 -0.637453
O12   O     O_R   0.407430 0.447730 0.355140 -0.608344
O13   O     O_R   0.855120 0.907430 0.447770 -0.632918
O14   O     O_R   0.040310 0.092630 0.447750 -0.626586
O15   O     O_R   0.959690 0.907370 0.552250 -0.611696
O16   O     O_R   0.052260 0.644880 0.092510 -0.640766
O17   O     O_R   0.947740 0.355120 0.907490 -0.639061
O18   O     O_3   0.164514 0.409952 0.872815 -0.587222
O19   O     O_3   0.838942 0.586921 0.127010 -0.577142
O20   O     O_3   0.648987 0.347060 0.576313 -0.593268
O21   O     O_3   0.327899 0.641431 0.429545 -0.577919
O22   O     O_3   0.228276 0.302028 0.648622 -0.581279
O23   O     O_R   0.947720 0.540390 0.092600 -0.587334
O24   O     O_3   0.733028 0.721801 0.338060 -0.542408
O25   O     O_3   0.131337 0.301745 0.503884 -0.583939
O26   O     O_3   0.847499 0.693995 0.437169 -0.558725
O27   O     O_R   0.052280 0.459610 0.907400 -0.592947
O28   O     O_R   0.959660 0.552230 0.907350 -0.640626
O29   O     O_R   0.040340 0.447770 0.092650 -0.641094
O30   O     O_R   0.855120 0.447750 0.907440 -0.624178
O31   O     O_R   0.144880 0.552250 0.092560 -0.625229
O32   O     O_R   0.592650 0.447750 0.540350 -0.593952
Zn1   Zn    Zn3+2 0.499940 0.569790 0.569780 0.987889
Zn2   Zn    Zn3+2 0.500060 0.430210 0.430220 0.953448
Zn3   Zn    Zn3+2 0.069820 0.999960 0.569760 0.930700
Zn4   Zn    Zn3+2 0.930180 0.000040 0.430240 0.910530
Zn5   Zn    Zn3+2 0.069800 0.569760 0.999940 0.941034
Zn6   Zn    Zn3+2 0.930200 0.430240 0.000060 0.942190

loop_
_geom_bond_atom_site_label_1
_geom_bond_atom_site_label_2
_ccdc_geom_bond_type
C59   H53   S    
O9    Zn4   S    
C66   C68   S    
C34   C56   S    
C23   C45   S    
C45   C55   S    
H71   N12   S    
C3    C23   S    
C61   H78   S    
C50   H11   S    
O11   Zn3   S    
C55   C68   S    
C2    C57   S    
C5    H70   S    
C47   C49   S    
C49   H10   S    
C4    H15   S    
C13   H16   S    
C10   H20   S    
O1    Zn1   S    
C36   C47   S    
C45   C51   S    
O16   Zn5   S    
C3    H1    S    
O32   Zn2   S    
C38   C42   S    
C10   C15   S    
C25   C40   S    
C40   H30   S    
H84   N2    S    
C33   O28   A    
C50   H27   S    
C46   H24   S    
C55   H48   S    
C52   H44   S    
C17   O4    A    
C40   C49   S    
O27   Zn5   S    
H85   N3    S    
C58   H50   S    
C65   H5    S    
C56   C57   S    
H58   N7    S    
C24   H18   S    
C22   H17   S    
C32   O17   A    
C61   H77   S    
H88   N4    S    
C23   N8    S    
C22   N14   S    
C9    N12   S    
H62   N8    S    
C60   H74   S    
C37   N4    S    
C6    H81   S    
C60   O20   S    
C63   H98   S    
C62   H96   S    
C52   C54   S    
H68   N11   S    
C28   O10   A    
C41   H31   S    
O23   Zn6   S    
C27   O9    A    
C41   O19   S    
O13   Zn4   S    
O30   Zn6   S    
C42   H39   S    
H93   N6    S    
C30   C67   S    
C21   H22   S    
C5    H92   S    
C25   C32   S    
C48   C50   S    
C30   O15   A    
C6    C15   S    
C36   N3    S    
C51   H41   S    
C10   N13   S    
C12   O12   A    
C34   N9    S    
C20   H21   S    
C27   O7    A    
O17   Zn6   S    
H57   N1    S    
C68   O25   S    
C28   O8    A    
C25   C44   S    
C31   O16   A    
C53   H45   S    
C26   C43   S    
C39   H33   S    
C7    H6    S    
O28   Zn5   S    
C10   C21   S    
C59   H55   S    
O2    Zn1   S    
C4    C34   S    
C2    O26   S    
H72   N13   S    
C20   H12   S    
C52   C56   S    
C8    C19   S    
O15   Zn3   S    
C38   H32   S    
C2    C67   S    
O7    Zn3   S    
C5    C7    S    
C32   O27   A    
H63   N9    S    
C6    C8    S    
C54   C67   S    
C29   O11   A    
C68   N10   S    
C8    H7    S    
H83   N2    S    
C13   C24   S    
H73   N13   S    
C43   H38   S    
C16   C45   S    
C9    C14   S    
C31   O23   A    
C44   H28   S    
O29   Zn6   S    
C9    C20   S    
O12   Zn2   S    
C62   H95   S    
C12   C15   S    
C52   H42   S    
H80   N14   S    
C7    C18   S    
C12   O2    A    
C1    O32   A    
C58   H52   S    
C53   O22   S    
C5    C14   S    
H66   N10   S    
C37   C48   S    
C53   C66   S    
C35   O29   A    
C17   C56   S    
C58   O18   S    
C65   O26   S    
C7    H8    S    
C44   H23   S    
H89   N5    S    
H87   N4    S    
C46   H29   S    
C21   H13   S    
C64   H101  S    
C60   H75   S    
C54   O24   S    
C63   O24   S    
C13   C15   S    
C8    H9    S    
C13   O21   S    
C64   O25   S    
C36   C44   S    
C3    C66   S    
C11   H14   S    
O8    Zn4   S    
O6    Zn1   S    
C41   C50   S    
O5    Zn2   S    
C57   H49   S    
O3    Zn1   S    
C4    H37   S    
C27   C47   S    
C6    H2    S    
C28   C48   S    
C51   H43   S    
H86   N3    S    
C19   C21   S    
C18   C22   S    
C26   C31   S    
O14   Zn4   S    
C40   O18   S    
C16   O3    A    
C42   H36   S    
C25   C42   S    
C57   H59   S    
C4    C67   S    
H82   N14   S    
C33   O30   A    
H65   N10   S    
C39   H35   S    
O10   Zn3   S    
H69   N12   S    
O4    Zn2   S    
C17   O6    A    
C1    C14   S    
C65   H4    S    
H61   N8    S    
C11   C22   S    
C38   C47   S    
H91   N6    S    
C49   H25   S    
C1    O1    A    
C19   C24   S    
C61   H79   S    
C64   H100  S    
C65   H3    S    
C9    H19   S    
C37   N6    S    
C62   H94   S    
H56   N1    S    
C55   H47   S    
C59   H54   S    
C54   H46   S    
C63   H99   S    
C58   H51   S    
C11   C14   S    
C62   O22   S    
C3    H26   S    
C18   C20   S    
C43   H40   S    
C64   H102  S    
C24   N2    S    
C18   C33   S    
C11   O20   S    
C16   O5    A    
C26   C46   S    
H64   N9    S    
C29   C66   S    
C59   O19   S    
H90   N5    S    
C63   H97   S    
C30   O13   A    
C23   N1    S    
C39   C43   S    
C36   N5    S    
C38   H34   S    
C29   O14   A    
H67   N11   S    
C34   N7    S    
C19   C35   S    
H60   N7    S    
C51   C53   S    
C37   C46   S    
C35   O31   A    
C2    N11   S    
C60   H76   S    
O31   Zn5   S    
C26   C41   S    
C61   O21   S    
C39   C48   S    
