data_mof_unit_pretest_1728.cif
_audit_creation_date              2012-10-26T17:23:09-0400
_audit_creation_method            fapswitch 2.2
_symmetry_space_group_name_H-M    P1
_symmetry_Int_Tables_number       1
_space_group_crystal_system       triclinic
_cell_length_a                    42.549276
_cell_length_b                    29.421888
_cell_length_c                    30.756025
_cell_angle_alpha                 89.994397
_cell_angle_beta                  136.250149
_cell_angle_gamma                 90.004089
_cell_volume                      26625.1534863

loop_
_atom_site_label
_atom_site_type_symbol
_atom_type_description
_atom_site_fract_x
_atom_site_fract_y
_atom_site_fract_z
_atom_type_partial_charge
C1    C     C_R   0.585494 0.500000 0.585941 0.552549
C2    C     C_1   0.997283 0.000065 0.332855 -0.104732
C3    C     C_3   0.520210 0.544575 0.241650 -0.193315
C4    C     C_3   0.026868 0.960420 0.248598 -0.241057
C5    C     C_3   0.016686 0.046048 0.238101 -0.193392
C6    C     C_1   0.499766 0.500130 0.119592 -0.014355
C7    C     C_1   0.999764 0.000098 0.119590 -0.014349
C8    C     C_3   0.495902 0.500342 0.284795 -0.025596
C9    C     C_3   0.995887 0.000108 0.284779 -0.025602
C10   C     C_3   0.497822 0.500461 0.202328 -0.017038
C11   C     C_3   0.997801 0.000312 0.202307 -0.017046
C12   C     C_2   0.522472 0.415443 0.315211 0.219657
C13   C     C_1   0.498717 0.500046 0.372549 -0.014086
C14   C     C_2   0.494474 0.588697 0.283994 0.206675
C15   C     C_2   0.028986 0.917536 0.321776 0.219643
C16   C     C_2   0.987585 0.088081 0.277054 0.206672
C17   C     C_2   0.412693 0.529047 0.202178 0.250501
C18   C     C_2   0.425828 0.448553 0.211118 0.228561
C19   C     C_2   0.910695 0.022247 0.200161 0.250528
C20   C     C_2   0.930057 0.943017 0.215374 0.228566
C21   C     C_1   0.998712 0.000023 0.372544 -0.013984
C22   C     C_1   0.636540 0.500000 0.636908 -0.032146
C23   C     C_1   0.136540 0.999999 0.636908 -0.031503
C24   C     C_1   0.678862 0.499999 0.679166 -0.025958
C25   C     C_1   0.178862 0.999999 0.679165 -0.025463
C26   C     C_1   0.729026 0.499999 0.729259 0.010748
C27   C     C_1   0.229026 0.999999 0.729258 0.011065
C28   C     C_1   0.771348 0.499999 0.771523 0.010176
C29   C     C_R   0.085494 1.000000 0.585941 0.553202
C30   C     C_1   0.271348 0.999999 0.771523 0.010382
C31   C     C_1   0.821512 0.499999 0.821625 -0.027217
C32   C     C_1   0.321512 0.999999 0.821624 -0.027085
C33   C     C_R   0.500146 0.500005 0.419004 0.576692
C34   C     C_R   0.000147 0.000003 0.419004 0.577303
C35   C     C_1   0.863834 0.500000 0.863900 -0.033254
C36   C     C_1   0.363834 1.000000 0.863900 -0.033168
C37   C     C_1   0.499993 0.499995 0.635303 -0.038734
C38   C     C_1   0.999993 0.999995 0.635303 -0.038758
C39   C     C_1   0.500009 0.499995 0.676698 -0.023836
C40   C     C_3   0.447825 0.498870 0.167923 -0.139576
C41   C     C_1   0.000009 0.999995 0.676698 -0.023862
C42   C     C_1   0.500030 0.499996 0.726144 0.008653
C43   C     C_1   0.000030 0.999996 0.726144 0.008639
C44   C     C_1   0.500047 0.499997 0.767539 0.008620
C45   C     C_1   0.000047 0.999996 0.767539 0.008613
C46   C     C_1   0.500063 0.499998 0.816980 -0.023867
C47   C     C_1   0.000063 0.999998 0.816980 -0.023867
C48   C     C_1   0.500067 0.499999 0.858363 -0.038209
C49   C     C_1   0.000067 0.999999 0.858363 -0.038205
C50   C     C_1   0.363415 0.500000 0.363737 -0.034436
C51   C     C_3   0.948077 0.994848 0.168175 -0.139576
C52   C     C_1   0.863415 0.000000 0.363737 -0.034501
C53   C     C_1   0.321095 0.500000 0.321337 -0.025424
C54   C     C_1   0.821096 0.000000 0.321337 -0.025423
C55   C     C_1   0.270934 0.500000 0.271090 0.012796
C56   C     C_1   0.770934 0.000000 0.271090 0.012845
C57   C     C_R   0.414458 0.500000 0.414881 0.548068
C58   C     C_R   0.914458 0.000000 0.414881 0.548023
C59   C     C_1   0.228614 0.500000 0.228708 0.012190
C60   C     C_1   0.728614 0.000000 0.228708 0.012246
C61   C     C_1   0.178452 0.500000 0.178486 -0.025699
C62   C     C_3   0.445515 0.494064 0.216425 0.029550
C63   C     C_1   0.678452 0.000000 0.178486 -0.025641
C64   C     C_1   0.136132 0.500000 0.136135 -0.032290
C65   C     C_1   0.636132 0.000000 0.136135 -0.032239
C66   C     C_R   0.500033 0.585447 0.994563 0.550844
C67   C     C_R   0.500033 0.414553 0.994562 0.550518
C68   C     C_R   0.000033 0.085447 0.994563 0.550706
C69   C     C_R   0.000033 0.914553 0.994562 0.550633
C70   C     C_R   0.499988 0.499972 0.074745 0.572160
C71   C     C_R   0.999988 0.999987 0.074745 0.572147
C72   C     C_R   0.500046 0.500000 0.908680 0.543624
C73   C     C_3   0.946143 0.989913 0.217055 0.029564
C74   C     C_R   0.000046 1.000000 0.908680 0.543615
C75   C     C_R   0.000015 0.414870 0.999132 0.547125
C76   C     C_R   0.000015 0.585130 0.999128 0.546952
C77   C     C_R   0.500015 0.914870 0.999132 0.547164
C78   C     C_R   0.500015 0.085130 0.999128 0.546885
C79   C     C_R   0.914880 0.500000 0.914906 0.547011
C80   C     C_R   0.414880 1.000000 0.914906 0.547002
C81   C     C_R   0.085088 0.500000 0.085098 0.547235
C82   C     C_R   0.585088 0.000000 0.085098 0.547220
C83   C     C_1   0.500046 0.636499 0.995400 -0.034787
C84   C     C_1   0.499045 0.500292 0.157158 -0.075550
C85   C     C_1   0.500046 0.363501 0.995396 -0.035603
C86   C     C_1   0.000046 0.136499 0.995399 -0.035015
C87   C     C_1   0.000046 0.863501 0.995396 -0.035378
C88   C     C_R   0.499975 0.499998 0.584947 0.542728
C89   C     C_R   0.999975 0.999998 0.584947 0.542758
C90   C     C_1   0.500048 0.678822 0.996123 -0.026657
C91   C     C_1   0.500048 0.321178 0.996117 -0.027793
C92   C     C_1   0.000048 0.178822 0.996123 -0.026942
C93   C     C_1   0.000048 0.821178 0.996117 -0.027536
C94   C     C_1   0.500045 0.728990 0.996983 0.011301
C95   C     C_1   0.999036 0.000208 0.157149 -0.075540
C96   C     C_1   0.500045 0.271009 0.996974 0.010102
C97   C     C_1   0.000045 0.228990 0.996983 0.011006
C98   C     C_1   0.000045 0.771009 0.996974 0.010334
C99   C     C_1   0.000040 0.271314 0.997680 0.010778
C100  C     C_1   0.000040 0.728686 0.997669 0.010165
C101  C     C_1   0.500040 0.771314 0.997680 0.011050
C102  C     C_1   0.500040 0.228686 0.997669 0.009978
C103  C     C_1   0.000033 0.321484 0.998429 -0.026514
C104  C     C_1   0.000032 0.678515 0.998417 -0.027016
C105  C     C_1   0.500033 0.821484 0.998429 -0.026277
C106  C     C_1   0.497295 0.500168 0.332866 -0.104665
C107  C     C_1   0.500032 0.178515 0.998417 -0.027148
C108  C     C_1   0.000025 0.363811 0.998912 -0.032737
C109  C     C_1   0.000025 0.636189 0.998902 -0.033110
C110  C     C_1   0.500025 0.863811 0.998912 -0.032550
C111  C     C_1   0.500025 0.136189 0.998902 -0.033194
C112  C     C_3   0.517225 0.546179 0.289067 -0.092217
C113  C     C_3   0.528196 0.461608 0.299749 -0.090404
C114  C     C_3   0.013579 0.047453 0.285396 -0.092150
C115  C     C_3   0.031099 0.963991 0.302676 -0.090451
C116  C     C_3   0.523699 0.458414 0.245403 -0.241129
Cu1   Cu    Cu3+1 0.499970 0.542470 0.500570 0.963669
Cu2   Cu    Cu3+1 0.499990 0.000000 0.958110 0.971995
Cu3   Cu    Cu3+1 0.999980 0.500000 0.041890 0.966491
Cu4   Cu    Cu3+1 0.499980 0.000000 0.041890 0.966670
Cu5   Cu    Cu3+1 0.499970 0.457530 0.500570 0.991521
Cu6   Cu    Cu3+1 0.999970 0.042470 0.500570 0.963429
Cu7   Cu    Cu3+1 0.999970 0.957530 0.500570 0.990583
Cu8   Cu    Cu3+1 0.542500 0.500000 0.035600 0.964048
Cu9   Cu    Cu3+1 0.042500 0.000000 0.035600 0.964096
Cu10  Cu    Cu3+1 0.457550 0.500000 0.950640 0.975386
Cu11  Cu    Cu3+1 0.957550 0.000000 0.950640 0.975494
Cu12  Cu    Cu3+1 0.999990 0.500000 0.958110 0.971735
H1    H     H_    0.556596 0.545275 0.268018 0.111671
H2    H     H_    0.429459 0.471134 0.132459 0.180190
H3    H     H_    0.928747 0.025316 0.137839 0.171297
H4    H     H_    0.931925 0.965756 0.134941 0.180087
H5    H     H_    0.495398 0.392687 0.278356 0.153132
H6    H     H_    0.496464 0.595783 0.320558 0.115203
H7    H     H_    0.003766 0.892734 0.286790 0.153206
H8    H     H_    0.989009 0.095321 0.313048 0.115116
H9    H     H_    0.505114 0.427069 0.216974 0.144869
H10   H     H_    0.504014 0.574528 0.209796 0.187284
H11   H     H_    0.010779 0.927717 0.222684 0.144880
H12   H     H_    0.558231 0.456482 0.265169 0.125664
H13   H     H_    0.998210 0.074639 0.203948 0.187309
H14   H     H_    0.419800 0.545767 0.239964 0.109355
H15   H     H_    0.423853 0.440880 0.243634 0.113893
H16   H     H_    0.916475 0.039489 0.236612 0.108957
H17   H     H_    0.928680 0.935238 0.248493 0.114239
H18   H     H_    0.052908 0.049571 0.264307 0.111553
H19   H     H_    0.061448 0.961170 0.268413 0.125788
H20   H     H_    0.552801 0.548450 0.336874 0.095998
H21   H     H_    0.563925 0.471972 0.342507 0.156068
H22   H     H_    0.048870 0.052494 0.332917 0.096122
H23   H     H_    0.065913 0.977111 0.344512 0.156050
H24   H     H_    0.430922 0.530756 0.140035 0.171202
O1    O     O_R   0.561950 0.535860 0.562460 -0.485269
O2    O     O_R   0.500010 0.061990 0.963800 -0.481168
O3    O     O_R   1.000000 0.438000 0.034540 -0.481172
O4    O     O_R   0.000000 0.562000 0.034540 -0.481311
O5    O     O_R   0.500000 0.938000 0.034540 -0.481077
O6    O     O_R   0.500000 0.062000 0.034540 -0.481389
O7    O     O_R   0.938010 0.500000 0.902650 -0.481067
O8    O     O_R   0.438010 0.000000 0.902650 -0.481006
O9    O     O_R   0.938010 0.500000 0.973390 -0.481698
O10   O     O_R   0.438010 0.000000 0.973390 -0.481725
O11   O     O_R   0.061960 0.500000 0.026610 -0.479192
O12   O     O_R   0.561950 0.464140 0.562460 -0.477805
O13   O     O_R   0.561960 0.000000 0.026610 -0.479183
O14   O     O_R   0.061960 0.500000 0.097350 -0.482679
O15   O     O_R   0.561960 0.000000 0.097350 -0.482667
O16   O     O_R   0.499980 0.535870 0.439370 -0.505065
O17   O     O_R   0.499980 0.464130 0.439370 -0.476801
O18   O     O_R   0.999980 0.035870 0.439370 -0.504666
O19   O     O_R   0.999980 0.964130 0.439370 -0.477984
O20   O     O_R   0.438000 0.535860 0.438500 -0.483640
O21   O     O_R   0.438000 0.464140 0.438500 -0.484071
O22   O     O_R   0.938000 0.035860 0.438500 -0.483765
O23   O     O_R   0.061950 0.035860 0.562460 -0.485286
O24   O     O_R   0.938000 0.964140 0.438500 -0.484202
O25   O     O_R   0.499970 0.535850 0.561590 -0.480971
O26   O     O_R   0.499970 0.464150 0.561590 -0.481631
O27   O     O_R   0.999970 0.035850 0.561590 -0.481041
O28   O     O_R   0.999970 0.964150 0.561590 -0.481590
O29   O     O_R   0.535890 0.561890 0.029840 -0.483680
O30   O     O_R   0.535890 0.438110 0.029840 -0.483523
O31   O     O_R   0.035890 0.061890 0.029840 -0.483754
O32   O     O_R   0.035890 0.938110 0.029840 -0.483467
O33   O     O_R   0.464160 0.561920 0.958100 -0.481231
O34   O     O_R   0.061950 0.964140 0.562460 -0.477447
O35   O     O_R   0.464160 0.438080 0.958100 -0.481747
O36   O     O_R   0.964160 0.061920 0.958100 -0.481268
O37   O     O_R   0.964160 0.938080 0.958100 -0.481679
O38   O     O_R   0.535890 0.500000 0.090110 -0.495477
O39   O     O_R   0.035890 0.000000 0.090110 -0.495468
O40   O     O_R   0.464150 0.500000 0.018360 -0.489631
O41   O     O_R   0.964150 0.000000 0.018360 -0.489619
O42   O     O_R   0.535900 0.500000 0.967880 -0.481765
O43   O     O_R   0.035900 0.000000 0.967880 -0.481765
O44   O     O_2   0.549124 0.402815 0.369776 -0.487060
O45   O     O_R   0.464160 0.500000 0.896130 -0.481868
O46   O     O_2   0.473993 0.615255 0.240126 -0.486310
O47   O     O_2   0.056541 0.907040 0.377250 -0.487392
O48   O     O_2   0.965107 0.112952 0.231171 -0.486320
O49   O     O_2   0.376181 0.536477 0.148130 -0.465411
O50   O     O_2   0.411698 0.420346 0.171178 -0.508758
O51   O     O_2   0.873718 0.026803 0.145641 -0.465427
O52   O     O_2   0.918171 0.913777 0.177694 -0.508795
O53   O     O_R   0.964160 0.000000 0.896130 -0.481863
O54   O     O_R   0.000010 0.438010 0.963800 -0.481085
O55   O     O_R   0.000010 0.561990 0.963800 -0.481171
O56   O     O_R   0.500010 0.938010 0.963800 -0.481063

loop_
_geom_bond_atom_site_label_1
_geom_bond_atom_site_label_2
_ccdc_geom_bond_type
C99   C103  S    
C105  C110  T    
C63   C65   T    
C68   O31   A    
C19   H16   S    
C96   C102  T    
C5    C114  S    
Cu9   O31   S    
C68   C86   S    
C37   C88   S    
Cu2   O8    S    
C33   O17   A    
Cu3   O9    S    
Cu8   O38   S    
Cu7   O24   S    
C85   C91   T    
C70   O40   A    
C88   O25   A    
C47   C49   T    
C23   C25   T    
C14   C112  S    
C14   O46   D    
C38   C89   S    
Cu11  O37   S    
C9    C73   S    
C60   C63   S    
C9    C114  S    
C32   C36   T    
C22   C24   T    
C18   H15   S    
C48   C72   S    
C79   O9    A    
C55   C59   T    
Cu11  O41   S    
C79   O7    A    
C104  C109  T    
C75   O54   A    
C80   O8    A    
C15   H7    S    
Cu5   O17   S    
Cu9   O43   S    
Cu1   O16   S    
Cu6   O23   S    
C100  C104  S    
C40   C62   S    
C29   O34   A    
C40   H24   S    
C10   C40   S    
C89   O28   A    
C35   C79   S    
Cu1   Cu5   S    
C91   C96   S    
C116  H12   S    
C4    C115  S    
C7    C95   T    
C66   C83   S    
C78   O6    A    
Cu5   O21   S    
C94   C101  T    
C52   C54   T    
C76   C109  S    
Cu6   O18   S    
C81   O14   A    
Cu2   O2    S    
C78   C111  S    
Cu12  O55   S    
C41   C43   S    
C16   O48   D    
C76   O55   A    
Cu4   O10   S    
C113  C116  S    
Cu3   Cu12  S    
C45   C47   S    
C72   O45   A    
C1    C22   S    
C27   C30   T    
Cu4   O6    S    
C81   O11   A    
C58   O22   A    
Cu12  O54   S    
C29   O23   A    
C97   C99   T    
C67   O35   A    
C92   C97   S    
C90   C94   S    
C39   C42   S    
C46   C48   T    
C82   O15   A    
C53   C55   S    
C101  C105  S    
Cu6   O27   S    
C54   C56   S    
C59   C61   S    
C50   C53   T    
C6    C84   T    
C9    C115  S    
C113  H21   S    
C19   C73   S    
C20   O52   D    
C38   C41   T    
C18   O50   D    
C36   C80   S    
C77   O56   A    
C69   O37   A    
C1    O12   A    
C51   H3    S    
C18   C62   S    
C21   C34   S    
C44   C46   S    
Cu6   O22   S    
Cu5   O12   S    
C76   O4    A    
Cu12  O11   S    
C112  H20   S    
C8    C106  S    
C17   H14   S    
C61   C64   T    
Cu2   O56   S    
Cu10  O33   S    
Cu8   O30   S    
C67   O30   A    
C17   C62   S    
C15   O47   D    
C12   O44   D    
C5    H13   S    
C3    C112  S    
C2    C21   T    
C19   O51   D    
Cu11  O36   S    
C102  C107  S    
Cu9   O39   S    
C3    H10   S    
C4    C11   S    
C17   O49   D    
C43   C45   T    
Cu3   O14   S    
C80   O10   A    
C103  C108  T    
C52   C58   S    
C8    C113  S    
C57   O21   A    
Cu10  O45   S    
C66   O29   A    
C98   C100  T    
C7    C71   S    
C5    C11   S    
Cu1   O1    S    
Cu4   O5    S    
C15   C115  S    
C33   O16   A    
C114  H22   S    
C115  H23   S    
C16   H8    S    
C23   C29   S    
Cu10  O40   S    
C10   C116  S    
C70   O38   A    
Cu8   Cu10  S    
C116  H9    S    
C11   C95   S    
C6    C70   S    
C83   C90   T    
C40   H2    S    
C74   O43   A    
Cu10  O35   S    
Cu3   O3    S    
C5    H18   S    
C3    H1    S    
C50   C57   S    
C107  C111  T    
C28   C31   S    
C78   O2    A    
C51   C73   S    
C24   C26   S    
C13   C106  T    
C16   C114  S    
C51   H4    S    
C88   O26   A    
Cu5   O26   S    
Cu7   O28   S    
C34   O18   A    
C25   C27   S    
C69   C87   S    
C14   H6    S    
Cu2   O13   S    
C26   C28   T    
C71   O41   A    
C12   H5    S    
C57   O20   A    
Cu7   O34   S    
C8    C112  S    
Cu11  O53   S    
C42   C44   T    
Cu8   O29   S    
C37   C39   T    
C3    C10   S    
C86   C92   T    
C4    H11   S    
C30   C32   S    
C4    H19   S    
Cu1   O20   S    
C65   C82   S    
C67   C85   S    
C58   O24   A    
C87   C93   T    
C10   C84   S    
C20   C73   S    
C12   C113  S    
C31   C35   T    
C89   O27   A    
C77   C110  S    
Cu2   Cu4   S    
C64   C81   S    
C1    O1    A    
C11   C51   S    
C69   O32   A    
Cu3   O4    S    
C75   O3    A    
C75   C108  S    
C72   O42   A    
C56   C60   T    
C20   H17   S    
C68   O36   A    
C13   C33   S    
C66   O33   A    
Cu8   O42   S    
Cu9   Cu11  S    
C49   C74   S    
C77   O5    A    
Cu1   O25   S    
C71   O39   A    
Cu6   Cu7   S    
C2    C9    S    
C93   C98   S    
C74   O53   A    
Cu12  O7    S    
Cu7   O19   S    
C34   O19   A    
Cu4   O15   S    
C8    C62   S    
Cu9   O32   S    
C82   O13   A    
