data_mof_unit_pretest_1136.cif
_audit_creation_date              2013-03-05T15:48:06-0500
_audit_creation_method            fapswitch 2.2
_symmetry_space_group_name_H-M    P1
_symmetry_Int_Tables_number       1
_space_group_crystal_system       triclinic
_cell_length_a                    15.087117
_cell_length_b                    13.016326
_cell_length_c                    11.665911
_cell_angle_alpha                 99.842918
_cell_angle_beta                  93.515102
_cell_angle_gamma                 90.431142
_cell_volume                      2252.59144474

loop_
_atom_site_label
_atom_site_type_symbol
_atom_site_description
_atom_site_fract_x
_atom_site_fract_y
_atom_site_fract_z
_atom_type_partial_charge
O1    O     O_R   0.504720 0.354460 0.582000 -0.600012
O2    O     O_R   0.495280 0.645540 0.418000 -0.599958
O3    O     O_R   0.493480 0.341410 0.386200 -0.573074
O4    O     O_R   0.506520 0.658590 0.613800 -0.573135
C1    C     C_R   0.498985 0.299116 0.478606 0.855411
C2    C     C_R   0.501014 0.700884 0.521394 0.855546
O5    O     O_R   0.375880 0.506510 0.597910 -0.539150
O6    O     O_R   0.624120 0.493490 0.402090 -0.539174
O7    O     O_R   0.364640 0.493450 0.402110 -0.598460
O8    O     O_R   0.635360 0.506550 0.597890 -0.598539
C3    C     C_R   0.328834 0.503003 0.501053 0.855398
C4    C     C_R   0.671165 0.496953 0.498949 0.855383
Cu1   Cu    Cu3+1 0.506660 0.507730 0.615930 1.023361
Cu2   Cu    Cu3+1 0.493340 0.492270 0.384070 1.023390
C5    C     C_R   0.817624 0.552161 0.589695 -0.220690
C6    C     C_R   0.182380 0.447455 0.410503 -0.220746
C7    C     C_R   0.767714 0.492167 0.497508 -0.166892
C8    C     C_R   0.232289 0.507626 0.502551 -0.166651
C9    C     C_R   0.809689 0.430973 0.405163 0.305416
C10   C     C_R   0.190336 0.568751 0.594954 0.305329
C11   C     C_R   0.903860 0.429664 0.407363 -0.096819
C12   C     C_R   0.096176 0.569786 0.593035 -0.097146
C13   C     C_R   0.953297 0.496430 0.499262 0.017616
C14   C     C_R   0.046734 0.503034 0.501103 0.017728
C15   C     C_R   0.909435 0.556623 0.589954 0.075549
C16   C     C_R   0.090586 0.442840 0.410380 0.075576
C17   C     C_R   0.950826 0.365443 0.321032 0.335150
C18   C     C_R   0.049211 0.633660 0.679658 0.334973
C19   C     C_R   0.042850 0.375496 0.321857 -0.203692
C20   C     C_R   0.957176 0.623726 0.678689 -0.203520
H1    H     H_    0.784302 0.599436 0.659528 0.172443
H2    H     H_    0.215703 0.400181 0.340664 0.172394
H3    H     H_    0.077780 0.326547 0.255032 0.194690
H4    H     H_    0.922255 0.672488 0.745677 0.194490
C21   C     C_R   0.501158 0.814206 0.533942 -0.131380
C22   C     C_R   0.498840 0.185794 0.466058 -0.131431
C23   C     C_R   0.499876 0.015760 0.342937 0.342890
C24   C     C_R   0.500122 0.984240 0.657062 0.342876
C25   C     C_R   0.497258 0.124014 0.355371 -0.167912
C26   C     C_R   0.502740 0.875986 0.644628 -0.167869
C27   C     C_R   0.501614 0.139533 0.565599 -0.168122
C28   C     C_R   0.498384 0.860467 0.434401 -0.168077
C29   C     C_R   0.499987 0.031343 0.556294 0.003592
C30   C     C_R   0.500010 0.968657 0.443706 0.003592
H5    H     H_    0.494176 0.811267 0.349585 0.207856
H6    H     H_    0.505822 0.188733 0.650415 0.207848
H7    H     H_    0.503139 0.840050 0.721870 0.214484
H8    H     H_    0.496859 0.159950 0.278130 0.214510
N1    N     N_R   0.516670 0.519360 0.790130 -0.224587
N2    N     N_R   0.483330 0.480640 0.209870 -0.224577
C31   C     C_R   0.412802 0.404291 0.023123 0.257803
C32   C     C_R   0.587199 0.595706 0.976876 0.257776
C33   C     C_R   0.423388 0.412495 0.145253 0.043893
C34   C     C_R   0.576612 0.587503 0.854747 0.043766
C35   C     C_R   0.536141 0.541815 0.157148 0.134135
C36   C     C_R   0.463860 0.458183 0.842852 0.134415
C37   C     C_R   0.531664 0.534646 0.034023 -0.094183
C38   C     C_R   0.468337 0.465352 0.965976 -0.094167
H9    H     H_    0.418997 0.403248 0.787729 0.183165
H10   H     H_    0.581004 0.596751 0.212270 0.183164
H11   H     H_    0.618432 0.634004 0.810564 0.157119
H12   H     H_    0.381569 0.365994 0.189436 0.157113
N3    N     N_R   0.344520 0.335725 0.960308 0.128939
O9    O     O_R   0.327976 0.246915 0.992371 -0.261638
O10   O     O_R   0.288011 0.369873 0.887437 -0.299889
N4    N     N_R   0.655484 0.664268 0.039692 0.128931
O11   O     O_R   0.672032 0.753077 0.007630 -0.261613
O12   O     O_R   0.711992 0.630116 0.112561 -0.299934
N5    N     N_R   0.756309 0.374380 0.308484 0.157586
O13   O     O_R   0.753312 0.405715 0.208231 -0.267080
O14   O     O_R   0.702463 0.300162 0.324254 -0.305612
N6    N     N_R   0.243783 0.625795 0.691256 0.157582
O15   O     O_R   0.296996 0.700441 0.674999 -0.305977
O16   O     O_R   0.247916 0.594132 0.791344 -0.266906
N7    N     N_R   0.908312 0.283830 0.237228 0.169583
O17   O     O_R   0.872220 0.204845 0.272947 -0.250761
O18   O     O_R   0.924079 0.275883 0.127674 -0.256107
N8    N     N_R   0.091770 0.714589 0.764283 0.169358
O19   O     O_R   0.076744 0.720738 0.873887 -0.256010
O20   O     O_R   0.127046 0.794636 0.729704 -0.250166
N9    N     N_R   0.504557 0.955745 0.228050 0.126964
O21   O     O_R   0.456479 0.981202 0.141092 -0.252903
O22   O     O_R   0.568525 0.890141 0.206266 -0.284099
N10   N     N_R   0.495440 0.044255 0.771950 0.126947
O23   O     O_R   0.543517 0.018797 0.858908 -0.252915
O24   O     O_R   0.431472 0.109859 0.793733 -0.284155

loop_
_geom_bond_atom_site_label_1
_geom_bond_atom_site_label_2
_geom_bond_distance
_ccdc_geom_bond_type
C26   H7    1.083645 S    
N4    O12   1.301199 A    
N3    O10   1.301200 A    
C3    C8    1.459323 S    
C17   C19   1.392838 A    
C29   C30   1.422866 A    
N9    O21   1.301288 A    
O5    C3    1.290794 A    
O1    C1    1.292481 A    
C9    C11   1.419724 A    
C14   C16   1.407788 A    
N8    O20   1.301253 A    
C5    C15   1.385736 A    
N1    C34   1.359618 A    
C1    C22   1.457136 S    
C19   H3    1.084897 S    
C2    C21   1.457138 S    
O4    Cu1   1.968058 S    
N5    O14   1.301675 A    
C21   C28   1.395096 A    
N7    O17   1.301156 A    
C4    C7    1.459438 S    
C27   H6    1.080844 S    
C18   N8    1.432859 S    
N4    O11   1.301321 A    
C11   C17   1.422577 A    
C12   C18   1.422650 A    
Cu1   Cu2   2.672785 S    
C27   C29   1.393701 A    
C23   N9    1.437369 S    
C22   C27   1.395097 A    
O2    C2    1.292479 A    
C28   C30   1.393702 A    
C17   N7    1.432998 S    
N9    O22   1.301324 A    
C32   C34   1.409490 A    
C11   C13   1.426393 A    
C6    C16   1.385667 A    
N2    C33   1.359620 A    
C20   H4    1.084925 S    
C31   N3    1.436926 S    
N10   O23   1.301289 A    
O4    C2    1.290209 A    
N8    O19   1.301358 A    
C31   C33   1.409491 A    
C28   H5    1.080844 S    
O7    Cu2   1.965763 S    
N7    O18   1.301201 A    
C33   H12   1.082085 S    
O6    C4    1.290876 A    
C31   C38   1.420487 A    
O7    C3    1.291514 A    
O3    Cu2   1.968060 S    
O8    C4    1.291458 A    
Cu1   N1    2.008087 S    
N6    O16   1.301178 A    
C10   C12   1.419602 A    
C35   C37   1.420765 A    
C12   C14   1.426569 A    
C9    N5    1.434887 S    
O1    Cu1   1.966041 S    
C32   N4    1.436927 S    
C15   C20   1.394009 A    
C5    C7    1.392167 A    
O6    Cu2   1.971059 S    
C24   N10   1.437368 S    
C22   C25   1.398388 A    
N10   O24   1.301324 A    
N6    O15   1.301711 A    
O3    C1    1.290210 A    
O8    Cu1   1.965763 S    
C5    H1    1.085625 S    
C34   H11   1.082084 S    
C6    H2    1.085661 S    
N1    C36   1.365715 A    
N2    C35   1.365714 A    
C36   H9    1.079390 S    
C23   C30   1.415623 A    
C18   C20   1.392749 A    
C21   C26   1.398388 A    
C24   C29   1.415623 A    
C23   C25   1.392746 A    
C24   C26   1.392744 A    
C37   C38   1.416245 A    
Cu2   N2    2.008085 S    
C7    C9    1.412058 A    
C36   C38   1.420766 A    
C8    C10   1.411968 A    
C13   C15   1.407616 A    
N5    O13   1.301193 A    
O2    Cu2   1.966042 S    
C32   C37   1.420488 A    
C13   C14   1.410287 A    
N3    O9    1.301320 A    
O5    Cu1   1.971056 S    
C16   C19   1.394031 A    
C6    C8    1.392095 A    
C10   N6    1.434715 S    
C35   H10   1.079390 S    
C25   H8    1.083644 S    
