data_mof_unit_pretest_1853.cif
_audit_creation_date              2013-03-05T16:38:30-0500
_audit_creation_method            fapswitch 2.2
_symmetry_space_group_name_H-M    P1
_symmetry_Int_Tables_number       1
_space_group_crystal_system       triclinic
_cell_length_a                    16.010079
_cell_length_b                    14.78683
_cell_length_c                    10.695231
_cell_angle_alpha                 90.540079
_cell_angle_beta                  90.07014
_cell_angle_gamma                 89.829852
_cell_volume                      2531.84552056

loop_
_atom_site_label
_atom_site_type_symbol
_atom_site_description
_atom_site_fract_x
_atom_site_fract_y
_atom_site_fract_z
_atom_type_partial_charge
O1    O     O_R   0.380310 0.575320 0.500020 -0.550125
O2    O     O_R   0.619690 0.424680 0.499980 -0.550125
O3    O     O_R   0.619690 0.575320 0.499980 -0.572823
O4    O     O_R   0.380310 0.424680 0.500020 -0.572823
C1    C     C_R   0.340958 0.500164 0.499962 0.828127
C2    C     C_R   0.659042 0.499836 0.500038 0.828127
O5    O     O_R   0.499980 0.575330 0.316850 -0.551021
O6    O     O_R   0.500020 0.424670 0.683150 -0.551021
O7    O     O_R   0.500020 0.575330 0.683150 -0.554425
O8    O     O_R   0.499980 0.424670 0.316850 -0.554425
C3    C     C_R   0.498773 0.499533 0.259237 0.902364
C4    C     C_R   0.501227 0.500467 0.740763 0.902364
Cu1   Cu    Cu3+1 0.500000 0.589220 0.500000 1.129797
Cu2   Cu    Cu3+1 0.500000 0.410780 0.500000 1.129797
C5    C     C_1   0.252026 0.500873 0.499966 -0.020531
C6    C     C_1   0.747974 0.499127 0.500034 -0.020531
C7    C     C_R   0.543004 0.952342 0.594146 0.228941
C8    C     C_R   0.456996 0.047658 0.405854 0.228941
C9    C     C_R   0.459284 0.951177 0.403598 0.223942
C10   C     C_R   0.540716 0.048823 0.596401 0.223942
C11   C     C_R   0.502344 0.902876 0.497746 -0.275873
C12   C     C_R   0.497656 0.097124 0.502254 -0.275873
C13   C     C_3   0.430889 0.540627 0.039717 0.261727
C14   C     C_3   0.569111 0.459372 0.960283 0.261727
C15   C     C_3   0.499310 0.584983 0.962095 0.275420
C16   C     C_3   0.500690 0.415017 0.037905 0.275420
C17   C     C_3   0.431820 0.455866 0.953884 -0.321802
C18   C     C_3   0.568180 0.544134 0.046116 -0.321802
H1    H     H_    0.376409 0.419866 0.915950 0.229722
H2    H     H_    0.623591 0.580134 0.084050 0.229722
C19   C     C_3   0.501781 0.501207 0.876315 -0.273307
C20   C     C_3   0.498219 0.498793 0.123685 -0.273307
C21   C     C_1   0.500884 0.802545 0.499256 0.427735
C22   C     C_1   0.499116 0.197455 0.500744 0.427735
N1    N     N_1   0.500000 0.276710 0.500000 -0.126125
N2    N     N_1   0.500000 0.723290 0.500000 -0.126125
C23   C     C_1   0.822913 0.497602 0.499826 0.183728
C24   C     C_1   0.177087 0.502398 0.500174 0.183728
C25   C     C_R   0.955875 0.507786 0.385984 0.223155
C26   C     C_R   0.044125 0.492214 0.614016 0.223155
C27   C     C_R   0.043707 0.512444 0.386725 0.218879
C28   C     C_R   0.956293 0.487556 0.613275 0.218879
C29   C     C_R   0.912669 0.495425 0.499294 -0.186504
C30   C     C_R   0.087331 0.504575 0.500706 -0.186504
N3    N     N_R   0.585033 0.097638 0.692529 0.173799
O9    O     O_R   0.548727 0.163114 0.754039 -0.260263
O10   O     O_R   0.662375 0.077541 0.717813 -0.209265
N4    N     N_R   0.414967 0.902362 0.307471 0.173799
O11   O     O_R   0.451273 0.836886 0.245961 -0.260263
O12   O     O_R   0.337625 0.922459 0.282187 -0.209265
N5    N     N_R   0.415359 0.095338 0.307142 0.180113
O13   O     O_R   0.361897 0.159225 0.333135 -0.271218
O14   O     O_R   0.430932 0.075174 0.190773 -0.184449
N6    N     N_R   0.584641 0.904662 0.692858 0.180113
O15   O     O_R   0.638103 0.840774 0.666865 -0.271218
O16   O     O_R   0.569068 0.924826 0.809226 -0.184449
N7    N     N_R   0.354045 0.584970 0.080686 0.194858
O17   O     O_R   0.299471 0.610933 0.998234 -0.202559
O18   O     O_R   0.337311 0.594326 0.199009 -0.285332
N8    N     N_R   0.645955 0.415029 0.919314 0.194858
O19   O     O_R   0.700529 0.389066 0.001766 -0.202559
O20   O     O_R   0.662689 0.405674 0.800991 -0.285332
N9    N     N_R   0.500546 0.678431 0.919959 0.171717
O21   O     O_R   0.439534 0.733316 0.947338 -0.208261
O22   O     O_R   0.565658 0.708837 0.861441 -0.247400
N10   N     N_R   0.499454 0.321569 0.080041 0.171717
O23   O     O_R   0.560466 0.266684 0.052662 -0.208261
O24   O     O_R   0.434342 0.291163 0.138558 -0.247400
N11   N     N_R   0.088596 0.521821 0.271150 0.177787
O25   O     O_R   0.146112 0.583210 0.260145 -0.232991
O26   O     O_R   0.071790 0.469246 0.176202 -0.192634
N12   N     N_R   0.911404 0.478179 0.728850 0.177787
O27   O     O_R   0.853888 0.416790 0.739854 -0.232991
O28   O     O_R   0.928210 0.530754 0.823798 -0.192634
N13   N     N_R   0.910586 0.519181 0.270874 0.173942
O29   O     O_R   0.852275 0.462399 0.238671 -0.268978
O30   O     O_R   0.927454 0.586592 0.197830 -0.209867
N14   N     N_R   0.089414 0.480818 0.729126 0.173942
O31   O     O_R   0.147725 0.537600 0.761329 -0.268978
O32   O     O_R   0.072546 0.413408 0.802170 -0.209867

loop_
_geom_bond_atom_site_label_1
_geom_bond_atom_site_label_2
_geom_bond_distance
_ccdc_geom_bond_type
C15   C19   1.534997 S    
N10   O24   1.300089 A    
N9    O22   1.300089 A    
C16   C20   1.534997 S    
C17   H1    1.110330 S    
O3    C2    1.280085 A    
C21   N2    1.172163 T    
C25   C27   1.408103 A    
N3    O9    1.301392 A    
C15   C18   1.546600 S    
O5    C3    1.274095 A    
C16   C17   1.546600 S    
O1    C1    1.279106 A    
C9    C11   1.417112 A    
C14   C16   1.528422 S    
C8    C9    1.426990 A    
N14   O32   1.301399 A    
N7    O18   1.299883 A    
C11   C21   1.484065 S    
C7    C10   1.426990 A    
N8    O20   1.299883 A    
C22   N1    1.172163 T    
C15   N9    1.457670 S    
N11   O26   1.301417 A    
O7    Cu1   1.971493 S    
C9    N4    1.438298 S    
C25   N13   1.439036 S    
C10   N3    1.438298 S    
O3    Cu1   1.926629 S    
C14   N8    1.458305 S    
C6    C23   1.199927 T    
C26   C28   1.408103 A    
N10   O23   1.300024 A    
Cu1   Cu2   2.638560 S    
O2    C2    1.279106 A    
C8    N5    1.437208 S    
N3    O10   1.301237 A    
C12   C22   1.484065 S    
N6    O16   1.301299 A    
C17   C19   1.552284 S    
N5    O13   1.301219 A    
C16   N10   1.457670 S    
C18   C20   1.552284 S    
Cu1   N2    1.982472 S    
N12   O28   1.301417 A    
O8    Cu2   1.971494 S    
Cu2   N1    1.982472 S    
N14   O31   1.301364 A    
N12   O27   1.301172 A    
C25   C29   1.409797 A    
C7    C11   1.417307 A    
N8    O19   1.300355 A    
N5    O14   1.301299 A    
C23   C29   1.437282 S    
N13   O29   1.301364 A    
C5    C24   1.199927 T    
C24   C30   1.437282 S    
C26   C30   1.409797 A    
O6    C4    1.274095 A    
C28   N12   1.438632 S    
N13   O30   1.301399 A    
N4    O11   1.301392 A    
C10   C12   1.417112 A    
C3    C20   1.449707 S    
C13   C17   1.546628 S    
C4    C19   1.449707 S    
C27   C30   1.409796 A    
C26   N14   1.439036 S    
O1    Cu1   1.927845 S    
C28   C29   1.409796 A    
C27   N11   1.438632 S    
C13   N7    1.458305 S    
N6    O15   1.301219 A    
O6    Cu2   1.967642 S    
C8    C12   1.417307 A    
C14   C18   1.546628 S    
O4    C1    1.280085 A    
C13   C20   1.534704 S    
C18   H2    1.110330 S    
C14   C19   1.534704 S    
N7    O17   1.300355 A    
N4    O12   1.301237 A    
C13   C15   1.528422 S    
O4    Cu2   1.926631 S    
N11   O25   1.301172 A    
O2    Cu2   1.927843 S    
O7    C4    1.272081 A    
C1    C5    1.423808 S    
O8    C3    1.272081 A    
C2    C6    1.423808 S    
N9    O21   1.300024 A    
O5    Cu1   1.967643 S    
C7    N6    1.437208 S    
