data_mof_unit_pretest_1758.cif
_audit_creation_date              2012-12-10T20:47:26-0500
_audit_creation_method            fapswitch 2.2
_symmetry_space_group_name_H-M    P1
_symmetry_Int_Tables_number       1
_space_group_crystal_system       triclinic
_cell_length_a                    17.900026
_cell_length_b                    19.217576
_cell_length_c                    19.235868
_cell_angle_alpha                 94.914631
_cell_angle_beta                  99.258354
_cell_angle_gamma                 103.335697
_cell_volume                      6302.59280206

loop_
_atom_site_label
_atom_site_type_symbol
_atom_type_description
_atom_site_fract_x
_atom_site_fract_y
_atom_site_fract_z
_atom_type_partial_charge
C1    C     C_R   0.492183 0.506764 0.688201 0.805114
C2    C     C_R   0.922654 0.452482 0.422550 -0.219125
C3    C     C_R   0.963097 0.416910 0.382088 -0.210879
C4    C     C_R   0.508516 0.494890 0.312370 0.822269
C5    C     C_R   0.043129 0.425893 0.402612 0.135777
C6    C     C_R   0.084461 0.472566 0.464977 0.100373
C7    C     C_R   0.082305 0.389098 0.360339 -0.261094
C8    C     C_R   0.162793 0.397366 0.379049 0.204780
C9    C     C_R   0.165235 0.478714 0.483952 -0.312142
C10   C     C_R   0.509355 0.491768 0.236163 -0.040789
C11   C     C_R   0.506394 0.552258 0.200193 0.128828
C12   C     C_R   0.840712 0.610069 0.612436 -0.185145
C13   C     C_R   0.501704 0.545841 0.126812 -0.182484
C14   C     C_R   0.500175 0.479512 0.088131 0.284568
C15   C     C_R   0.504271 0.420169 0.124453 -0.190065
C16   C     C_R   0.491549 0.309037 0.490546 0.781998
C17   C     C_R   0.509460 0.426267 0.197931 -0.249598
C18   C     C_R   0.460355 0.454815 0.867988 -0.163845
C19   C     C_R   0.456959 0.450612 0.794679 -0.226804
C20   C     C_R   0.497627 0.520250 0.911994 0.319221
C21   C     C_R   0.491219 0.511243 0.764609 -0.007485
C22   C     C_R   0.526886 0.576550 0.808502 -0.190318
C23   C     C_R   0.837559 0.519732 0.515612 -0.255221
C24   C     C_R   0.529289 0.580980 0.881414 -0.187420
C25   C     C_R   0.506890 0.767625 0.516430 -0.057973
C26   C     C_R   0.496561 0.799678 0.453976 -0.239442
C27   C     C_R   0.491996 0.871091 0.456755 -0.156990
C28   C     C_R   0.507285 0.691067 0.510225 0.836519
C29   C     C_R   0.497227 0.912055 0.522594 0.281112
C30   C     C_R   0.506994 0.879971 0.584835 -0.210631
C31   C     C_R   0.512062 0.808338 0.582585 0.139058
C32   C     C_R   0.457881 0.116592 0.530858 -0.163662
C33   C     C_R   0.456239 0.189091 0.534135 -0.225533
C34   C     C_R   0.919673 0.534936 0.528215 0.088480
C35   C     C_R   0.491247 0.085740 0.478111 0.322056
C36   C     C_R   0.488478 0.231694 0.485447 0.005154
C37   C     C_R   0.519979 0.200268 0.432113 -0.210480
C38   C     C_R   0.520520 0.127773 0.428202 -0.193735
C39   C     C_R   0.288510 0.459366 0.459082 0.838245
C40   C     C_R   0.712332 0.540004 0.540110 0.806606
C41   C     C_R   0.798121 0.557174 0.556606 -0.027483
C42   C     C_R   0.203887 0.442872 0.441142 -0.023754
C43   C     C_R   0.921894 0.624472 0.627602 -0.201461
C44   C     C_3   0.236135 0.306325 0.362687 -0.766257
C45   C     C_R   0.961558 0.587010 0.586438 0.172022
C46   C     C_R   0.961045 0.499069 0.485510 0.066238
C47   C     C_R   0.043722 0.511518 0.505557 0.083200
C48   C     C_R   0.082967 0.563673 0.564408 -0.214341
C49   C     C_R   0.042561 0.601090 0.603356 -0.230931
H1    H     H_    0.075109 0.641029 0.647625 0.152319
H2    H     H_    0.431349 0.212138 0.575518 0.164579
H3    H     H_    0.200554 0.511656 0.531262 0.136920
H4    H     H_    0.433265 0.084945 0.569391 0.153308
H5    H     H_    0.510050 0.910899 0.635459 0.167357
H6    H     H_    0.544372 0.231777 0.393353 0.164594
H7    H     H_    0.483521 0.893687 0.407281 0.164762
H8    H     H_    0.545399 0.104498 0.386931 0.145940
H9    H     H_    0.491859 0.769234 0.402688 0.194641
H10   H     H_    0.931265 0.382090 0.334017 0.149154
H11   H     H_    0.953746 0.664824 0.671743 0.143652
H12   H     H_    0.050310 0.354079 0.312435 0.139904
H13   H     H_    0.811321 0.639677 0.644876 0.170941
H14   H     H_    0.802439 0.477670 0.475135 0.163216
H15   H     H_    0.145458 0.578516 0.581126 0.151928
H16   H     H_    0.861345 0.443695 0.401359 0.149544
H17   H     H_    0.174529 0.348287 0.281594 0.228452
H18   H     H_    0.206239 0.252992 0.331529 0.232405
H19   H     H_    0.230891 0.302601 0.419159 0.250051
H20   H     H_    0.298971 0.318464 0.359024 0.232228
H21   H     H_    0.428953 0.399754 0.761774 0.165424
H22   H     H_    0.433914 0.407188 0.889999 0.152304
H23   H     H_    0.503204 0.368914 0.095590 0.149978
H24   H     H_    0.511452 0.379210 0.224744 0.163108
H25   H     H_    0.553065 0.624312 0.786492 0.189691
H26   H     H_    0.498958 0.592909 0.100325 0.175620
H27   H     H_    0.557200 0.631739 0.914542 0.153770
I1    I     I_    0.513194 0.656275 0.252523 -0.375019
I2    I     I_    0.520455 0.765189 0.680917 -0.381484
N1    N     N_2   0.494038 0.470304 0.013116 -0.192369
N2    N     N_2   0.503630 0.528061 0.986762 -0.195266
N3    N     N_2   0.491714 0.984865 0.528506 -0.189682
N4    N     N_2   0.496091 0.012937 0.472740 -0.197799
N5    N     N_2   0.202232 0.361862 0.334005 -0.315078
O1    O     O_3   0.500000 0.500000 0.500000 -0.487893
O2    O     O_R   0.321500 0.427480 0.506110 -0.646968
O3    O     O_R   0.674970 0.575130 0.575140 -0.644449
O4    O     O_R   0.328550 0.507430 0.428780 -0.627290
O5    O     O_R   0.674980 0.489960 0.489960 -0.644039
O6    O     O_R   0.540930 0.349770 0.460420 -0.647100
O7    O     O_R   0.550820 0.667300 0.556650 -0.614329
O8    O     O_R   0.445640 0.455160 0.644460 -0.644015
O9    O     O_R   0.462610 0.527770 0.338470 -0.610350
O10   O     O_R   0.540910 0.554790 0.665460 -0.634703
O11   O     O_R   0.550840 0.462270 0.351610 -0.647660
O12   O     O_R   0.445650 0.335310 0.524600 -0.645803
O13   O     O_R   0.462600 0.647620 0.458330 -0.630023
Zn1   Zn    Zn3+2 0.565550 0.451340 0.451340 0.967223
Zn2   Zn    Zn3+2 0.429430 0.430690 0.543050 0.966507
Zn3   Zn    Zn3+2 0.439490 0.544930 0.432570 1.012983
Zn4   Zn    Zn3+2 0.565540 0.573040 0.573050 1.002287

loop_
_geom_bond_atom_site_label_1
_geom_bond_atom_site_label_2
_ccdc_geom_bond_type
C25   C31   A    
C1    C21   S    
C27   C29   A    
C8    N5    S    
C39   O4    A    
C2    H16   S    
C6    C9    A    
N3    N4    D    
O12   Zn2   S    
C7    C8    A    
C2    C46   A    
C25   C28   S    
C15   H23   S    
C30   H5    S    
C9    C42   A    
C37   C38   A    
O1    Zn1   S    
C36   C37   A    
C19   C21   A    
C8    C42   A    
C12   C43   A    
C30   C31   A    
C48   H15   S    
C10   C17   A    
O13   Zn3   S    
C33   C36   A    
C18   C19   A    
C40   O3    A    
C7    H12   S    
O2    Zn2   S    
C11   I1    S    
H17   N5    S    
C13   H26   S    
C34   C46   A    
C29   C30   A    
O3    Zn4   S    
O5    Zn1   S    
C44   N5    S    
C23   H14   S    
C16   O6    A    
C1    O8    A    
C13   C14   A    
C17   H24   S    
C9    H3    S    
O7    Zn4   S    
C35   N4    S    
C44   H18   S    
C39   C42   S    
O4    Zn3   S    
C6    C47   A    
C20   N2    S    
O1    Zn4   S    
C32   C35   A    
C20   C24   A    
C35   C38   A    
C5    C7    A    
C27   H7    S    
C24   H27   S    
O11   Zn1   S    
C25   C26   A    
O6    Zn1   S    
C29   N3    S    
C12   C41   A    
C38   H8    S    
C12   H13   S    
C47   C48   A    
C45   C49   A    
C23   C34   A    
C26   C27   A    
C44   H20   S    
C34   C45   A    
C14   N1    S    
C26   H9    S    
O10   Zn4   S    
C43   H11   S    
C4    O11   A    
C48   C49   A    
C22   C24   A    
C44   H19   S    
C22   H25   S    
C4    C10   S    
C32   H4    S    
C31   I2    S    
C18   H22   S    
C15   C17   A    
C46   C47   A    
C40   C41   S    
C16   O12   A    
O1    Zn3   S    
C3    C5    A    
C33   H2    S    
C23   C41   A    
C28   O13   A    
O1    Zn2   S    
C32   C33   A    
C40   O5    A    
C2    C3    A    
C43   C45   A    
C16   C36   S    
C11   C13   A    
C5    C6    A    
C18   C20   A    
O8    Zn2   S    
C10   C11   A    
N1    N2    D    
C37   H6    S    
C1    O10   A    
C49   H1    S    
C39   O2    A    
C14   C15   A    
C19   H21   S    
C28   O7    A    
C21   C22   A    
O9    Zn3   S    
C4    O9    A    
C3    H10   S    
