data_mof_unit_pretest_834.cif
_audit_creation_date              2013-03-05T16:08:54-0500
_audit_creation_method            fapswitch 2.2
_symmetry_space_group_name_H-M    P1
_symmetry_Int_Tables_number       1
_space_group_crystal_system       triclinic
_cell_length_a                    17.370416
_cell_length_b                    6.885489
_cell_length_c                    14.205524
_cell_angle_alpha                 90.000369
_cell_angle_beta                  109.786858
_cell_angle_gamma                 89.999916
_cell_volume                      1598.72110746

loop_
_atom_site_label
_atom_site_type_symbol
_atom_site_description
_atom_site_fract_x
_atom_site_fract_y
_atom_site_fract_z
_atom_type_partial_charge
O1    O     O_R   0.314130 0.635770 0.168990 -0.576467
O2    O     O_R   0.685870 0.364230 0.831010 -0.576485
O3    O     O_R   0.185870 0.135770 0.331010 -0.576455
O4    O     O_R   0.814130 0.864230 0.668990 -0.576357
O5    O     O_R   0.146800 0.302460 0.139760 -0.595536
O6    O     O_R   0.853200 0.697540 0.860240 -0.595536
O7    O     O_R   0.353200 0.802460 0.360240 -0.595538
O8    O     O_R   0.646800 0.197540 0.639760 -0.595526
C1    C     C_R   0.113966 0.475826 0.112723 0.957064
C2    C     C_R   0.886034 0.524173 0.887277 0.957040
C3    C     C_R   0.386034 0.975827 0.387277 0.957049
C4    C     C_R   0.613966 0.024173 0.612724 0.957068
O9    O     O_R   0.311100 0.305780 0.157130 -0.566851
O10   O     O_R   0.688900 0.694220 0.842870 -0.566868
O11   O     O_R   0.188900 0.805780 0.342870 -0.566851
O12   O     O_R   0.811100 0.194220 0.657130 -0.567037
O13   O     O_R   0.351340 0.139640 0.348510 -0.589671
O14   O     O_R   0.648660 0.860360 0.651490 -0.589642
O15   O     O_R   0.148660 0.639640 0.151490 -0.589667
O16   O     O_R   0.851340 0.360360 0.848510 -0.589665
C5    C     C_R   0.329842 0.477789 0.131810 0.963874
C6    C     C_R   0.670149 0.522213 0.868181 0.963939
C7    C     C_R   0.170163 0.977789 0.368196 0.963866
C8    C     C_R   0.829834 0.022206 0.631798 0.963906
C9    C     C_1   0.533523 0.008909 0.533004 -0.256116
C10   C     C_1   0.466476 0.991091 0.466998 -0.256142
C11   C     C_1   0.966476 0.508909 0.966997 -0.256091
C12   C     C_1   0.033523 0.491090 0.033003 -0.256162
O17   O     O_3   0.263010 0.470920 0.312770 -0.234413
O18   O     O_3   0.736990 0.529080 0.687230 -0.234323
O19   O     O_3   0.236990 0.970920 0.187230 -0.234408
O20   O     O_3   0.763010 0.029080 0.812770 -0.234399
V1    V     V_3+5 0.247590 0.194450 0.238360 1.243197
V2    V     V_3+5 0.752410 0.805550 0.761640 1.243234
V3    V     V_3+5 0.252410 0.694450 0.261640 1.243197
V4    V     V_3+5 0.747590 0.305550 0.738360 1.243152
C13   C     C_R   0.120156 0.001676 0.434492 -0.285821
C14   C     C_R   0.879867 0.998287 0.565532 -0.285772
C15   C     C_R   0.379856 0.501693 0.065525 -0.285845
C16   C     C_R   0.620123 0.498309 0.934453 -0.285799
C17   C     C_R   0.918184 0.820561 0.437884 -0.149796
C18   C     C_R   0.081866 0.179353 0.562166 -0.149743
C19   C     C_R   0.581820 0.320569 0.062098 -0.149759
C20   C     C_R   0.418150 0.679419 0.937868 -0.149770
C21   C     C_R   0.865076 0.846794 0.493363 0.338569
C22   C     C_R   0.134911 0.153264 0.506597 0.338581
C23   C     C_R   0.634887 0.346736 0.006567 0.338664
C24   C     C_R   0.365098 0.653287 0.993422 0.338611
C25   C     C_R   0.949804 0.111939 0.584050 -0.266885
C26   C     C_R   0.050274 0.887877 0.416064 -0.266439
C27   C     C_R   0.550216 0.612043 0.915989 -0.266526
C28   C     C_R   0.449750 0.387926 0.083964 -0.266493
C29   C     C_R   0.008094 0.072990 0.537037 0.066430
C30   C     C_R   0.991977 0.926845 0.463064 0.066056
C31   C     C_R   0.491925 0.573069 0.962997 0.066213
C32   C     C_R   0.508041 0.426902 0.036958 0.066171
H1    H     H_    0.040089 0.774171 0.360576 0.163822
H2    H     H_    0.960012 0.225580 0.639576 0.163684
H3    H     H_    0.459940 0.274219 0.139452 0.163822
H4    H     H_    0.540020 0.725734 0.860492 0.163789
N1    N     N_R   0.200705 0.287879 0.520508 0.217927
O21   O     O_R   0.189334 0.433777 0.459246 -0.392602
O22   O     O_R   0.256358 0.303726 0.608353 -0.450499
N2    N     N_R   0.799091 0.712593 0.479172 0.217683
O23   O     O_R   0.810079 0.566842 0.540485 -0.392427
O24   O     O_R   0.743673 0.696813 0.391143 -0.450322
N3    N     N_R   0.299290 0.787866 0.979498 0.217920
O25   O     O_R   0.310646 0.933784 0.040747 -0.392620
O26   O     O_R   0.243640 0.803673 0.891649 -0.450510
N4    N     N_R   0.700729 0.212239 0.020542 0.217922
O27   O     O_R   0.689425 0.066274 0.959329 -0.392583
O28   O     O_R   0.756370 0.196555 0.108405 -0.450334
C33   C     C_R   0.897777 0.681277 0.353454 0.181902
C34   C     C_R   0.872885 0.752558 0.254988 -0.106977
C35   C     C_R   0.872877 0.630626 0.176363 -0.128943
C36   C     C_R   0.897974 0.437618 0.195776 -0.033004
C37   C     C_R   0.918529 0.363259 0.292734 -0.078548
C38   C     C_R   0.918023 0.484487 0.371441 -0.108049
H5    H     H_    0.857670 0.904551 0.240072 0.160940
H6    H     H_    0.855805 0.687164 0.100951 0.136652
H7    H     H_    0.900801 0.345080 0.135447 0.138479
H8    H     H_    0.936842 0.213123 0.307160 0.118525
H9    H     H_    0.937045 0.428040 0.446755 0.132674
C39   C     C_R   0.102307 0.318596 0.646613 0.181658
C40   C     C_R   0.081998 0.515365 0.628674 -0.107988
C41   C     C_R   0.081530 0.636508 0.707428 -0.078792
C42   C     C_R   0.102183 0.562082 0.804383 -0.033147
C43   C     C_R   0.127338 0.369102 0.823740 -0.128937
C44   C     C_R   0.127291 0.247256 0.745069 -0.107208
H10   H     H_    0.062896 0.571851 0.553367 0.132816
H11   H     H_    0.063171 0.786624 0.693042 0.118614
H12   H     H_    0.099381 0.654543 0.864751 0.138532
H13   H     H_    0.144481 0.312513 0.899148 0.136761
H14   H     H_    0.142548 0.095273 0.759945 0.161116
C45   C     C_R   0.602256 0.181318 0.146541 0.181670
C46   C     C_R   0.627197 0.252654 0.244998 -0.107210
C47   C     C_R   0.627204 0.130805 0.323651 -0.128958
C48   C     C_R   0.602052 0.937827 0.304277 -0.032869
C49   C     C_R   0.581444 0.863404 0.207325 -0.078358
C50   C     C_R   0.581953 0.984549 0.128590 -0.107961
H15   H     H_    0.642445 0.404638 0.259884 0.161118
H16   H     H_    0.644317 0.187389 0.399058 0.136687
H17   H     H_    0.599239 0.845347 0.364632 0.138346
H18   H     H_    0.563093 0.713286 0.192928 0.118510
H19   H     H_    0.562885 0.928064 0.053283 0.132788
C51   C     C_R   0.397705 0.818662 0.853421 0.181627
C52   C     C_R   0.417993 0.015441 0.871362 -0.107894
C53   C     C_R   0.418461 0.136595 0.792613 -0.078695
C54   C     C_R   0.397827 0.062170 0.695659 -0.033147
C55   C     C_R   0.372692 0.869178 0.676298 -0.128954
C56   C     C_R   0.372739 0.747322 0.754965 -0.107220
H20   H     H_    0.437077 0.071930 0.946668 0.132808
H21   H     H_    0.436806 0.286720 0.807002 0.118571
H22   H     H_    0.400631 0.154641 0.635296 0.138535
H23   H     H_    0.355563 0.812590 0.600890 0.136746
H24   H     H_    0.357497 0.595333 0.740085 0.161082

loop_
_geom_bond_atom_site_label_1
_geom_bond_atom_site_label_2
_geom_bond_distance
_ccdc_geom_bond_type
C2    C11   1.474675 S    
C16   C23   1.423572 A    
C31   C32   1.412807 A    
O1    C5    1.278392 A    
C52   H20   1.079576 S    
O3    C7    1.278409 A    
C45   C46   1.405299 A    
C42   C43   1.396711 A    
C47   C48   1.396709 A    
C14   C25   1.393210 A    
C37   C38   1.397691 A    
O7    C3    1.322665 A    
C50   H19   1.079578 S    
C26   C30   1.414551 A    
O10   V2    1.999516 S    
O20   V4    2.149700 S    
C41   H11   1.080611 S    
C18   C29   1.412870 A    
C18   C22   1.413098 A    
O4    C8    1.278399 A    
C51   C52   1.401479 A    
O3    V1    2.000056 S    
C48   H17   1.082290 S    
O17   V1    2.149688 S    
C53   C54   1.397767 A    
O8    V4    1.979861 S    
C44   H14   1.082627 S    
N1    O22   1.298810 A    
C55   C56   1.397212 A    
C14   C21   1.423648 A    
C38   H9    1.079602 S    
C1    O15   1.309195 A    
C2    O16   1.309194 A    
O5    V1    1.979866 S    
O2    C6    1.278396 A    
C19   C45   1.481887 S    
C52   C53   1.397690 A    
O19   V1    1.685161 S    
N4    O27   1.299687 A    
C35   H6    1.082603 S    
C47   H16   1.082598 S    
O11   C7    1.310476 A    
C49   H18   1.080606 S    
O12   C8    1.310518 A    
C42   H12   1.082281 S    
O13   V1    1.982290 S    
O11   V3    1.999509 S    
C51   C56   1.405296 A    
C33   C34   1.405313 A    
O4    V2    2.000056 S    
C34   C35   1.397215 A    
O18   V2    2.149689 S    
C22   N1    1.432271 S    
N3    O25   1.299681 A    
C18   C39   1.481876 S    
C36   C37   1.397769 A    
C41   C42   1.397766 A    
C3    C10   1.474674 S    
C9    C10   1.229339 T    
C7    C13   1.490761 S    
C33   C38   1.401484 A    
C25   H2    1.082205 S    
O6    V2    1.979865 S    
N3    O26   1.298809 A    
N2    O24   1.298924 A    
C53   H21   1.080609 S    
C35   C36   1.396717 A    
C23   N4    1.432263 S    
O9    V1    1.999516 S    
C28   H3    1.082200 S    
C8    C14   1.490809 S    
C49   C50   1.397692 A    
C5    C15   1.490754 S    
O8    C4    1.322665 A    
C6    C16   1.490755 S    
C46   C47   1.397215 A    
O9    C5    1.310486 A    
C39   C40   1.401479 A    
O14   V2    1.982289 S    
C40   C41   1.397691 A    
C56   H24   1.082626 S    
C54   H22   1.082280 S    
C34   H5    1.082630 S    
O19   V3    2.149700 S    
C39   C44   1.405292 A    
O1    V3    2.000051 S    
O2    V4    2.000052 S    
C43   H13   1.082599 S    
C3    O13   1.309197 A    
C45   C50   1.401477 A    
C26   H1    1.082199 S    
O7    V3    1.979861 S    
O5    C1    1.322664 A    
C36   H7    1.082285 S    
O6    C2    1.322666 A    
C40   H10   1.079579 S    
C29   C30   1.412798 A    
C20   C51   1.481883 S    
C16   C27   1.393190 A    
O17   V3    1.685169 S    
C21   N2    1.432406 S    
O18   V4    1.685168 S    
C4    C9    1.474674 S    
N2    O23   1.299864 A    
O10   C6    1.310479 A    
O15   V3    1.982285 S    
C54   C55   1.396710 A    
O12   V4    1.999507 S    
C13   C26   1.393155 A    
C20   C31   1.412856 A    
C37   H8    1.080599 S    
C25   C29   1.414554 A    
C15   C28   1.393167 A    
C27   C31   1.414554 A    
C24   N3    1.432267 S    
N1    O21   1.299683 A    
C17   C30   1.412849 A    
C17   C33   1.481910 S    
O16   V4    1.982286 S    
C28   C32   1.414549 A    
C19   C32   1.412848 A    
C43   C44   1.397212 A    
C48   C49   1.397766 A    
C4    O14   1.309198 A    
C11   C12   1.229340 T    
C17   C21   1.413142 A    
N4    O28   1.298812 A    
C27   H4    1.082203 S    
C13   C22   1.423570 A    
C46   H15   1.082626 S    
C19   C23   1.413075 A    
C55   H23   1.082600 S    
C20   C24   1.413084 A    
C1    C12   1.474675 S    
O20   V2    1.685159 S    
C15   C24   1.423578 A    
