data_mof_unit_pretest_452.cif
_audit_creation_date              2012-12-10T17:30:17-0500
_audit_creation_method            fapswitch 2.2
_symmetry_space_group_name_H-M    P1
_symmetry_Int_Tables_number       1
_space_group_crystal_system       triclinic
_cell_length_a                    11.984337
_cell_length_b                    12.848429
_cell_length_c                    14.993038
_cell_angle_alpha                 89.423593
_cell_angle_beta                  85.799132
_cell_angle_gamma                 95.182872
_cell_volume                      2292.68726246

loop_
_atom_site_label
_atom_site_type_symbol
_atom_type_description
_atom_site_fract_x
_atom_site_fract_y
_atom_site_fract_z
_atom_type_partial_charge
C1    C     C_R   0.524585 0.700777 0.500484 0.889126
C2    C     C_R   0.367697 0.133763 0.552021 -0.010049
C3    C     C_R   0.466825 0.868324 0.553591 0.072966
C4    C     C_R   0.536733 0.132621 0.451112 0.029259
C5    C     C_R   0.458455 0.973288 0.530562 0.044908
C6    C     C_R   0.544741 0.026825 0.471831 0.008527
C7    C     C_R   0.953506 0.408526 0.411505 0.007738
C8    C     C_R   0.046885 0.593699 0.586902 0.008789
C9    C     C_R   0.837031 0.417498 0.420778 -0.024594
C10   C     C_R   0.163345 0.584348 0.577895 -0.007479
C11   C     C_R   0.858489 0.538543 0.537887 -0.057481
C12   C     C_R   0.475783 0.299224 0.500093 0.920742
C13   C     C_R   0.141436 0.461275 0.462322 -0.046196
C14   C     C_R   0.976146 0.533907 0.531478 0.031391
C15   C     C_R   0.024022 0.467211 0.467781 0.033354
C16   C     C_R   0.499747 0.499158 0.672661 0.918981
C17   C     C_R   0.499925 0.499229 0.327217 0.881180
C18   C     C_R   0.442819 0.413335 0.191031 0.019352
C19   C     C_R   0.558037 0.583666 0.807683 0.012914
C20   C     C_R   0.499780 0.498128 0.231808 -0.150393
C21   C     C_R   0.499776 0.499578 0.767831 -0.111736
C22   C     C_R   0.556635 0.581997 0.182332 0.020286
C23   C     C_R   0.616492 0.668110 0.947186 0.078383
C24   C     C_R   0.442879 0.415767 0.817110 -0.003216
C25   C     C_R   0.556794 0.582067 0.089641 0.112292
C26   C     C_R   0.443231 0.415776 0.909755 0.120192
C27   C     C_R   0.499673 0.498136 0.046558 -0.052625
C28   C     C_R   0.500852 0.499906 0.952627 -0.035349
C29   C     C_R   0.441708 0.412636 0.097283 0.118274
C30   C     C_R   0.559506 0.585314 0.901771 0.090089
C31   C     C_R   0.613993 0.665279 0.039723 -0.233224
C32   C     C_R   0.386370 0.332405 0.959885 -0.262143
C33   C     C_R   0.384756 0.329688 0.052406 0.098828
C34   C     C_R   0.457165 0.186581 0.499589 -0.096741
C35   C     C_R   0.545245 0.813221 0.504160 -0.176857
C36   C     C_R   0.637403 0.973789 0.438427 0.116198
C37   C     C_R   0.365250 0.025527 0.564020 0.080185
C38   C     C_R   0.636423 0.866786 0.453190 0.010145
H1    H     H_    0.180819 0.410349 0.415018 0.148235
H2    H     H_    0.063478 0.695119 0.690916 0.185332
H3    H     H_    0.679834 0.640439 0.258271 0.202328
H4    H     H_    0.557373 0.698895 0.272883 0.180119
H5    H     H_    0.444205 0.297896 0.727401 0.182389
H6    H     H_    0.321731 0.355832 0.738937 0.215718
H7    H     H_    0.658351 0.729877 0.072170 0.173057
H8    H     H_    0.341797 0.267770 0.927649 0.173056
H9    H     H_    0.643878 0.824070 0.923872 0.183868
H10   H     H_    0.761329 0.759624 0.918083 0.188367
H11   H     H_    0.240373 0.238119 0.083282 0.181393
H12   H     H_    0.818863 0.588389 0.586032 0.154974
H13   H     H_    0.357945 0.173927 0.076957 0.183178
H14   H     H_    0.601238 0.143795 0.320762 0.198017
H15   H     H_    0.686754 0.203250 0.397045 0.222095
H16   H     H_    0.428398 0.748576 0.647734 0.180625
H17   H     H_    0.416357 0.866731 0.685146 0.175570
H18   H     H_    0.203949 0.163524 0.570243 0.190416
H19   H     H_    0.276937 0.177069 0.663085 0.177363
H20   H     H_    0.702712 0.758297 0.372106 0.200868
H21   H     H_    0.768735 0.781170 0.468311 0.209114
H22   H     H_    0.805024 0.016980 0.424998 0.204404
H23   H     H_    0.447752 0.297562 0.284148 0.186967
H24   H     H_    0.744482 0.995151 0.327062 0.199811
H25   H     H_    0.254398 0.996311 0.672850 0.173479
H26   H     H_    0.197709 0.980423 0.572494 0.183758
H27   H     H_    0.219056 0.629183 0.619767 0.145646
H28   H     H_    0.781762 0.374709 0.377419 0.133827
H29   H     H_    0.324033 0.353636 0.286624 0.201685
H30   H     H_    0.699245 0.671500 0.755950 0.221961
H31   H     H_    0.578246 0.736245 0.764522 0.195743
H32   H     H_    0.044515 0.388146 0.295624 0.183300
H33   H     H_    0.935457 0.297534 0.314918 0.179275
H34   H     H_    0.973225 0.725201 0.616540 0.177636
N1    N     N_R   0.207800 0.519350 0.516680 -0.118010
N2    N     N_3   0.324052 0.242000 0.099449 -0.428657
N3    N     N_3   0.604467 0.187403 0.379164 -0.463952
N4    N     N_3   0.400391 0.819996 0.629959 -0.418993
N5    N     N_3   0.280899 0.190618 0.594056 -0.438845
N6    N     N_3   0.730387 0.815288 0.416325 -0.468831
N7    N     N_3   0.734060 0.027618 0.390488 -0.485068
N8    N     N_3   0.267474 0.968538 0.608001 -0.440391
N9    N     N_R   0.792200 0.480650 0.483320 -0.116821
N10   N     N_3   0.388935 0.327254 0.244926 -0.424291
N11   N     N_3   0.612602 0.665926 0.749890 -0.466306
N12   N     N_3   0.999767 0.340739 0.345610 -0.472163
N13   N     N_3   0.000856 0.662905 0.651704 -0.472667
N14   N     N_3   0.613840 0.668141 0.225935 -0.481208
N15   N     N_3   0.386672 0.329065 0.773224 -0.483097
N16   N     N_3   0.677910 0.756095 0.901284 -0.492318
O1    O     O_R   0.421700 0.658830 0.504450 -0.600803
O2    O     O_R   0.578300 0.341170 0.495550 -0.613638
O3    O     O_R   0.609310 0.646410 0.493750 -0.636431
O4    O     O_R   0.390690 0.353590 0.506250 -0.606303
O5    O     O_R   0.406180 0.506230 0.637500 -0.639394
O6    O     O_R   0.593820 0.493770 0.362500 -0.629107
O7    O     O_R   0.593800 0.493820 0.626800 -0.606367
O8    O     O_R   0.406200 0.506180 0.373200 -0.627727
Zn1   Zn    Zn3+2 0.374730 0.508290 0.507150 0.946472
Zn2   Zn    Zn3+2 0.625270 0.491710 0.492850 0.935327

loop_
_geom_bond_atom_site_label_1
_geom_bond_atom_site_label_2
_ccdc_geom_bond_type
C25   C31   A    
H22   N7    S    
C26   C32   A    
C16   C21   S    
C5    C37   A    
C27   C29   A    
H13   N2    S    
H14   N3    S    
H34   N13   S    
O7    Zn2   S    
C11   N9    A    
N1    Zn1   S    
H3    N14   S    
C16   O5    A    
C12   O2    A    
C19   C21   A    
C24   C26   A    
H23   N10   S    
C5    C6    A    
C10   N1    A    
N9    Zn2   S    
O6    Zn2   S    
C29   C33   A    
C17   C20   S    
C8    N13   S    
C9    H28   S    
C4    N3    S    
C18   N10   S    
C22   C25   A    
C8    C14   A    
H10   N16   S    
H4    N14   S    
H6    N15   S    
H32   N12   S    
C2    C34   A    
C7    C15   A    
C7    N12   S    
C1    O3    A    
H26   N8    S    
H15   N3    S    
C19   N11   S    
H21   N6    S    
O4    Zn1   S    
H25   N8    S    
C37   N8    S    
C4    C34   A    
C23   C30   A    
H19   N5    S    
H24   N7    S    
C35   C38   A    
C4    C6    A    
C17   O8    A    
C38   N6    S    
H18   N5    S    
O1    Zn1   S    
C23   C31   A    
H2    N13   S    
H31   N11   S    
C3    C35   A    
O8    Zn1   S    
C18   C29   A    
C3    N4    S    
H16   N4    S    
H17   N4    S    
C13   N1    A    
C23   N16   S    
C13   C15   A    
C12   C34   S    
O5    Zn1   S    
C1    C35   S    
H33   N12   S    
C10   H27   S    
C7    C9    A    
C16   O7    A    
C1    O1    A    
C14   C15   A    
H30   N11   S    
C32   H8    S    
C12   O4    A    
C20   C22   A    
C3    C5    A    
C36   N7    S    
C25   C27   A    
C26   C28   A    
H5    N15   S    
H9    N16   S    
C28   C30   A    
C11   H12   S    
C32   C33   A    
C2    C37   A    
C36   C38   A    
C11   C14   A    
C6    C36   A    
C18   C20   A    
C22   N14   S    
O3    Zn2   S    
C24   N15   S    
C13   H1    S    
H20   N6    S    
C33   N2    S    
H29   N10   S    
C8    C10   A    
C31   H7    S    
C21   C24   A    
C27   C28   A    
C2    N5    S    
H11   N2    S    
C17   O6    A    
C19   C30   A    
O2    Zn2   S    
C9    N9    A    
