data_mof_unit_pretest_698.cif
_audit_creation_date              2012-12-10T19:47:22-0500
_audit_creation_method            fapswitch 2.2
_symmetry_space_group_name_H-M    P1
_symmetry_Int_Tables_number       1
_space_group_crystal_system       triclinic
_cell_length_a                    10.874389
_cell_length_b                    10.808005
_cell_length_c                    12.701558
_cell_angle_alpha                 92.662696
_cell_angle_beta                  91.840161
_cell_angle_gamma                 89.934172
_cell_volume                      1490.43898082

loop_
_atom_site_label
_atom_site_type_symbol
_atom_type_description
_atom_site_fract_x
_atom_site_fract_y
_atom_site_fract_z
_atom_type_partial_charge
C1    C     C_R   0.261837 0.500222 0.501763 0.790567
C2    C     C_R   0.738092 0.504349 0.498251 0.798704
C3    C     C_R   0.496795 0.871432 0.498169 -0.096332
C4    C     C_R   0.504968 0.128147 0.501028 -0.105900
C5    C     C_R   0.428980 0.934498 0.421125 -0.012852
C6    C     C_R   0.572011 0.064933 0.578725 0.016803
C7    C     C_R   0.183683 0.370053 0.848049 -0.142957
C8    C     C_R   0.795976 0.650568 0.159725 -0.108693
C9    C     C_R   0.155120 0.385222 0.741468 -0.307253
C10   C     C_R   0.830105 0.632604 0.264850 -0.300065
C11   C     C_R   0.121800 0.501958 0.705874 0.115388
C12   C     C_R   0.878279 0.518468 0.294766 0.097082
C13   C     C_R   0.123369 0.605632 0.777926 0.265095
C14   C     C_R   0.886750 0.419751 0.218595 0.249810
C15   C     C_R   0.153089 0.589372 0.884911 -0.314640
C16   C     C_R   0.849761 0.438005 0.113457 -0.299303
C17   C     C_R   0.181455 0.471051 0.920642 0.454309
C18   C     C_R   0.808447 0.554835 0.082949 0.443688
C19   C     C_R   0.936530 0.514804 0.593339 -0.223731
C20   C     C_R   0.063675 0.506961 0.407287 -0.206424
C21   C     C_R   0.871625 0.510668 0.496069 -0.109971
C22   C     C_R   0.128364 0.504194 0.504253 -0.109310
C23   C     C_R   0.503014 0.261912 0.500638 0.796759
C24   C     C_R   0.497038 0.737966 0.499261 0.790471
C25   C     C_R   0.936310 0.509499 0.401430 0.048790
C26   C     C_R   0.063859 0.509554 0.599022 0.043750
C27   C     C_2   0.492509 0.451604 0.031658 0.317942
C28   C     C_2   0.505553 0.548395 0.968321 0.325196
C29   C     C_1   0.514578 0.530049 0.852408 0.182162
C30   C     C_1   0.484497 0.469952 0.147565 0.187405
C31   C     C_R   0.840124 0.242150 0.705753 -0.127740
C32   C     C_R   0.137342 0.785790 0.309627 -0.126495
C33   C     C_R   0.758139 0.188955 0.630106 -0.182140
C34   C     C_R   0.225392 0.839144 0.379808 -0.193020
C35   C     C_R   0.651498 0.129074 0.660824 0.091818
C36   C     C_R   0.341844 0.870811 0.344957 0.040440
C37   C     C_R   0.626668 0.124175 0.769390 0.314060
C38   C     C_R   0.369924 0.848414 0.237632 0.347645
C39   C     C_R   0.710190 0.179027 0.844507 -0.165217
C40   C     C_R   0.280537 0.792844 0.168284 -0.135162
C41   C     C_R   0.816169 0.237753 0.812664 -0.176514
C42   C     C_R   0.164835 0.762186 0.204128 -0.213521
C43   C     C_R   0.567121 0.936660 0.576249 -0.194131
C44   C     C_R   0.434805 0.062687 0.422748 -0.227991
Cu1   Cu    Cu3+1 0.492140 0.492110 0.395880 0.983108
Cu2   Cu    Cu3+1 0.507860 0.507890 0.604120 0.985347
H1    H     H_    0.880559 0.278826 0.870869 0.133183
H2    H     H_    0.096250 0.720310 0.150059 0.144512
H3    H     H_    0.152029 0.668562 0.940342 0.124522
H4    H     H_    0.855965 0.362088 0.055267 0.132656
H5    H     H_    0.887950 0.517691 0.666686 0.175979
H6    H     H_    0.112542 0.509438 0.334411 0.173696
H7    H     H_    0.923251 0.285210 0.681309 0.143128
H8    H     H_    0.047526 0.763315 0.337271 0.146100
H9    H     H_    0.779074 0.192082 0.547436 0.125195
H10   H     H_    0.202119 0.857913 0.461220 0.133041
H11   H     H_    0.693325 0.175772 0.927904 0.143063
H12   H     H_    0.300607 0.773064 0.086336 0.160647
H13   H     H_    0.620406 0.887341 0.634600 0.161660
H14   H     H_    0.380564 0.111812 0.364887 0.157236
H15   H     H_    0.204107 0.278583 0.875061 0.159086
H16   H     H_    0.762473 0.740330 0.137387 0.175452
H17   H     H_    0.153055 0.304660 0.687405 0.149665
H18   H     H_    0.823547 0.709324 0.322370 0.146763
N1    N     N_1   0.480320 0.480250 0.239400 -0.164052
N2    N     N_1   0.519680 0.519750 0.760600 -0.160382
O1    O     O_R   0.313000 0.493330 0.412070 -0.576832
O2    O     O_R   0.687000 0.506670 0.587930 -0.574244
O3    O     O_R   0.326280 0.506660 0.587930 -0.575717
O4    O     O_R   0.673720 0.493340 0.412070 -0.572874
O5    O     O_R   0.493370 0.312980 0.412070 -0.585393
O6    O     O_R   0.506630 0.687020 0.587930 -0.583027
O7    O     O_R   0.506650 0.326310 0.587930 -0.565574
O8    O     O_R   0.493350 0.673690 0.412070 -0.568569
N3    N     N_2   0.090036 0.725179 0.744109 -0.431279
H19   H     H_    0.049597 0.780690 0.801537 0.254537
C45   C     C_3   0.187511 0.788952 0.693840 -0.666936
H20   H     H_    0.266498 0.806289 0.750361 0.228905
H21   H     H_    0.152900 0.879239 0.666911 0.214310
H22   H     H_    0.219095 0.733729 0.624051 0.234644
N4    N     N_2   0.929604 0.301662 0.248566 -0.438632
H23   H     H_    0.862598 0.234335 0.238391 0.247052
C46   C     C_3   0.044568 0.262172 0.203397 -0.648293
H24   H     H_    0.075935 0.175542 0.239541 0.221431
H25   H     H_    0.116807 0.333672 0.219184 0.253416
H26   H     H_    0.032530 0.243743 0.116890 0.228413
O9    O     O_3   0.510719 0.666858 0.014032 -0.747203
H27   H     H_    0.520025 0.725848 0.957269 0.326029
O10   O     O_3   0.488473 0.333053 0.986222 -0.782529
H28   H     H_    0.479119 0.274103 0.043005 0.316535
N5    N     N_2   0.521109 0.061213 0.803913 -0.445169
H29   H     H_    0.529413 0.034031 0.880622 0.244844
C47   C     C_3   0.404653 0.121623 0.782655 -0.645904
H30   H     H_    0.382240 0.119956 0.696940 0.232916
H31   H     H_    0.407521 0.219151 0.813937 0.271821
H32   H     H_    0.329909 0.072075 0.820891 0.203907
N6    N     N_2   0.487916 0.877092 0.199418 -0.396073
H33   H     H_    0.558126 0.884781 0.255831 0.253945
C48   C     C_3   0.488758 0.975567 0.126073 -0.708067
H34   H     H_    0.583441 0.987629 0.097920 0.223388
H35   H     H_    0.458739 0.063969 0.165479 0.216242
H36   H     H_    0.427239 0.952872 0.056393 0.232228
O11   O     O_3   0.205426 0.450871 0.025694 -0.753218
H37   H     H_    0.200292 0.530904 0.066650 0.314944
O12   O     O_3   0.781569 0.578648 0.979029 -0.738298
H38   H     H_    0.796193 0.502381 0.934751 0.316197

loop_
_geom_bond_atom_site_label_1
_geom_bond_atom_site_label_2
_ccdc_geom_bond_type
C33   H9    S    
O9    H27   S    
C34   H10   S    
C47   H30   S    
Cu1   O5    S    
N4    H23   S    
C39   C41   A    
C45   H20   S    
C3    C43   A    
C28   C29   S    
C19   C21   A    
C23   O7    A    
Cu2   N2    S    
C2    O2    A    
C20   C25   A    
C39   H11   S    
C5    C36   S    
C6    C35   S    
C15   C17   A    
C19   C26   A    
C7    H15   S    
Cu2   O3    S    
N6    C48   S    
C48   H34   S    
C7    C17   A    
Cu1   O1    S    
C31   C33   A    
C13   N3    S    
Cu2   O6    S    
C43   H13   S    
C40   C42   A    
C1    C22   S    
C47   H31   S    
C27   C30   S    
C3    C24   S    
C2    C21   S    
C38   N6    S    
C32   H8    S    
N4    C46   S    
N6    H33   S    
C45   H21   S    
C40   H12   S    
C37   N5    S    
C23   O5    A    
C4    C6    A    
N5    H29   S    
C4    C23   S    
C4    C44   A    
C11   C26   S    
Cu1   Cu2   S    
C8    C18   A    
Cu1   O8    S    
C32   C34   A    
N3    H19   S    
Cu2   O2    S    
N5    C47   S    
N3    C45   S    
C46   H24   S    
C46   H26   S    
C28   O9    S    
C41   H1    S    
C42   H2    S    
C31   H7    S    
C9    C11   A    
C10   C12   A    
C16   C18   A    
C46   H25   S    
C5    C44   A    
C20   C22   A    
C47   H32   S    
C6    C43   A    
C13   C15   A    
Cu1   N1    S    
C14   C16   A    
O11   H37   S    
C24   O6    A    
C45   H22   S    
C7    C9    A    
C21   C25   A    
C31   C41   A    
C35   C37   A    
Cu1   O4    S    
C9    H17   S    
C10   H18   S    
C16   H4    S    
C3    C5    A    
C1    O1    A    
O12   H38   S    
C12   C25   S    
C20   H6    S    
C36   C38   A    
C12   C14   A    
C18   O12   S    
C37   C39   A    
C38   C40   A    
C11   C13   A    
C24   O8    A    
C44   H14   S    
C33   C35   A    
C27   O10   S    
C34   C36   A    
C15   H3    S    
C17   O11   S    
C1    O3    A    
C30   N1    T    
C29   N2    T    
C19   H5    S    
C48   H36   S    
C8    C10   A    
C22   C26   A    
C27   C28   D    
C32   C42   A    
C14   N4    S    
O10   H28   S    
C2    O4    A    
C48   H35   S    
Cu2   O7    S    
C8    H16   S    
