data_mof_unit_pretest_233.cif
_audit_creation_date              2012-10-26T20:01:53-0400
_audit_creation_method            fapswitch 2.2
_symmetry_space_group_name_H-M    P1
_symmetry_Int_Tables_number       1
_space_group_crystal_system       triclinic
_cell_length_a                    11.697724
_cell_length_b                    10.820907
_cell_length_c                    9.622262
_cell_angle_alpha                 90.011772
_cell_angle_beta                  90.027814
_cell_angle_gamma                 90.89286
_cell_volume                      1217.83770894

loop_
_atom_site_label
_atom_site_type_symbol
_atom_type_description
_atom_site_fract_x
_atom_site_fract_y
_atom_site_fract_z
_atom_type_partial_charge
C1    C     C_R   0.506336 0.262576 0.500052 0.593410
C2    C     C_R   0.503984 0.870025 0.499642 0.014114
C3    C     C_R   0.649205 0.662953 0.143680 -0.116050
C4    C     C_R   0.284162 0.500995 0.499973 0.542240
C5    C     C_R   0.721681 0.743118 0.072270 -0.161902
C6    C     C_R   0.722314 0.743685 0.928078 0.215247
C7    C     C_R   0.649452 0.663066 0.856911 -0.022941
C8    C     C_R   0.573295 0.580184 0.925509 0.106605
C9    C     C_R   0.573226 0.580130 0.074786 0.144681
C10   C     C_R   0.430474 0.423779 0.073726 0.007096
C11   C     C_R   0.430495 0.423820 0.926029 0.009775
C12   C     C_R   0.825838 0.046893 0.531874 -0.103884
C13   C     C_R   0.495642 0.736823 0.499905 0.526689
C14   C     C_R   0.715553 0.508580 0.499996 0.538502
C15   C     C_1   0.162420 0.505742 0.499942 -0.024084
C16   C     C_1   0.059959 0.510113 0.499985 -0.042164
C17   C     C_1   0.940117 0.513722 0.500039 -0.046259
C18   C     C_1   0.837540 0.513679 0.500038 -0.037463
C19   C     C_R   0.727097 0.118354 0.522471 0.101402
C20   C     C_R   0.818541 0.919224 0.529391 -0.099836
C21   C     C_R   0.712603 0.861101 0.518398 -0.090398
C22   C     C_R   0.611190 0.930134 0.510234 0.002924
C23   C     C_R   0.617054 0.061276 0.511401 0.065838
C24   C     C_R   0.512559 0.127881 0.500060 0.019565
C25   C     C_R   0.408021 0.064502 0.487819 -0.164801
C26   C     C_R   0.403691 0.936704 0.487826 -0.144085
Cu1   Cu    Cu3+1 0.499990 0.499990 0.640660 0.946501
Cu2   Cu    Cu3+1 0.500010 0.500010 0.359340 0.941027
H1    H     H_    0.328835 0.114677 0.478844 0.109803
H2    H     H_    0.777868 0.804795 0.130257 0.108277
H3    H     H_    0.839350 0.872994 0.918401 0.327854
H4    H     H_    0.784231 0.273963 0.613344 0.235427
H5    H     H_    0.793952 0.271294 0.437567 0.224506
H6    H     H_    0.656958 0.669870 0.747711 0.199762
H7    H     H_    0.373423 0.361229 0.871014 0.118808
H8    H     H_    0.909181 0.091372 0.540081 0.107815
H9    H     H_    0.895332 0.864931 0.535862 0.130145
H10   H     H_    0.711168 0.761443 0.515961 0.104834
H11   H     H_    0.321640 0.889410 0.478950 0.117955
H12   H     H_    0.373387 0.361161 0.128585 0.117205
H13   H     H_    0.657304 0.670539 0.252901 0.184236
N1    N     N_R   0.501070 0.501210 0.147910 -0.235451
N2    N     N_R   0.501110 0.501290 0.852040 -0.244383
N3    N     N_3   0.741343 0.248747 0.521973 -0.598847
O1    O     O_R   0.499990 0.319640 0.618810 -0.484183
O2    O     O_R   0.500000 0.319660 0.381240 -0.490316
O3    O     O_R   0.337190 0.500000 0.618790 -0.495427
O4    O     O_R   0.337200 0.500030 0.381210 -0.496838
O5    O     O_R   0.500000 0.680340 0.618760 -0.520910
O6    O     O_R   0.500010 0.680360 0.381190 -0.521944
O7    O     O_R   0.662800 0.499970 0.618790 -0.506556
O8    O     O_R   0.662810 0.500000 0.381210 -0.506263
O9    O     O_3   0.793433 0.821650 0.852969 -0.707263

loop_
_geom_bond_atom_site_label_1
_geom_bond_atom_site_label_2
_ccdc_geom_bond_type
C2    C22   A    
C19   C23   A    
C23   C24   A    
C11   N2    A    
C6    C7    A    
C3    C9    A    
C10   N1    A    
C14   C18   S    
C14   O7    A    
C8    N2    A    
C1    O1    A    
Cu1   O1    S    
C4    C15   S    
C11   H7    S    
C17   C18   T    
H4    N3    S    
C7    C8    A    
C2    C26   A    
C21   C22   A    
C19   N3    S    
C20   H9    S    
Cu2   O8    S    
Cu2   O2    S    
C9    N1    A    
C16   C17   S    
C12   C20   A    
C13   O5    A    
C12   C19   A    
Cu2   N1    S    
C25   C26   A    
Cu1   O7    S    
C25   H1    S    
C5    C6    A    
C26   H11   S    
C7    H6    S    
C14   O8    A    
C1    O2    A    
C12   H8    S    
C10   C11   A    
C6    O9    S    
Cu1   O5    S    
C15   C16   T    
Cu1   N2    S    
C24   C25   A    
C3    H13   S    
C1    C24   S    
C10   H12   S    
C5    H2    S    
C4    O4    A    
Cu1   O3    S    
Cu1   Cu2   S    
C2    C13   S    
C22   C23   A    
Cu2   O4    S    
C20   C21   A    
H5    N3    S    
Cu2   O6    S    
H3    O9    S    
C21   H10   S    
C13   O6    A    
C8    C9    A    
C3    C5    A    
C4    O3    A    
