data_mof_unit_pretest_1055.cif
_audit_creation_date              2012-12-10T16:59:17-0500
_audit_creation_method            fapswitch 2.2
_symmetry_space_group_name_H-M    P1
_symmetry_Int_Tables_number       1
_space_group_crystal_system       triclinic
_cell_length_a                    7.738238
_cell_length_b                    8.55783
_cell_length_c                    27.719279
_cell_angle_alpha                 90.970428
_cell_angle_beta                  86.115623
_cell_angle_gamma                 93.71337
_cell_volume                      1827.43360562

loop_
_atom_site_label
_atom_site_type_symbol
_atom_type_description
_atom_site_fract_x
_atom_site_fract_y
_atom_site_fract_z
_atom_type_partial_charge
C1    C     C_R   0.545921 0.794853 0.498734 0.975374
C2    C     C_R   0.454079 0.205147 0.501266 0.975367
C3    C     C_R   0.520429 0.495740 0.897820 -0.048629
C4    C     C_R   0.479554 0.504069 0.102180 -0.048624
C5    C     C_R   0.563720 0.634779 0.872014 -0.021842
C6    C     C_R   0.436255 0.365032 0.127987 -0.021856
C7    C     C_R   0.600844 0.774299 0.896940 -0.140472
C8    C     C_R   0.399131 0.225511 0.103061 -0.140478
C9    C     C_R   0.485548 0.354935 0.872192 -0.025268
C10   C     C_R   0.514439 0.644873 0.127808 -0.025255
C11   C     C_R   0.509238 0.498335 0.646455 -0.051593
C12   C     C_R   0.490752 0.501614 0.353544 -0.051618
C13   C     C_R   0.534071 0.643549 0.025546 0.047887
C14   C     C_R   0.465921 0.356257 0.974455 0.047887
C15   C     C_R   0.453938 0.358651 0.025730 0.047820
C16   C     C_R   0.546049 0.641156 0.974271 0.047821
C17   C     C_R   0.489020 0.502118 0.050915 0.073171
C18   C     C_R   0.510968 0.497689 0.949086 0.073172
C19   C     C_R   0.565066 0.783214 0.052642 -0.224553
C20   C     C_R   0.434935 0.216591 0.947358 -0.224551
C21   C     C_R   0.555639 0.783392 0.102703 -0.140037
C22   C     C_R   0.444358 0.216414 0.897297 -0.140036
C23   C     C_R   0.502779 0.499768 0.593931 0.883308
C24   C     C_R   0.497220 0.500226 0.406069 0.883310
C25   C     C_R   0.592884 0.777734 0.946995 -0.225265
C26   C     C_R   0.407097 0.222075 0.053006 -0.225260
C27   C     C_2   0.570195 0.958325 0.498001 -0.372475
C28   C     C_2   0.429805 0.041675 0.501999 -0.372475
C29   C     C_R   0.567016 0.631140 0.821521 0.517200
C30   C     C_R   0.432947 0.368673 0.178480 0.517289
C31   C     C_R   0.490857 0.356483 0.821691 0.530037
C32   C     C_R   0.509128 0.643327 0.178309 0.529949
C33   C     C_R   0.674993 0.490777 0.717188 -0.147600
C34   C     C_R   0.325022 0.509462 0.282813 -0.147646
C35   C     C_R   0.669144 0.492414 0.667257 -0.212298
C36   C     C_R   0.330883 0.507888 0.332744 -0.212296
C37   C     C_R   0.355376 0.502542 0.676201 -0.256583
C38   C     C_R   0.644567 0.496990 0.323796 -0.256561
C39   C     C_R   0.361024 0.500710 0.726344 0.152867
C40   C     C_R   0.638907 0.498759 0.273653 0.152826
C41   C     C_R   0.521529 0.494668 0.746614 0.339744
C42   C     C_R   0.478439 0.505153 0.253385 0.339815
H1    H     H_    0.230862 0.507026 0.660761 0.161229
H2    H     H_    0.769052 0.492223 0.339233 0.161240
H3    H     H_    0.014138 0.383192 0.463422 0.191199
H4    H     H_    0.985862 0.616808 0.536578 0.191192
H5    H     H_    0.636127 0.882318 0.877817 0.192410
H6    H     H_    0.363843 0.117494 0.122184 0.192409
H7    H     H_    0.210481 0.511265 0.354958 0.163354
H8    H     H_    0.789582 0.489373 0.645044 0.163308
H9    H     H_    0.201536 0.514065 0.266873 0.134374
H10   H     H_    0.798511 0.486456 0.733129 0.134397
H11   H     H_    0.582082 0.893179 0.121683 0.194215
H12   H     H_    0.417921 0.106626 0.878317 0.194215
H13   H     H_    0.597428 0.895694 0.036603 0.140433
H14   H     H_    0.402584 0.104109 0.963397 0.140430
H15   H     H_    0.624984 0.890430 0.962883 0.141259
H16   H     H_    0.374992 0.109380 0.037118 0.141263
H17   H     H_    0.702727 0.009520 0.494185 0.180587
H18   H     H_    0.297273 0.990480 0.505815 0.180587
N1    N     N_R   0.528895 0.493672 0.797749 -0.351049
N2    N     N_R   0.471072 0.506142 0.202251 -0.351051
N3    N     N_2   0.950320 0.457960 0.486880 -0.176064
N4    N     N_2   0.049680 0.542040 0.513120 -0.176064
O1    O     O_R   0.389250 0.738570 0.503220 -0.611533
O2    O     O_R   0.610750 0.261430 0.496780 -0.611534
O3    O     O_R   0.678390 0.711630 0.494810 -0.629621
O4    O     O_R   0.321610 0.288370 0.505190 -0.629623
O5    O     O_R   0.355440 0.513440 0.575450 -0.621372
O6    O     O_R   0.644560 0.486560 0.424550 -0.621376
O7    O     O_R   0.644590 0.486500 0.567040 -0.631193
O8    O     O_R   0.355410 0.513500 0.432960 -0.631201
O9    O     O_2   0.605663 0.763863 0.796296 -0.536718
O10   O     O_2   0.394278 0.235957 0.203707 -0.536727
O11   O     O_2   0.543048 0.777148 0.203401 -0.534179
O12   O     O_2   0.456959 0.222658 0.796599 -0.534178
Zn1   Zn    Zn3+2 0.306940 0.517990 0.505620 0.948688
Zn2   Zn    Zn3+2 0.693060 0.482010 0.494380 0.948689
N5    N     N_3   0.204652 0.505522 0.756914 -0.448126
H19   H     H_    0.144061 0.606865 0.748994 0.195947
H20   H     H_    0.122229 0.409119 0.748106 0.195395
N6    N     N_3   0.795231 0.493547 0.243079 -0.448143
H21   H     H_    0.877915 0.589790 0.251868 0.195205
H22   H     H_    0.855527 0.392061 0.251016 0.196155

loop_
_geom_bond_atom_site_label_1
_geom_bond_atom_site_label_2
_ccdc_geom_bond_type
C21   H11   S    
O6    Zn2   S    
C8    C26   A    
N4    Zn1   S    
C31   N1    A    
O5    Zn1   S    
C34   C42   A    
C41   N1    S    
C20   H14   S    
C32   O11   S    
C24   O6    A    
C39   C41   A    
C33   H10   S    
C34   H9    S    
C19   C21   A    
C2    O4    A    
C30   O10   S    
C9    C22   A    
C29   O9    S    
C16   C25   A    
C3    C18   A    
C11   C37   A    
C14   C18   A    
C1    O3    A    
C1    O1    A    
C12   C36   A    
C42   N2    S    
C40   C42   A    
C22   H12   S    
O3    Zn2   S    
C25   H15   S    
C5    C29   A    
C28   H18   S    
C10   C21   A    
O2    Zn2   S    
C29   N1    A    
O1    Zn1   S    
C13   C19   A    
C14   C20   A    
C4    C6    A    
C5    C7    A    
C15   C26   A    
C6    C8    A    
C3    C5    A    
C23   O5    A    
H3    N3    S    
N5    H19   S    
H4    N4    S    
C39   N5    S    
C37   H1    S    
C8    H6    S    
C38   H2    S    
O8    Zn1   S    
C3    C9    A    
C40   N6    S    
C35   H8    S    
C26   H16   S    
C4    C17   A    
C6    C30   A    
C20   C22   A    
N6    H22   S    
C30   N2    A    
C4    C10   A    
C24   O8    A    
N5    H20   S    
C19   H13   S    
O4    Zn1   S    
C15   C17   A    
C2    O2    A    
C12   C24   S    
C7    C25   A    
C13   C17   A    
C33   C41   A    
C11   C35   A    
C32   N2    A    
C37   C39   A    
C27   H17   S    
C38   C40   A    
C31   O12   S    
C11   C23   S    
C33   C35   A    
C34   C36   A    
C12   C38   A    
C9    C31   A    
N3    N4    D    
C10   C32   A    
C23   O7    A    
C16   C18   A    
N6    H21   S    
C13   C16   A    
C27   C28   D    
C1    C27   S    
C14   C15   A    
C2    C28   S    
O7    Zn2   S    
C36   H7    S    
C7    H5    S    
N3    Zn2   S    
