data_mof_unit_pretest_134.cif
_audit_creation_date              2012-10-26T19:15:06-0400
_audit_creation_method            fapswitch 2.2
_symmetry_space_group_name_H-M    P1
_symmetry_Int_Tables_number       1
_space_group_crystal_system       triclinic
_cell_length_a                    10.841635
_cell_length_b                    10.832339
_cell_length_c                    9.546147
_cell_angle_alpha                 89.791498
_cell_angle_beta                  90.642992
_cell_angle_gamma                 90.428654
_cell_volume                      1120.99298593

loop_
_atom_site_label
_atom_site_type_symbol
_atom_type_description
_atom_site_fract_x
_atom_site_fract_y
_atom_site_fract_z
_atom_type_partial_charge
C1    C     C_R   0.501664 0.262333 0.500194 0.548578
C2    C     C_R   0.510642 0.935856 0.625663 0.016936
C3    C     C_3   0.421247 0.928537 0.743452 -0.266005
C4    C     C_R   0.262431 0.496809 0.499251 0.547313
C5    C     C_3   0.422848 0.068561 0.744606 -0.274403
C6    C     C_R   0.534285 0.603383 0.073729 0.159464
C7    C     C_R   0.452369 0.403426 0.074124 -0.019883
C8    C     C_R   0.452245 0.403519 0.925337 -0.017907
C9    C     C_R   0.533288 0.603743 0.926361 0.155759
C10   C     C_3   0.654331 0.668941 0.921393 -0.283131
C11   C     C_3   0.656243 0.667535 0.080279 -0.276618
C12   C     C_R   0.938760 0.472309 0.624175 0.023612
C13   C     C_R   0.501304 0.737681 0.499795 0.547973
C14   C     C_R   0.737879 0.497806 0.500408 0.548305
C15   C     C_R   0.065767 0.471280 0.622895 0.019572
C16   C     C_R   0.129572 0.483020 0.497597 0.006231
C17   C     C_R   0.062983 0.477195 0.370635 -0.163453
C18   C     C_R   0.934306 0.478138 0.371646 -0.161734
C19   C     C_R   0.871186 0.485105 0.499589 0.007966
C20   C     C_3   0.937555 0.546665 0.755609 -0.278445
C21   C     C_3   0.077244 0.544717 0.754169 -0.262370
C22   C     C_R   0.511434 0.063052 0.626080 0.025130
C23   C     C_R   0.512428 0.129257 0.500335 0.009932
C24   C     C_R   0.528669 0.065087 0.374188 -0.162850
C25   C     C_R   0.527831 0.936467 0.373869 -0.163137
C26   C     C_R   0.511439 0.870928 0.499686 0.006792
Cu1   Cu    Cu3+1 0.499990 0.499980 0.640670 0.934655
Cu2   Cu    Cu3+1 0.500010 0.500020 0.359330 0.930471
H1    H     H_    0.109585 0.478643 0.270866 0.134214
H2    H     H_    0.885163 0.479708 0.272294 0.129622
H3    H     H_    0.899508 0.640688 0.738785 0.131516
H4    H     H_    0.898949 0.493401 0.844892 0.132039
H5    H     H_    0.536181 0.113579 0.275181 0.129235
H6    H     H_    0.534070 0.889130 0.274707 0.126373
H7    H     H_    0.330651 0.888410 0.711018 0.136337
H8    H     H_    0.647119 0.763103 0.875749 0.123991
H9    H     H_    0.119639 0.637297 0.736997 0.139907
H10   H     H_    0.118202 0.490245 0.841741 0.137592
H11   H     H_    0.462523 0.887385 0.839689 0.131256
H12   H     H_    0.332991 0.110143 0.713875 0.133077
H13   H     H_    0.466343 0.107238 0.841015 0.125414
H14   H     H_    0.415387 0.324314 0.129240 0.113530
H15   H     H_    0.414620 0.324956 0.869765 0.112657
H16   H     H_    0.725871 0.610449 0.875402 0.146491
H17   H     H_    0.730288 0.608678 0.125499 0.145322
H18   H     H_    0.650267 0.761229 0.126161 0.117249
N1    N     N_R   0.500790 0.500930 0.147930 -0.230405
N2    N     N_R   0.500790 0.500890 0.852020 -0.230684
O1    O     O_R   0.500000 0.319640 0.618810 -0.505793
O2    O     O_R   0.500010 0.319680 0.381230 -0.516584
O3    O     O_R   0.319650 0.499970 0.618810 -0.502576
O4    O     O_R   0.319660 0.500010 0.381230 -0.505627
O5    O     O_R   0.499990 0.680320 0.618770 -0.500601
O6    O     O_R   0.500000 0.680360 0.381190 -0.505141
O7    O     O_R   0.680340 0.499990 0.618770 -0.498297
O8    O     O_R   0.680350 0.500030 0.381190 -0.508863

loop_
_geom_bond_atom_site_label_1
_geom_bond_atom_site_label_2
_ccdc_geom_bond_type
Cu1   N2    S    
C2    C22   A    
C14   O8    A    
C23   C24   A    
Cu1   O5    S    
Cu2   N1    S    
C4    C16   S    
C18   H2    S    
C7    H14   S    
C17   H1    S    
C1    O2    A    
C24   H5    S    
C12   C15   A    
C3    H7    S    
C25   H6    S    
C14   O7    A    
C12   C20   S    
C6    C9    A    
C8    N2    A    
C2    C3    S    
Cu2   O8    S    
C3    H11   S    
C7    C8    A    
C2    C26   A    
C8    H15   S    
C20   C21   S    
Cu2   O4    S    
C1    O1    A    
C4    O4    A    
C12   C19   A    
Cu1   O3    S    
C1    C23   S    
C13   O5    A    
C10   C11   S    
C6    C11   S    
C20   H4    S    
Cu1   O7    S    
C13   C26   S    
C11   H17   S    
C6    N1    A    
C21   H10   S    
C4    O3    A    
C10   H16   S    
C15   C16   A    
C15   C21   S    
C21   H9    S    
C24   C25   A    
C9    N2    A    
C17   C18   A    
C13   O6    A    
C9    C10   S    
C5    H12   S    
Cu1   Cu2   S    
C5    H13   S    
C22   C23   A    
C18   C19   A    
C11   H18   S    
Cu2   O6    S    
C3    C5    S    
C25   C26   A    
Cu2   O2    S    
C14   C19   S    
C5    C22   S    
Cu1   O1    S    
C16   C17   A    
C10   H8    S    
C20   H3    S    
C7    N1    A    
