data_mof_unit_pretest_1059.cif
_audit_creation_date              2012-12-11T14:56:40-0500
_audit_creation_method            fapswitch 2.2
_symmetry_space_group_name_H-M    P1
_symmetry_Int_Tables_number       1
_space_group_crystal_system       triclinic
_cell_length_a                    10.507313
_cell_length_b                    10.619699
_cell_length_c                    17.190451
_cell_angle_alpha                 80.13576
_cell_angle_beta                  89.671907
_cell_angle_gamma                 118.734651
_cell_volume                      1648.4714383

loop_
_atom_site_label
_atom_site_type_symbol
_atom_type_description
_atom_site_fract_x
_atom_site_fract_y
_atom_site_fract_z
_atom_type_partial_charge
C1    C     C_R   0.278434 0.888315 0.132844 0.568653
C2    C     C_R   0.807813 0.399214 0.265776 -0.029480
C3    C     C_R   0.763575 0.321509 0.206135 0.096132
C4    C     C_R   0.655270 0.329336 0.160784 0.035089
C5    C     C_1   0.668531 0.847878 0.205473 -0.026898
C6    C     C_1   0.680688 0.838825 0.274662 -0.052306
C7    C     C_1   0.227142 0.853814 0.215416 -0.046984
C8    C     C_1   0.178933 0.834748 0.282879 -0.055751
C9    C     C_1   0.645702 0.327753 0.778559 -0.063880
C10   C     C_1   0.653647 0.349803 0.708138 -0.061437
C11   C     C_R   0.680780 0.782929 0.797674 -0.118679
C12   C     C_R   0.634505 0.273058 0.088912 0.563555
C13   C     C_R   0.690827 0.758285 0.722374 -0.131215
C14   C     C_R   0.660272 0.836555 0.658282 0.052684
C15   C     C_R   0.624780 0.944765 0.668523 0.080508
C16   C     C_R   0.614027 0.968485 0.744901 -0.085207
C17   C     C_R   0.639441 0.885727 0.809091 0.012297
C18   C     C_R   0.283596 0.985446 0.749244 -0.157189
C19   C     C_R   0.254932 0.967059 0.672389 0.077850
C20   C     C_R   0.179682 0.824574 0.656428 0.055088
C21   C     C_R   0.152885 0.702506 0.716258 0.064814
C22   C     C_R   0.172715 0.720257 0.794793 0.026517
C23   C     C_R   0.640055 0.858158 0.125525 0.562722
C24   C     C_R   0.238499 0.864483 0.810772 -0.010297
C25   C     C_R   0.686868 0.809795 0.357024 0.532099
C26   C     C_R   0.726145 0.457634 0.382941 0.566746
C27   C     C_R   0.108517 0.812529 0.359793 0.541612
C28   C     C_R   0.674804 0.804481 0.582220 0.531586
C29   C     C_R   0.680228 0.384806 0.625146 0.562784
C30   C     C_R   0.103975 0.803252 0.584749 0.568452
C31   C     C_R   0.279184 0.896882 0.888494 0.540037
C32   C     C_R   0.637868 0.286461 0.861155 0.529572
C33   C     C_R   0.604992 0.893255 0.888543 0.535682
C34   C     C_R   0.568129 0.383507 0.187368 -0.008133
C35   C     C_R   0.580859 0.413286 0.263623 0.076828
C36   C     C_R   0.705312 0.426761 0.302954 0.009360
Cr1   Cr    Cr6+3 0.402240 0.783890 0.019450 0.992822
Cr2   Cr    Cr6+3 0.382360 0.097900 0.991800 1.009194
Cr3   Cr    Cr6+3 0.715380 0.118170 0.988700 1.026056
Cr4   Cr    Cr6+3 0.936650 0.882420 0.465510 1.033587
Cr5   Cr    Cr6+3 0.605770 0.565620 0.493360 1.011300
Cr6   Cr    Cr6+3 0.921340 0.550490 0.496380 0.999764
H1    H     H_    0.700751 0.718912 0.847322 0.141103
H2    H     H_    0.721269 0.676968 0.713960 0.118275
H3    H     H_    0.580834 0.046816 0.754682 0.108560
H4    H     H_    0.340534 0.095544 0.761043 0.128541
O1    O     O_R   0.521780 0.757110 0.108900 -0.530146
O2    O     O_R   0.513330 0.228330 0.898660 -0.515749
O3    O     O_R   0.739230 0.266130 0.888050 -0.522360
O4    O     O_R   0.712580 0.991850 0.918770 -0.483609
O5    O     O_3   0.499990 0.999980 0.999980 -0.304049
O6    O     O_R   0.083770 0.911170 0.376030 -0.495795
O7    O     O_R   0.808770 0.880340 0.383890 -0.499001
O8    O     O_R   0.584340 0.689460 0.394160 -0.538830
O9    O     O_R   0.614320 0.443940 0.423590 -0.502027
O10   O     O_R   0.805020 0.410040 0.421340 -0.518247
O11   O     O_R   0.049240 0.685450 0.403290 -0.532673
O12   O     O_R   0.275160 0.783810 0.101120 -0.488117
O13   O     O_R   0.077520 0.903010 0.551800 -0.470468
O14   O     O_R   0.802980 0.872780 0.546830 -0.498196
O15   O     O_R   0.578090 0.681300 0.569920 -0.511975
O16   O     O_R   0.608530 0.436370 0.586530 -0.497797
O17   O     O_R   0.798770 0.401880 0.597100 -0.508175
O18   O     O_R   0.043450 0.677890 0.566230 -0.526863
O19   O     O_3   0.821250 0.666180 0.485090 -0.271146
O20   O     O_R   0.237900 0.972600 0.090980 -0.497423
O21   O     O_R   0.511190 0.220540 0.061620 -0.532320
O22   O     O_R   0.736920 0.257720 0.063840 -0.482517
O23   O     O_R   0.710450 0.984050 0.081720 -0.472972
O24   O     O_R   0.524090 0.765520 0.933110 -0.525815
O25   O     O_R   0.277300 0.791600 0.938160 -0.516640
O26   O     O_R   0.240210 0.981010 0.915190 -0.492053
C37   C     C_3   0.455403 0.399624 0.138294 -0.332420
H5    H     H_    0.414725 0.466521 0.161274 0.177256
H6    H     H_    0.504512 0.456717 0.076529 0.135738
H7    H     H_    0.360197 0.290231 0.138396 0.155370
N1    N     N_3   0.301258 0.093726 0.610406 -0.586954
H8    H     H_    0.414749 0.154590 0.606393 0.256263
H9    H     H_    0.258605 0.157695 0.626443 0.237921
N2    N     N_3   0.104994 0.559628 0.699108 -0.633607
H10   H     H_    0.169833 0.567634 0.650136 0.253885
H11   H     H_    0.995136 0.512410 0.689242 0.272868
C38   C     C_3   0.114583 0.584022 0.860164 -0.317794
H12   H     H_    0.206354 0.571227 0.884364 0.155273
H13   H     H_    0.047851 0.591026 0.907849 0.147647
H14   H     H_    0.040958 0.481481 0.839928 0.170179
N3    N     N_3   0.461495 0.419475 0.299999 -0.636449
H15   H     H_    0.497132 0.523108 0.311610 0.274407
H16   H     H_    0.412607 0.336855 0.350636 0.268637
C39   C     C_3   0.958154 0.437417 0.290767 -0.360685
H17   H     H_    0.005256 0.539390 0.312550 0.171581
H18   H     H_    0.954048 0.346870 0.335936 0.154992
H19   H     H_    0.036433 0.462137 0.239379 0.119691
N4    N     N_3   0.820560 0.225391 0.195377 -0.582554
H20   H     H_    0.929947 0.286612 0.172126 0.237599
H21   H     H_    0.811715 0.159616 0.250119 0.228249
N5    N     N_3   0.596597 0.028187 0.603181 -0.629030
H22   H     H_    0.689431 0.083790 0.562168 0.251590
H23   H     H_    0.510705 0.955285 0.575805 0.232898

loop_
_geom_bond_atom_site_label_1
_geom_bond_atom_site_label_2
_ccdc_geom_bond_type
Cr3   O5    S    
N3    H15   S    
C29   O17   A    
Cr4   O14   S    
C30   O18   A    
C32   O2    A    
C37   H5    S    
C23   O23   A    
C19   C20   A    
Cr5   O15   S    
C26   O9    A    
N5    H22   S    
C7    C8    T    
C20   C30   S    
N1    H8    S    
C12   O22   A    
C18   C24   A    
C21   C22   A    
C25   O7    A    
C18   C19   A    
C5    C6    T    
Cr1   O5    S    
C6    C25   S    
C15   C16   A    
C2    C39   S    
C34   C35   A    
Cr3   O22   S    
C19   N1    S    
Cr5   O9    S    
C9    C32   S    
Cr6   O10   S    
C35   N3    S    
Cr2   O20   S    
C16   C17   A    
Cr6   O19   S    
C11   H1    S    
C4    C12   S    
C9    C10   T    
Cr2   O2    S    
Cr1   O12   S    
C28   O15   A    
N1    H9    S    
Cr4   O13   S    
Cr1   O24   S    
C37   H6    S    
C17   C33   S    
Cr5   O16   S    
C15   N5    S    
C18   H4    S    
Cr6   O11   S    
N5    H23   S    
C4    C34   A    
C28   O14   A    
Cr5   O8    S    
C12   O21   A    
Cr2   O26   S    
C23   O1    A    
C25   O8    A    
N2    H11   S    
C27   O11   A    
Cr5   O19   S    
Cr2   O5    S    
C33   O4    A    
Cr4   O6    S    
C35   C36   A    
C39   H18   S    
C38   H12   S    
C5    C23   S    
C30   O13   A    
C38   H14   S    
C1    O20   A    
Cr3   O23   S    
C20   C21   A    
N4    H21   S    
C33   O24   A    
C26   C36   S    
C31   O26   A    
Cr3   O3    S    
Cr4   O19   S    
N3    H16   S    
C37   H7    S    
C22   C24   A    
Cr1   O1    S    
C3    C4    A    
Cr6   O18   S    
C27   O6    A    
C39   H19   S    
C2    C36   A    
C29   O16   A    
C11   C17   A    
C38   H13   S    
C1    C7    S    
N2    H10   S    
C26   O10   A    
C16   H3    S    
C22   C38   S    
Cr1   O25   S    
C2    C3    A    
C24   C31   S    
C1    O12   A    
C11   C13   A    
C10   C29   S    
C39   H17   S    
C21   N2    S    
C31   O25   A    
C3    N4    S    
N4    H20   S    
C32   O3    A    
C34   C37   S    
Cr3   O4    S    
Cr2   O21   S    
Cr4   O7    S    
C8    C27   S    
C14   C15   A    
C14   C28   S    
C13   C14   A    
Cr6   O17   S    
C13   H2    S    
