data_mof_unit_pretest_687.cif
_audit_creation_date              2012-12-11T14:38:06-0500
_audit_creation_method            fapswitch 2.2
_symmetry_space_group_name_H-M    P1
_symmetry_Int_Tables_number       1
_space_group_crystal_system       triclinic
_cell_length_a                    19.800315
_cell_length_b                    11.111594
_cell_length_c                    19.542026
_cell_angle_alpha                 90.073125
_cell_angle_beta                  96.261335
_cell_angle_gamma                 90.148663
_cell_volume                      4273.83385739

loop_
_atom_site_label
_atom_site_type_symbol
_atom_type_description
_atom_site_fract_x
_atom_site_fract_y
_atom_site_fract_z
_atom_type_partial_charge
C1    C     C_R   0.708338 0.998231 0.366473 0.555692
C2    C     C_R   0.275539 0.953042 0.639423 0.572835
C3    C     C_R   0.208338 0.498231 0.366473 0.555692
C4    C     C_R   0.775539 0.453042 0.639423 0.572835
C5    C     C_3   0.732992 0.528633 0.447254 -0.246151
C6    C     C_3   0.297556 0.520112 0.555768 -0.228501
C7    C     C_3   0.232992 0.028633 0.447254 -0.246150
C8    C     C_3   0.797556 0.020112 0.555768 -0.228500
C9    C     C_3   0.829591 0.376245 0.540142 -0.212012
C10   C     C_3   0.159516 0.481591 0.476974 -0.223744
C11   C     C_3   0.329591 0.876245 0.540142 -0.212012
C12   C     C_3   0.659516 0.981591 0.476974 -0.223744
C13   C     C_3   0.705124 0.333999 0.547293 0.000926
C14   C     C_3   0.251123 0.341860 0.448012 0.021856
C15   C     C_3   0.205124 0.833999 0.547293 0.000926
C16   C     C_3   0.751123 0.841860 0.448012 0.021856
C17   C     C_3   0.762776 0.424638 0.565311 0.017547
C18   C     C_3   0.225563 0.470866 0.440660 0.034357
C19   C     C_3   0.262776 0.924638 0.565311 0.017547
C20   C     C_3   0.725563 0.970866 0.440660 0.034357
C21   C     C_3   0.747682 0.397505 0.432695 0.062643
C22   C     C_3   0.247833 0.420326 0.571861 0.045643
C23   C     C_3   0.247682 0.897505 0.432695 0.062643
C24   C     C_3   0.747833 0.920326 0.571861 0.045643
C25   C     C_3   0.824351 0.373789 0.462617 0.149871
C26   C     C_3   0.172508 0.462502 0.555563 0.150647
C27   C     C_3   0.324351 0.873789 0.462617 0.149872
C28   C     C_3   0.672508 0.962502 0.555563 0.150647
C29   C     C_3   0.691955 0.327005 0.468241 -0.217363
C30   C     C_3   0.260609 0.314391 0.524435 -0.239559
C31   C     C_3   0.191955 0.827005 0.468241 -0.217363
C32   C     C_3   0.760609 0.814391 0.524435 -0.239559
C33   C     C_3   0.519836 0.303912 0.956750 -0.297191
C34   C     C_3   0.556777 0.300445 0.029063 -0.314913
C35   C     C_3   0.019836 0.803912 0.956750 -0.297191
C36   C     C_3   0.056777 0.800445 0.029063 -0.314913
C37   C     C_3   0.446119 0.117580 0.975668 0.178509
C38   C     C_3   0.583614 0.078361 0.023029 0.187588
C39   C     C_3   0.946118 0.617580 0.975668 0.178509
C40   C     C_3   0.083614 0.578361 0.023029 0.187588
C41   C     C_3   0.565703 0.097639 0.943107 -0.172448
C42   C     C_3   0.466118 0.152605 0.051143 -0.148955
C43   C     C_3   0.065703 0.597639 0.943107 -0.172448
C44   C     C_3   0.966118 0.652605 0.051143 -0.148955
C45   C     C_R   0.559459 0.183752 0.347545 0.512365
C46   C     C_R   0.463135 0.180614 0.661272 0.533249
C47   C     C_R   0.059459 0.683752 0.347545 0.512365
C48   C     C_R   0.963135 0.680614 0.661272 0.533249
C49   C     C_3   0.500010 0.173567 0.931329 0.055775
C50   C     C_3   0.543776 0.176429 0.062238 0.054528
C51   C     C_3   0.000010 0.673567 0.931329 0.055775
C52   C     C_3   0.043776 0.676429 0.062238 0.054528
C53   C     C_1   0.752814 0.413685 0.898432 -0.037403
C54   C     C_1   0.247903 0.407054 0.102498 -0.035413
C55   C     C_1   0.252814 0.913685 0.898432 -0.037403
C56   C     C_1   0.747903 0.907054 0.102498 -0.035413
C57   C     C_1   0.736202 0.389020 0.028403 -0.091073
C58   C     C_1   0.271667 0.354159 0.976428 -0.080319
C59   C     C_1   0.236202 0.889020 0.028403 -0.091073
C60   C     C_1   0.771667 0.854159 0.976428 -0.080319
C61   C     C_1   0.739921 0.397783 0.956696 -0.086245
C62   C     C_1   0.262837 0.379527 0.046113 -0.077918
C63   C     C_1   0.239921 0.897783 0.956696 -0.086245
C64   C     C_1   0.762837 0.879527 0.046113 -0.077918
C65   C     C_1   0.736789 0.378583 0.089942 -0.035395
C66   C     C_1   0.274641 0.334898 0.915865 -0.039416
C67   C     C_1   0.236789 0.878583 0.089942 -0.035395
C68   C     C_1   0.774641 0.834898 0.915865 -0.039416
C69   C     C_R   0.739301 0.363061 0.360543 0.527735
C70   C     C_R   0.259958 0.367154 0.641051 0.519831
C71   C     C_R   0.239301 0.863061 0.360543 0.527735
C72   C     C_R   0.759958 0.867154 0.641051 0.519831
C73   C     C_R   0.723510 0.951257 0.164740 0.557749
C74   C     C_R   0.276123 0.950943 0.834713 0.540330
C75   C     C_R   0.223510 0.451257 0.164740 0.557749
C76   C     C_R   0.776123 0.450943 0.834713 0.540330
C77   C     C_R   0.564039 0.182755 0.137378 0.553080
C78   C     C_R   0.469330 0.179293 0.858631 0.517952
C79   C     C_R   0.064039 0.682755 0.137378 0.553080
C80   C     C_R   0.969330 0.679293 0.858631 0.517952
C81   C     C_R   0.733977 0.352374 0.161438 0.520759
C82   C     C_R   0.277604 0.310222 0.843748 0.552972
C83   C     C_R   0.233977 0.852374 0.161438 0.520759
C84   C     C_R   0.777604 0.810222 0.843748 0.552972
C85   C     C_1   0.486711 0.173778 0.595402 0.037507
C86   C     C_1   0.535327 0.178430 0.413302 -0.035455
C87   C     C_1   0.986711 0.673778 0.595402 0.037507
C88   C     C_1   0.035327 0.678430 0.413302 -0.035455
C89   C     C_1   0.518470 0.174641 0.470243 0.029276
C90   C     C_1   0.501719 0.171922 0.537771 0.072776
C91   C     C_1   0.018470 0.674641 0.470243 0.029276
C92   C     C_1   0.001719 0.671922 0.537771 0.072776
C93   C     C_3   0.744278 0.542220 0.526134 -0.220141
C94   C     C_3   0.283335 0.552490 0.478559 -0.215518
C95   C     C_3   0.244278 0.042220 0.526134 -0.220141
C96   C     C_3   0.783335 0.052491 0.478559 -0.215518
Cr1   Cr    Cr6+3 0.765780 0.160710 0.267420 1.002983
Cr2   Cr    Cr6+3 0.234220 0.160710 0.732580 1.017629
Cr3   Cr    Cr6+3 0.265780 0.660710 0.267420 1.002983
Cr4   Cr    Cr6+3 0.734220 0.660710 0.732580 1.017629
Cr5   Cr    Cr6+3 0.612200 0.009560 0.248850 1.003827
Cr6   Cr    Cr6+3 0.387800 0.009560 0.751150 0.998999
Cr7   Cr    Cr6+3 0.112200 0.509560 0.248850 1.003827
Cr8   Cr    Cr6+3 0.887800 0.509560 0.751150 0.998999
Cr9   Cr    Cr6+3 0.616030 0.323720 0.248510 1.005314
Cr10  Cr    Cr6+3 0.383970 0.323720 0.751490 1.016817
Cr11  Cr    Cr6+3 0.116030 0.823720 0.248510 1.005314
Cr12  Cr    Cr6+3 0.883970 0.823720 0.751490 1.016817
H1    H     H_    0.789100 0.599241 0.539381 0.140685
H2    H     H_    0.271134 0.646519 0.474679 0.090037
H3    H     H_    0.289100 0.099241 0.539381 0.140685
H4    H     H_    0.771134 0.146519 0.474679 0.090037
H5    H     H_    0.683814 0.235488 0.448695 0.073177
H6    H     H_    0.219334 0.252765 0.531979 0.094090
H7    H     H_    0.183814 0.735488 0.448695 0.073177
H8    H     H_    0.719333 0.752765 0.531979 0.094090
H9    H     H_    0.840839 0.284808 0.561520 0.072355
H10   H     H_    0.120835 0.415486 0.454534 0.082880
H11   H     H_    0.340839 0.784807 0.561520 0.072355
H12   H     H_    0.620835 0.915486 0.454534 0.082880
H13   H     H_    0.843391 0.282823 0.450801 0.115283
H14   H     H_    0.136624 0.390500 0.567916 0.127372
H15   H     H_    0.343391 0.782823 0.450801 0.115283
H16   H     H_    0.636624 0.890500 0.567916 0.127373
H17   H     H_    0.473181 0.359717 0.957222 0.144348
H18   H     H_    0.611819 0.312559 0.026708 0.127204
H19   H     H_    0.973181 0.859717 0.957222 0.144348
H20   H     H_    0.111820 0.812559 0.026708 0.127204
H21   H     H_    0.553333 0.348317 0.922002 0.151136
H22   H     H_    0.538941 0.378849 0.057529 0.166768
H23   H     H_    0.053333 0.848317 0.922002 0.151136
H24   H     H_    0.038941 0.878849 0.057529 0.166768
H25   H     H_    0.394790 0.154626 0.958012 0.075528
H26   H     H_    0.639226 0.092023 0.037087 0.071176
H27   H     H_    0.894790 0.654626 0.958012 0.075528
H28   H     H_    0.139226 0.592023 0.037087 0.071176
H29   H     H_    0.437861 0.235162 0.063234 0.084553
H30   H     H_    0.608351 0.145222 0.921901 0.056347
H31   H     H_    0.937861 0.735162 0.063234 0.084553
H32   H     H_    0.108351 0.645222 0.921901 0.056347
H33   H     H_    0.558628 0.011824 0.914236 0.153707
H34   H     H_    0.450651 0.082889 0.086689 0.153627
H35   H     H_    0.058628 0.511824 0.914236 0.153707
H36   H     H_    0.950651 0.582889 0.086689 0.153627
H37   H     H_    0.696453 0.576648 0.543685 0.182131
H38   H     H_    0.331342 0.544675 0.454371 0.186527
H39   H     H_    0.196453 0.076648 0.543685 0.182131
H40   H     H_    0.831342 0.044675 0.454371 0.186527
H41   H     H_    0.680093 0.553950 0.427384 0.114067
H42   H     H_    0.350982 0.488441 0.566286 0.156981
H43   H     H_    0.180093 0.053950 0.427384 0.114067
H44   H     H_    0.850982 0.988442 0.566286 0.156980
H45   H     H_    0.766841 0.589899 0.422510 0.200684
H46   H     H_    0.292709 0.598703 0.589643 0.121668
H47   H     H_    0.266841 0.089899 0.422510 0.200684
H48   H     H_    0.792709 0.098703 0.589643 0.121668
H49   H     H_    0.374033 0.933788 0.559037 0.184558
H50   H     H_    0.637502 0.070299 0.466950 0.138793
H51   H     H_    0.874033 0.433788 0.559037 0.184558
H52   H     H_    0.137502 0.570299 0.466950 0.138793
H53   H     H_    0.721321 0.246025 0.568346 0.179916
H54   H     H_    0.212410 0.279295 0.422067 0.141630
H55   H     H_    0.221321 0.746025 0.568346 0.179916
H56   H     H_    0.712410 0.779295 0.422067 0.141630
H57   H     H_    0.641407 0.367616 0.451986 0.182042
H58   H     H_    0.312777 0.279445 0.539263 0.166170
H59   H     H_    0.141407 0.867616 0.451986 0.182042
H60   H     H_    0.812777 0.779445 0.539263 0.166170
O1    O     O_R   0.783100 0.287550 0.345460 -0.558820
O2    O     O_R   0.216900 0.287550 0.654540 -0.549795
O3    O     O_R   0.283100 0.787550 0.345460 -0.558820
O4    O     O_R   0.716900 0.787550 0.654540 -0.549795
O5    O     O_R   0.554710 0.081900 0.170950 -0.473076
O6    O     O_R   0.445290 0.081900 0.829050 -0.482815
O7    O     O_R   0.054710 0.581900 0.170950 -0.473076
O8    O     O_R   0.945290 0.581900 0.829050 -0.482815
O9    O     O_R   0.545650 0.284910 0.163740 -0.522981
O10   O     O_R   0.454350 0.284910 0.836260 -0.537686
O11   O     O_R   0.045650 0.784910 0.163740 -0.522981
O12   O     O_R   0.954350 0.784910 0.836260 -0.537686
O13   O     O_R   0.677950 0.374280 0.185410 -0.508415
O14   O     O_R   0.322050 0.374280 0.814590 -0.495467
O15   O     O_R   0.177950 0.874280 0.185410 -0.508415
O16   O     O_R   0.822050 0.874280 0.814590 -0.495467
O17   O     O_3   0.664670 0.164660 0.254930 -0.311980
O18   O     O_3   0.335330 0.164660 0.745070 -0.278425
O19   O     O_3   0.164670 0.664660 0.254930 -0.311980
O20   O     O_3   0.835330 0.664660 0.745070 -0.278425
O21   O     O_R   0.760020 0.037400 0.337700 -0.457563
O22   O     O_R   0.239980 0.037400 0.662300 -0.466092
O23   O     O_R   0.260020 0.537400 0.337700 -0.457563
O24   O     O_R   0.739980 0.537400 0.662300 -0.466092
O25   O     O_R   0.666600 0.921990 0.332020 -0.518578
O26   O     O_R   0.333400 0.921990 0.667980 -0.539616
O27   O     O_R   0.166600 0.421990 0.332020 -0.518578
O28   O     O_R   0.833400 0.421990 0.667980 -0.539616
O29   O     O_R   0.557260 0.082670 0.312540 -0.536447
O30   O     O_R   0.442740 0.082670 0.687460 -0.525352
O31   O     O_R   0.057260 0.582670 0.312540 -0.536447
O32   O     O_R   0.942740 0.582670 0.687460 -0.525352
O33   O     O_R   0.548410 0.285740 0.316480 -0.473411
O34   O     O_R   0.451590 0.285740 0.683520 -0.484149
O35   O     O_R   0.048410 0.785740 0.316480 -0.473411
O36   O     O_R   0.951590 0.785740 0.683520 -0.484149
O37   O     O_R   0.680500 0.375040 0.327000 -0.520195
O38   O     O_R   0.319500 0.375040 0.673000 -0.503864
O39   O     O_R   0.180500 0.875040 0.327000 -0.520195
O40   O     O_R   0.819500 0.875040 0.673000 -0.503864
O41   O     O_R   0.780350 0.286720 0.192720 -0.532143
O42   O     O_R   0.219650 0.286720 0.807280 -0.530952
O43   O     O_R   0.280350 0.786720 0.192720 -0.532143
O44   O     O_R   0.719650 0.786720 0.807280 -0.530952
O45   O     O_R   0.757470 0.036630 0.196110 -0.482758
O46   O     O_R   0.242530 0.036630 0.803890 -0.500804
O47   O     O_R   0.257470 0.536630 0.196110 -0.482758
O48   O     O_R   0.742530 0.536630 0.803890 -0.500804
O49   O     O_R   0.663840 0.921160 0.179280 -0.499191
O50   O     O_R   0.336160 0.921160 0.820720 -0.505234
O51   O     O_R   0.163840 0.421160 0.179280 -0.499191
O52   O     O_R   0.836160 0.421160 0.820720 -0.505234
O53   O     O_3   0.564531 0.960771 0.042687 -0.527205
C97   C     C_3   0.603147 0.868390 0.015251 0.017029
H61   H     H_    0.631374 0.820608 0.058897 0.171694
H62   H     H_    0.639472 0.902446 0.980266 0.119495
C98   C     C_3   0.557320 0.773566 0.976739 -0.271615
H63   H     H_    0.527973 0.726693 0.013842 0.163378
H64   H     H_    0.521517 0.816080 0.936351 0.210827
C99   C     C_3   0.599079 0.679502 0.942958 -0.485568
H65   H     H_    0.627467 0.722277 0.903427 0.177312
H66   H     H_    0.564691 0.609749 0.917556 0.151031
H67   H     H_    0.635582 0.635094 0.982163 0.159063
O54   O     O_3   0.447452 0.989792 0.969069 -0.534687
C100  C     C_3   0.391994 0.931654 0.994823 0.019854
H68   H     H_    0.372091 0.868070 0.953987 0.186880
H69   H     H_    0.351403 0.995851 0.005128 0.108629
C101  C     C_3   0.412524 0.858782 0.061219 -0.268601
H70   H     H_    0.467665 0.862872 0.076627 0.236699
H71   H     H_    0.387995 0.898787 0.104423 0.133919
C102  C     C_3   0.391419 0.726163 0.054552 -0.454002
H72   H     H_    0.335415 0.717043 0.045922 0.170956
H73   H     H_    0.409736 0.677667 0.102641 0.157377
H74   H     H_    0.413388 0.682879 0.010847 0.140927
O55   O     O_3   0.064531 0.460771 0.042687 -0.527205
C103  C     C_3   0.103147 0.368390 0.015251 0.017029
H75   H     H_    0.131374 0.320608 0.058897 0.171694
H76   H     H_    0.139472 0.402446 0.980266 0.119495
C104  C     C_3   0.057320 0.273566 0.976739 -0.271614
H77   H     H_    0.027973 0.226693 0.013842 0.163378
H78   H     H_    0.021517 0.316080 0.936351 0.210827
C105  C     C_3   0.099079 0.179502 0.942958 -0.485568
H79   H     H_    0.127467 0.222277 0.903427 0.177312
H80   H     H_    0.064691 0.109749 0.917556 0.151031
H81   H     H_    0.135582 0.135094 0.982163 0.159063
O56   O     O_3   0.947452 0.489792 0.969069 -0.534687
C106  C     C_3   0.891994 0.431654 0.994823 0.019854
H82   H     H_    0.872091 0.368070 0.953987 0.186880
H83   H     H_    0.851403 0.495851 0.005128 0.108629
C107  C     C_3   0.912524 0.358782 0.061219 -0.268601
H84   H     H_    0.967665 0.362872 0.076627 0.236699
H85   H     H_    0.887995 0.398787 0.104423 0.133919
C108  C     C_3   0.891419 0.226163 0.054552 -0.454002
H86   H     H_    0.835415 0.217043 0.045922 0.170956
H87   H     H_    0.909736 0.177667 0.102641 0.157377
H88   H     H_    0.913388 0.182879 0.010847 0.140927
O57   O     O_3   0.366476 0.967134 0.439896 -0.566150
C109  C     C_3   0.409153 0.929546 0.390238 0.018111
H89   H     H_    0.398248 0.839303 0.367378 0.141438
H90   H     H_    0.461857 0.924823 0.416199 0.121062
C110  C     C_3   0.408314 0.022537 0.332044 -0.228286
H91   H     H_    0.421284 0.112335 0.353826 0.225853
H92   H     H_    0.446292 0.994828 0.297534 0.146807
C111  C     C_3   0.340889 0.034666 0.287566 -0.375566
H93   H     H_    0.346596 0.098752 0.244990 0.138694
H94   H     H_    0.300919 0.069503 0.317496 0.189132
H95   H     H_    0.325918 0.946908 0.264886 0.185086
O58   O     O_3   0.656769 0.071592 0.588575 -0.587126
C112  C     C_3   0.656810 0.065305 0.661180 0.012497
H96   H     H_    0.644910 0.157480 0.678153 0.192738
H97   H     H_    0.708015 0.047629 0.687794 0.134984
C113  C     C_3   0.602842 0.979992 0.685576 -0.275457
H98   H     H_    0.554402 0.989195 0.652231 0.170145
H99   H     H_    0.618063 0.885000 0.682299 0.184361
C114  C     C_3   0.591796 0.005236 0.760415 -0.441254
H100  H     H_    0.639929 0.992780 0.794489 0.158868
H101  H     H_    0.553125 0.942103 0.776856 0.157707
H102  H     H_    0.573717 0.098799 0.766240 0.156001
O59   O     O_3   0.866476 0.467134 0.439896 -0.566150
C115  C     C_3   0.909153 0.429546 0.390238 0.018111
H103  H     H_    0.898248 0.339303 0.367378 0.141437
H104  H     H_    0.961857 0.424823 0.416199 0.121062
C116  C     C_3   0.908314 0.522537 0.332044 -0.228285
H105  H     H_    0.921284 0.612335 0.353826 0.225853
H106  H     H_    0.946292 0.494828 0.297534 0.146806
C117  C     C_3   0.840889 0.534667 0.287566 -0.375567
H107  H     H_    0.825918 0.446908 0.264886 0.185086
H108  H     H_    0.846596 0.598751 0.244990 0.138694
H109  H     H_    0.800919 0.569503 0.317496 0.189132
O60   O     O_3   0.156769 0.571592 0.588575 -0.587126
C118  C     C_3   0.156810 0.565305 0.661180 0.012497
H110  H     H_    0.144910 0.657480 0.678153 0.192738
H111  H     H_    0.208015 0.547629 0.687794 0.134984
C119  C     C_3   0.102842 0.479992 0.685576 -0.275457
H112  H     H_    0.054402 0.489195 0.652231 0.170145
H113  H     H_    0.118063 0.385000 0.682299 0.184361
C120  C     C_3   0.091796 0.505236 0.760415 -0.441254
H114  H     H_    0.139929 0.492780 0.794489 0.158868
H115  H     H_    0.053124 0.442103 0.776856 0.157707
H116  H     H_    0.073717 0.598799 0.766240 0.156001
Br1   Br    Br    0.622081 0.377248 0.587397 -0.565603
Br2   Br    Br    0.335221 0.311985 0.405869 -0.571509
Br3   Br    Br    0.122081 0.877248 0.587397 -0.565603
Br4   Br    Br    0.835221 0.811985 0.405869 -0.571509

loop_
_geom_bond_atom_site_label_1
_geom_bond_atom_site_label_2
_ccdc_geom_bond_type
C37   O54   S    
C81   O41   A    
C106  H83   S    
C94   H38   S    
C116  H105  S    
Cr2   O22   S    
Cr3   O19   S    
C36   H20   S    
Cr1   O17   S    
Cr6   O18   S    
C72   O4    A    
C15   H55   S    
Cr4   O20   S    
C46   O30   A    
C105  H80   S    
C98   C99   S    
C5    H41   S    
C103  H75   S    
C37   C42   S    
C51   C80   S    
C55   C74   S    
C40   C43   S    
C35   C36   S    
C111  H93   S    
C6    C94   S    
Cr11  O39   S    
C105  H81   S    
C71   O39   A    
Cr2   O46   S    
C74   O46   A    
C42   H29   S    
Cr6   O26   S    
C41   C49   S    
C99   H65   S    
Cr12  O16   S    
C115  C116  S    
Cr7   O19   S    
Cr10  O18   S    
C21   C29   S    
C3    O27   A    
C23   C31   S    
C1    O25   A    
C24   C32   S    
C66   C82   S    
C11   C27   S    
C16   C20   S    
C12   C20   S    
C33   H17   S    
C48   C87   S    
C83   O15   A    
C32   H8    S    
C35   H19   S    
C80   O8    A    
C41   H30   S    
C31   H59   S    
C44   H31   S    
C110  H92   S    
C35   C51   S    
C79   O11   A    
O60   C118  S    
C50   C77   S    
C10   H52   S    
C11   H49   S    
C104  C105  S    
C4    O28   A    
C29   H5    S    
Cr4   O48   S    
C1    C20   S    
C56   C73   S    
Cr11  O11   S    
C2    C19   S    
Cr12  O20   S    
C2    O22   A    
Cr9   O9    S    
Cr10  O38   S    
C85   C90   T    
C57   C61   S    
C59   C63   S    
C103  C104  S    
C60   C64   S    
C10   C18   S    
C111  H95   S    
C75   O47   A    
C13   Br1   S    
C38   H26   S    
C5    C21   S    
C25   H13   S    
C99   H67   S    
C39   C51   S    
C67   C83   S    
Cr4   O4    S    
Cr5   O5    S    
Cr12  O40   S    
C72   O40   A    
Cr3   O43   S    
C49   C78   S    
Cr1   O41   S    
C38   O53   S    
C116  H106  S    
C36   H24   S    
C108  H86   S    
Cr5   O29   S    
C45   O29   A    
C101  H70   S    
C59   C67   T    
C53   C61   T    
C120  H115  S    
C55   C63   T    
C56   C64   T    
C52   C79   S    
C100  H68   S    
C36   C52   S    
C44   C52   S    
Cr1   O21   S    
C20   C96   S    
C112  H96   S    
C114  H102  S    
Cr8   O32   S    
C47   O31   A    
Cr4   O24   S    
Cr5   O17   S    
C31   H7    S    
C33   C34   S    
Cr8   O20   S    
C119  H113  S    
C84   O16   A    
C95   H39   S    
C113  H98   S    
C38   C41   S    
C91   C92   S    
C97   C98   S    
C77   O9    A    
C21   C69   S    
C115  H104  S    
Cr11  O35   S    
O53   C97   S    
C118  H111  S    
Cr9   O33   S    
C88   C91   T    
C74   O50   A    
C43   H32   S    
C102  H73   S    
C69   O1    A    
C97   H62   S    
C109  H90   S    
C42   C50   S    
C71   O3    A    
C17   C93   S    
C19   C95   S    
C24   C72   S    
C21   C25   S    
C22   C30   S    
C24   C28   S    
C109  C110  S    
C108  H88   S    
C28   H16   S    
C15   C31   S    
C39   C44   S    
C16   C32   S    
C82   O14   A    
C69   O37   A    
C101  C102  S    
C13   C17   S    
C107  H84   S    
C7    C23   S    
C8    C24   S    
C103  H76   S    
C100  C101  S    
Cr6   O50   S    
C54   C75   S    
Cr2   O2    S    
O58   C112  S    
C111  H94   S    
C112  C113  S    
C114  H100  S    
C12   H50   S    
C87   C92   T    
C22   C70   S    
C93   H1    S    
C82   O42   A    
C1    O21   A    
C58   C62   S    
C4    O24   A    
C43   H35   S    
C102  H72   S    
C113  C114  S    
C99   H66   S    
C9    C25   S    
C39   H27   S    
C15   C19   S    
C40   H28   S    
C11   C19   S    
C12   C28   S    
C13   C29   S    
C14   Br2   S    
C117  H107  S    
C33   C49   S    
O55   C103  S    
C6    C22   S    
C29   H57   S    
C46   C85   S    
C106  C107  S    
Cr1   O45   S    
C110  H91   S    
C73   O45   A    
Cr7   O27   S    
Cr5   O25   S    
C104  H78   S    
C96   H40   S    
C68   C84   S    
C23   C71   S    
C117  H109  S    
Cr8   O8    S    
C54   C62   T    
C105  H79   S    
C94   H2    S    
C16   H56   S    
C2    O26   A    
C14   H54   S    
C118  H110  S    
O56   C106  S    
C37   C49   S    
C76   O48   A    
C65   C81   S    
O59   C115  S    
C34   H18   S    
Cr7   O7    S    
Cr8   O28   S    
C47   O35   A    
C6    H46   S    
C7    H43   S    
C4    C17   S    
C53   C76   S    
C70   O38   A    
C35   H23   S    
C30   H6    S    
C33   H21   S    
C48   O36   A    
C77   O5    A    
C8    H44   S    
C78   O10   A    
C57   C65   T    
C86   C89   T    
C84   O44   A    
Cr9   O37   S    
C70   O2    A    
Cr2   O18   S    
C115  H103  S    
Cr3   O23   S    
C43   C51   S    
C27   O57   S    
C76   O52   A    
O54   C100  S    
C96   H4    S    
C101  H71   S    
C45   C86   S    
C40   O55   S    
C6    H42   S    
C46   O34   A    
C7    H47   S    
C60   C68   T    
C120  H114  S    
C22   C26   S    
C110  C111  S    
C26   H14   S    
C89   C90   S    
Cr7   O51   S    
C16   Br4   S    
C25   O59   S    
C114  H101  S    
C9    H9    S    
C14   C18   S    
C8    C96   S    
C81   O13   A    
C11   H11   S    
C39   O56   S    
Cr2   O42   S    
C119  C120  S    
C26   O60   S    
C80   O12   A    
C113  H99   S    
Cr6   O30   S    
C28   O58   S    
Cr3   O3    S    
C9    H51   S    
Cr11  O19   S    
Cr1   O1    S    
Cr12  O12   S    
C3    C18   S    
Cr9   O17   S    
Cr8   O52   S    
C98   H64   S    
C12   H12   S    
C58   C66   T    
Cr10  O14   S    
C42   H34   S    
C93   H37   S    
C75   O51   A    
O57   C109  S    
C10   C26   S    
C14   C30   S    
C118  C119  S    
C34   C50   S    
C79   O7    A    
C116  C117  S    
C30   H58   S    
C108  H87   S    
C27   H15   S    
C40   C52   S    
Cr4   O44   S    
Cr11  O15   S    
C107  H85   S    
C41   H33   S    
C10   H10   S    
C3    O23   A    
Cr10  O34   S    
C44   H36   S    
C120  H116  S    
C98   H63   S    
C73   O49   A    
Cr7   O31   S    
C100  H69   S    
C34   H22   S    
C9    C17   S    
C23   C27   S    
C112  H97   S    
C18   C94   S    
C37   H25   S    
C107  C108  S    
C106  H82   S    
C119  H112  S    
C5    C93   S    
C104  H77   S    
C13   H53   S    
C38   C50   S    
Cr6   O6    S    
C7    C95   S    
Cr9   O13   S    
C47   C88   S    
C32   H60   S    
Cr12  O36   S    
C95   H3    S    
C117  H108  S    
Cr3   O47   S    
C5    H45   S    
Cr10  O10   S    
C102  H74   S    
C97   H61   S    
C8    H48   S    
C109  H89   S    
Cr5   O49   S    
C48   O32   A    
C45   O33   A    
C78   O6    A    
C83   O43   A    
C15   Br3   S    
