data_mof_unit_pretest_525.cif
_audit_creation_date              2012-10-26T20:55:12-0400
_audit_creation_method            fapswitch 2.2
_symmetry_space_group_name_H-M    P1
_symmetry_Int_Tables_number       1
_space_group_crystal_system       triclinic
_cell_length_a                    10.773082
_cell_length_b                    15.804426
_cell_length_c                    17.157901
_cell_angle_alpha                 96.443471
_cell_angle_beta                  90.240928
_cell_angle_gamma                 93.225472
_cell_volume                      2898.12951494

loop_
_atom_site_label
_atom_site_type_symbol
_atom_type_description
_atom_site_fract_x
_atom_site_fract_y
_atom_site_fract_z
_atom_type_partial_charge
C1    C     C_R   0.499670 0.489569 0.348764 0.566764
C2    C     C_R   0.462346 0.408920 0.217135 -0.183503
C3    C     C_R   0.446117 0.458021 0.860909 -0.072928
C4    C     C_R   0.259529 0.499390 0.498476 0.577041
C5    C     C_R   0.438892 0.452430 0.779232 0.190173
C6    C     C_R   0.508167 0.527803 0.904657 0.122665
C7    C     C_R   0.500264 0.517281 0.739189 -0.025437
C8    C     C_R   0.562080 0.588814 0.785077 0.194721
C9    C     C_R   0.562070 0.593193 0.866722 -0.093972
C10   C     C_R   0.420175 0.753217 0.480613 0.002254
C11   C     C_R   0.428574 0.842027 0.479316 -0.172497
C12   C     C_3   0.877952 0.499918 0.497483 0.013792
C13   C     C_R   0.536669 0.890387 0.507778 0.248212
C14   C     C_R   0.633670 0.847525 0.538667 0.257488
C15   C     C_R   0.620700 0.757302 0.537511 0.063047
C16   C     C_R   0.500143 0.510609 0.651969 0.616711
C17   C     C_R   0.550797 0.163467 0.546234 0.268060
C18   C     C_R   0.554830 0.252354 0.543028 0.071902
C19   C     C_R   0.475414 0.109341 0.490578 0.200618
C20   C     C_R   0.413262 0.237443 0.436475 -0.017905
C21   C     C_R   0.406289 0.148397 0.436293 -0.189151
C22   C     C_R   0.740298 0.500152 0.499368 0.600990
C23   C     C_3   0.933680 0.550164 0.573596 -0.293453
C24   C     C_3   0.062071 0.405046 0.493823 0.145154
C25   C     C_3   0.919330 0.407235 0.494368 -0.201038
C26   C     C_3   0.076774 0.550639 0.572342 -0.301626
C27   C     C_3   0.076170 0.538938 0.424030 -0.207959
C28   C     C_3   0.121465 0.498110 0.496713 0.035409
C29   C     C_3   0.741858 0.612199 0.111411 -0.013053
C30   C     C_3   0.801032 0.685476 0.071604 -0.342010
C31   C     C_3   0.086588 0.266269 0.435920 -0.023171
C32   C     C_3   0.086652 0.213837 0.355958 -0.375780
C33   C     C_3   0.802796 0.863188 0.626162 -0.005560
C34   C     C_3   0.931148 0.542983 0.426017 0.150046
C35   C     C_3   0.892141 0.932232 0.667005 -0.311651
C36   C     C_3   0.912514 0.454499 0.302148 -0.019031
C37   C     C_3   0.810052 0.410516 0.248530 -0.372341
C38   C     C_R   0.503286 0.484122 0.263271 -0.037286
C39   C     C_R   0.550932 0.554127 0.227395 -0.129015
C40   C     C_R   0.559032 0.549461 0.145948 0.285840
C41   C     C_R   0.510333 0.474936 0.099163 0.221846
C42   C     C_R   0.465328 0.404795 0.135737 -0.155342
Cu1   Cu    Cu3+1 0.493900 0.415220 0.496180 0.996580
Cu2   Cu    Cu3+1 0.506100 0.584780 0.503820 1.018963
H1    H     H_    0.091858 0.378819 0.548106 0.136669
H2    H     H_    0.612821 0.294171 0.584077 0.180497
H3    H     H_    0.695664 0.722710 0.557528 0.155493
H4    H     H_    0.360746 0.266465 0.393862 0.146544
H5    H     H_    0.351825 0.872088 0.454854 0.130935
H6    H     H_    0.346690 0.109689 0.393672 0.117956
H7    H     H_    0.337923 0.717104 0.456610 0.133362
H8    H     H_    0.876892 0.367447 0.442541 0.158739
H9    H     H_    0.883859 0.377950 0.546676 0.105247
H10   H     H_    0.110755 0.523669 0.625169 0.175464
H11   H     H_    0.898437 0.520805 0.625843 0.175635
H12   H     H_    0.914774 0.612070 0.439204 0.140059
H13   H     H_    0.118489 0.605041 0.425554 0.083982
H14   H     H_    0.112667 0.503897 0.370291 0.137447
H15   H     H_    0.251094 0.336915 0.622262 0.360502
H16   H     H_    0.676662 0.778554 0.837674 0.346509
H17   H     H_    0.766888 0.551188 0.077618 0.146647
H18   H     H_    0.781055 0.616239 0.172013 0.130776
H19   H     H_    0.778518 0.747390 0.104163 0.165544
H20   H     H_    0.903577 0.681316 0.070579 0.112687
H21   H     H_    0.765805 0.682313 0.010386 0.178704
H22   H     H_    0.997781 0.249381 0.465031 0.137341
H23   H     H_    0.115705 0.617717 0.575553 0.148698
H24   H     H_    0.164583 0.248598 0.472199 0.153034
H25   H     H_    0.172024 0.229874 0.323450 0.146990
H26   H     H_    0.082735 0.144833 0.363337 0.117074
H27   H     H_    0.004314 0.227395 0.321204 0.150733
H28   H     H_    0.607251 0.024026 0.696400 0.364725
H29   H     H_    0.858413 0.808901 0.602994 0.130418
H30   H     H_    0.735847 0.842961 0.670736 0.197051
H31   H     H_    0.839824 0.986402 0.693962 0.196743
H32   H     H_    0.944345 0.905973 0.713898 0.124111
H33   H     H_    0.959280 0.955535 0.624186 0.186435
H34   H     H_    0.905193 0.617137 0.579234 0.162507
H35   H     H_    0.955674 0.404638 0.331476 0.181900
H36   H     H_    0.982319 0.485063 0.265078 0.137200
H37   H     H_    0.769474 0.457195 0.213516 0.149549
H38   H     H_    0.848817 0.359274 0.207760 0.106765
H39   H     H_    0.736088 0.381833 0.283900 0.172999
H40   H     H_    0.401068 0.408245 0.890999 0.194105
H41   H     H_    0.430485 0.346964 0.100727 0.143353
H42   H     H_    0.425994 0.353903 0.243924 0.139393
H43   H     H_    0.607272 0.647317 0.902032 0.167096
H44   H     H_    0.585561 0.612004 0.262482 0.155020
N1    N     N_2   0.504660 0.466880 0.016006 -0.239629
N2    N     N_2   0.515269 0.535977 0.987515 -0.159724
N3    N     N_R   0.515260 0.712130 0.509560 -0.242772
N4    N     N_2   0.553030 0.981233 0.506139 -0.094497
N5    N     N_2   0.458170 0.018215 0.489731 -0.231229
N6    N     N_R   0.484730 0.287850 0.490450 -0.268735
O1    O     O_R   0.494300 0.420530 0.382500 -0.510406
O2    O     O_2   0.261931 0.326440 0.789535 -0.256894
O3    O     O_3   0.265192 0.390591 0.657675 -0.540923
O4    O     O_2   0.729526 0.639377 0.681919 -0.309897
O5    O     O_2   0.553632 0.729070 0.711355 -0.303360
O6    O     O_3   0.731727 0.734482 0.814508 -0.533823
O7    O     O_3   0.611688 0.618728 0.113036 -0.531154
O8    O     O_3   0.100814 0.353976 0.425865 -0.579187
O9    O     O_2   0.750703 0.086969 0.588380 -0.273318
O10   O     O_2   0.673901 0.197499 0.684457 -0.258993
O11   O     O_3   0.548416 0.051600 0.664109 -0.464890
O12   O     O_R   0.504600 0.563720 0.388950 -0.506566
O13   O     O_3   0.741701 0.895863 0.563842 -0.527492
O14   O     O_3   0.861146 0.517538 0.355375 -0.567277
O15   O     O_R   0.312540 0.428400 0.496760 -0.462228
O16   O     O_R   0.322840 0.571590 0.503210 -0.534492
O17   O     O_R   0.495400 0.436280 0.611050 -0.459162
O18   O     O_R   0.505700 0.579470 0.617500 -0.421061
O19   O     O_R   0.677160 0.428410 0.496790 -0.528767
O20   O     O_R   0.687460 0.571600 0.503240 -0.501090
O21   O     O_2   0.436244 0.296071 0.702349 -0.243986
S1    S     S_3+6 0.349437 0.363100 0.732360 0.032771
S2    S     S_3+6 0.644688 0.674110 0.745309 -0.018707
S3    S     S_3+6 0.635856 0.125582 0.622575 0.050282

loop_
_geom_bond_atom_site_label_1
_geom_bond_atom_site_label_2
_ccdc_geom_bond_type
C31   H22   S    
C41   N1    S    
C4    O15   A    
C34   H12   S    
C30   H20   S    
C36   O14   S    
C41   C42   A    
C33   O13   S    
C15   H3    S    
C3    C6    A    
C6    C9    A    
C7    C8    A    
C12   C23   S    
C35   H31   S    
C26   H23   S    
C36   C37   S    
C19   C21   A    
C25   H9    S    
C38   C39   A    
O21   S1    D    
C26   H10   S    
Cu1   N6    S    
C23   C26   S    
C4    O16   A    
C17   C19   A    
C40   O7    S    
C22   O19   A    
C8    C9    A    
Cu1   O1    S    
C19   N5    S    
C1    O12   A    
Cu2   O20   S    
C13   C14   A    
C37   H37   S    
Cu1   O17   S    
C39   H44   S    
C10   H7    S    
C18   H2    S    
C21   H6    S    
C4    C28   S    
C8    S2    S    
C32   H27   S    
O10   S3    D    
C27   C34   S    
C31   H24   S    
C29   H17   S    
C35   H32   S    
C31   O8    S    
C24   C25   S    
C36   H36   S    
O2    S1    D    
C39   C40   A    
C5    C7    A    
C32   H26   S    
C3    C5    A    
C6    N2    S    
C35   H33   S    
Cu1   Cu2   S    
C29   C30   S    
C11   H5    S    
C2    C42   A    
O5    S2    D    
C2    C38   A    
C31   C32   S    
C1    O1    A    
C17   C18   A    
C29   O7    S    
C42   H41   S    
H28   O11   S    
O3    S1    S    
C20   H4    S    
Cu2   N3    S    
C1    C38   S    
Cu2   O18   S    
C33   H29   S    
C14   O13   S    
C10   N3    A    
C13   N4    S    
C27   H13   S    
H15   O3    S    
C12   C22   S    
C37   H38   S    
O9    S3    D    
C24   H1    S    
C12   C34   S    
C3    H40   S    
C16   O18   A    
O4    S2    D    
C20   N6    A    
C29   H18   S    
C40   C41   A    
C7    C16   S    
C24   C28   S    
H16   O6    S    
C36   H35   S    
C23   H11   S    
C32   H25   S    
Cu2   O12   S    
C26   C28   S    
C12   C25   S    
C34   O14   S    
C25   H8    S    
C5    S1    S    
Cu1   O19   S    
C11   C13   A    
C27   H14   S    
C18   N6    A    
N4    N5    D    
C33   C35   S    
C2    H42   S    
C24   O8    S    
C23   H34   S    
O11   S3    S    
C30   H21   S    
C10   C11   A    
C15   N3    A    
C33   H30   S    
C22   O20   A    
C20   C21   A    
C27   C28   S    
C17   S3    S    
C14   C15   A    
C37   H39   S    
O6    S2    S    
Cu1   O15   S    
N1    N2    D    
C30   H19   S    
C9    H43   S    
C16   O17   A    
Cu2   O16   S    
