data_mof_unit_pretest_1769.cif
_audit_creation_date              2012-12-10T18:21:49-0500
_audit_creation_method            fapswitch 2.2
_symmetry_space_group_name_H-M    P1
_symmetry_Int_Tables_number       1
_space_group_crystal_system       monoclinic
_cell_length_a                    35.704004
_cell_length_b                    35.704006
_cell_length_c                    29.362553
_cell_angle_alpha                 89.999982
_cell_angle_beta                  90.0
_cell_angle_gamma                 90.0
_cell_volume                      37430.6770715

loop_
_atom_site_label
_atom_site_type_symbol
_atom_type_description
_atom_site_fract_x
_atom_site_fract_y
_atom_site_fract_z
_atom_type_partial_charge
C1    C     C_R   0.000000 0.427624 0.500000 0.858094
C2    C     C_R   0.427624 0.000000 0.500000 0.858097
C3    C     C_R   0.000000 0.572376 0.500000 0.858098
C4    C     C_R   0.572376 0.000000 0.500000 0.858098
C5    C     C_R   0.500000 0.927624 0.000000 0.858098
C6    C     C_R   0.927624 0.500000 0.000000 0.858098
C7    C     C_R   0.500000 0.072376 0.000000 0.858096
C8    C     C_R   0.072376 0.500000 0.000000 0.858096
C9    C     C_1   1.000000 0.233363 0.500000 0.045660
C10   C     C_1   0.233363 0.000000 0.500000 0.045660
C11   C     C_1   0.000000 0.766637 0.500000 0.045660
C12   C     C_1   0.766637 0.000000 0.500000 0.045660
C13   C     C_1   0.500000 0.733363 1.000000 0.045660
C14   C     C_1   0.733363 0.500000 0.000000 0.045660
C15   C     C_1   0.500000 0.266637 0.000000 0.045660
C16   C     C_1   0.266637 0.500000 0.000000 0.045660
C17   C     C_1   0.000000 0.267053 0.500000 0.044102
C18   C     C_1   0.267053 0.000000 0.500000 0.044102
C19   C     C_1   0.000000 0.732947 0.500000 0.044102
C20   C     C_1   0.732947 0.000000 0.500000 0.044102
C21   C     C_1   0.500000 0.767053 1.000000 0.044102
C22   C     C_1   0.767053 0.500000 0.000000 0.044102
C23   C     C_1   0.500000 0.232947 0.000000 0.044102
C24   C     C_1   0.232947 0.500000 0.000000 0.044102
C25   C     C_R   0.033343 0.326782 0.507252 -0.210035
C26   C     C_R   0.326782 0.966657 0.507255 -0.210036
C27   C     C_R   0.966657 0.673218 0.507257 -0.210035
C28   C     C_R   0.673218 0.033342 0.507257 -0.210035
C29   C     C_R   0.033342 0.673218 0.492743 -0.210034
C30   C     C_R   0.326782 0.033343 0.492745 -0.210036
C31   C     C_R   0.966657 0.326782 0.492748 -0.210036
C32   C     C_R   0.673218 0.966657 0.492743 -0.210035
C33   C     C_R   0.533342 0.826782 0.007257 -0.210035
C34   C     C_R   0.826782 0.466657 0.007257 -0.210035
C35   C     C_R   0.466657 0.173218 0.007255 -0.210035
C36   C     C_R   0.173218 0.533343 0.007256 -0.210035
C37   C     C_R   0.533343 0.173218 0.992745 -0.210035
C38   C     C_R   0.826782 0.533342 0.992743 -0.210035
C39   C     C_R   0.466658 0.826782 0.992743 -0.210035
C40   C     C_R   0.173218 0.466657 0.992744 -0.210035
C41   C     C_R   0.033519 0.365897 0.507285 0.565150
C42   C     C_R   0.365897 0.966482 0.507288 0.565149
C43   C     C_R   0.966482 0.634103 0.507289 0.565148
C44   C     C_R   0.634103 0.033518 0.507289 0.565149
C45   C     C_R   0.033518 0.634103 0.492711 0.565148
C46   C     C_R   0.365897 0.033518 0.492712 0.565149
C47   C     C_R   0.966481 0.365897 0.492715 0.565150
C48   C     C_R   0.634103 0.966482 0.492711 0.565149
C49   C     C_R   0.533518 0.865897 0.007289 0.565149
C50   C     C_R   0.865897 0.466482 0.007289 0.565149
C51   C     C_R   0.466482 0.134103 0.007287 0.565151
C52   C     C_R   0.134103 0.533518 0.007288 0.565149
C53   C     C_R   0.533518 0.134103 0.992713 0.565151
C54   C     C_R   0.865897 0.533518 0.992711 0.565149
C55   C     C_R   0.466482 0.865897 0.992711 0.565149
C56   C     C_R   0.134103 0.466482 0.992712 0.565149
C57   C     C_R   0.000000 0.386068 0.500000 -0.311498
C58   C     C_R   0.386068 0.000000 0.500000 -0.311497
C59   C     C_R   0.000000 0.613932 0.500000 -0.311497
C60   C     C_R   0.613932 0.000000 0.500000 -0.311497
C61   C     C_R   0.500000 0.886068 1.000000 -0.311497
C62   C     C_R   0.886068 0.500000 0.000000 -0.311497
C63   C     C_R   0.500000 0.113932 0.000000 -0.311497
C64   C     C_R   0.113932 0.500000 0.000000 -0.311498
C65   C     C_R   0.000000 0.307235 0.500000 -0.064242
C66   C     C_R   0.307235 0.000000 0.500000 -0.064241
C67   C     C_R   0.000000 0.692765 0.500000 -0.064241
C68   C     C_R   0.692765 0.000000 0.500000 -0.064241
C69   C     C_R   0.500000 0.807235 1.000000 -0.064241
C70   C     C_R   0.807235 0.500000 0.000000 -0.064241
C71   C     C_R   0.500000 0.192765 0.000000 -0.064242
C72   C     C_R   0.192765 0.500000 0.000000 -0.064241
C73   C     C_R   0.072941 0.000000 0.500000 0.875605
C74   C     C_R   1.000000 0.927059 0.500000 0.875606
C75   C     C_R   0.927059 1.000000 0.500000 0.875605
C76   C     C_R   0.000000 0.072941 0.500000 0.875605
C77   C     C_R   0.572941 0.500000 0.000000 0.875605
C78   C     C_R   0.500000 0.427059 0.000000 0.875606
C79   C     C_R   0.427059 0.500000 0.000000 0.875606
C80   C     C_R   0.500000 0.572941 0.000000 0.875605
C81   C     C_R   1.000000 0.500000 0.415276 0.776148
C82   C     C_R   0.500000 1.000000 0.415276 0.776149
C83   C     C_R   0.000000 0.500000 0.584724 0.776147
C84   C     C_R   0.500000 0.000000 0.584724 0.776148
C85   C     C_R   0.500000 1.000000 0.915276 0.776149
C86   C     C_R   0.000000 0.500000 0.915276 0.776149
C87   C     C_R   0.500000 1.000000 0.084724 0.776148
C88   C     C_R   0.000000 0.500000 0.084724 0.776148
C89   C     C_1   0.000000 0.500000 0.364040 -0.140806
C90   C     C_1   0.500000 1.000000 0.364040 -0.140806
C91   C     C_1   0.000000 0.500000 0.635960 -0.140807
C92   C     C_1   0.500000 1.000000 0.635960 -0.140806
C93   C     C_1   0.500000 0.000000 0.864040 -0.140806
C94   C     C_1   0.000000 0.500000 0.864040 -0.140806
C95   C     C_1   0.500000 1.000000 0.135960 -0.140806
C96   C     C_1   0.000000 0.500000 0.135960 -0.140806
C97   C     C_1   0.000000 0.500000 0.321580 0.029529
C98   C     C_1   0.500000 1.000000 0.321580 0.029529
C99   C     C_1   0.000000 0.500000 0.678420 0.029529
C100  C     C_1   0.500000 1.000000 0.678420 0.029529
C101  C     C_1   0.500000 0.000000 0.821580 0.029529
C102  C     C_1   0.000000 0.500000 0.821580 0.029529
C103  C     C_1   0.500000 1.000000 0.178420 0.029529
C104  C     C_1   1.000000 0.500000 0.178420 0.029529
C105  C     C_1   0.000000 0.500000 0.271230 0.033443
C106  C     C_1   0.500000 1.000000 0.271230 0.033443
C107  C     C_1   0.000000 0.500000 0.728770 0.033443
C108  C     C_1   0.500000 1.000000 0.728770 0.033443
C109  C     C_1   0.500000 1.000000 0.771230 0.033443
C110  C     C_1   0.000000 0.500000 0.771230 0.033443
C111  C     C_1   0.500000 1.000000 0.228770 0.033443
C112  C     C_1   0.000000 0.500000 0.228770 0.033443
C113  C     C_R   0.000047 0.173631 0.541205 -0.208398
C114  C     C_R   0.173631 0.999960 0.541205 -0.208399
C115  C     C_R   0.999954 0.826369 0.541205 -0.208399
C116  C     C_R   0.826369 0.000057 0.541205 -0.208399
C117  C     C_R   0.000046 0.826369 0.458795 -0.208399
C118  C     C_R   0.173631 0.000040 0.458795 -0.208399
C119  C     C_R   0.999953 0.173631 0.458795 -0.208399
C120  C     C_R   0.826369 0.999943 0.458795 -0.208399
C121  C     C_R   0.500048 0.673631 0.041205 -0.208399
C122  C     C_R   0.673631 0.499952 0.041205 -0.208399
C123  C     C_R   0.499953 0.326369 0.041205 -0.208399
C124  C     C_R   0.326369 0.500048 0.041205 -0.208398
C125  C     C_R   0.500047 0.326369 0.958795 -0.208399
C126  C     C_R   0.673631 0.500047 0.958795 -0.208399
C127  C     C_R   0.499952 0.673631 0.958795 -0.208400
C128  C     C_R   0.326369 0.499952 0.958795 -0.208399
C129  C     C_R   0.000047 0.134515 0.541400 0.570597
C130  C     C_R   0.134515 0.999961 0.541400 0.570592
C131  C     C_R   0.999954 0.865485 0.541400 0.570586
C132  C     C_R   0.865485 0.000057 0.541400 0.570591
C133  C     C_R   0.000046 0.865485 0.458600 0.570598
C134  C     C_R   0.134515 0.000039 0.458600 0.570592
C135  C     C_R   0.999953 0.134515 0.458600 0.570587
C136  C     C_R   0.865485 0.999943 0.458600 0.570592
C137  C     C_R   0.500047 0.634514 0.041400 0.570592
C138  C     C_R   0.634514 0.499953 0.041400 0.570592
C139  C     C_R   0.499953 0.365485 0.041400 0.570592
C140  C     C_R   0.365485 0.500047 0.041400 0.570591
C141  C     C_R   0.500046 0.365485 0.958600 0.570592
C142  C     C_R   0.634514 0.500047 0.958600 0.570592
C143  C     C_R   0.499953 0.634515 0.958600 0.570592
C144  C     C_R   0.365485 0.499953 0.958600 0.570592
C145  C     C_R   1.000000 0.114412 0.500000 -0.315753
C146  C     C_R   0.114412 0.000000 0.500000 -0.315752
C147  C     C_R   0.000000 0.885588 0.500000 -0.315753
C148  C     C_R   0.885588 1.000000 0.500000 -0.315755
C149  C     C_R   0.500000 0.614412 1.000000 -0.315752
C150  C     C_R   0.614412 0.500000 0.000000 -0.315753
C151  C     C_R   0.500000 0.385588 0.000000 -0.315753
C152  C     C_R   0.385588 0.500000 0.000000 -0.315752
C153  C     C_R   0.000000 0.193181 0.500000 -0.065862
C154  C     C_R   0.193181 0.000000 0.500000 -0.065862
C155  C     C_R   0.000000 0.806819 0.500000 -0.065861
C156  C     C_R   0.806819 0.000000 0.500000 -0.065861
C157  C     C_R   0.500000 0.693181 1.000000 -0.065862
C158  C     C_R   0.693181 0.500000 0.000000 -0.065862
C159  C     C_R   0.500000 0.306819 0.000000 -0.065862
C160  C     C_R   0.306819 0.500000 0.000000 -0.065862
Cu1   Cu    Cu3+1 0.962730 0.500000 0.500000 1.106473
Cu2   Cu    Cu3+1 0.500000 0.037270 0.500000 1.106472
Cu3   Cu    Cu3+1 0.037270 0.500000 0.500000 1.106473
Cu4   Cu    Cu3+1 0.500000 0.962730 0.500000 1.106473
Cu5   Cu    Cu3+1 0.462730 0.000000 0.000000 1.106473
Cu6   Cu    Cu3+1 0.000000 0.537270 0.000000 1.106472
Cu7   Cu    Cu3+1 0.537270 0.000000 0.000000 1.106472
Cu8   Cu    Cu3+1 0.000000 0.462730 0.000000 1.106473
Cu9   Cu    Cu3+1 0.000000 1.000000 0.457530 1.197056
Cu10  Cu    Cu3+1 0.000000 1.000000 0.542470 1.197055
Cu11  Cu    Cu3+1 0.500000 0.500000 0.957530 1.197056
Cu12  Cu    Cu3+1 0.500000 0.500000 0.042470 1.197055
H1    H     H_    0.000085 0.188675 0.573260 0.191257
H2    H     H_    0.188675 0.999929 0.573260 0.191257
H3    H     H_    0.999917 0.811324 0.573260 0.191256
H4    H     H_    0.811324 0.000103 0.573261 0.191257
H5    H     H_    0.000083 0.811324 0.426740 0.191257
H6    H     H_    0.188675 0.000071 0.426740 0.191257
H7    H     H_    0.999915 0.188675 0.426740 0.191257
H8    H     H_    0.811324 0.999897 0.426739 0.191257
H9    H     H_    0.500086 0.688675 0.073260 0.191257
H10   H     H_    0.688675 0.499914 0.073260 0.191257
H11   H     H_    0.499916 0.311324 0.073260 0.191257
H12   H     H_    0.311324 0.500086 0.073260 0.191257
H13   H     H_    0.500084 0.311324 0.926740 0.191257
H14   H     H_    0.688675 0.500085 0.926740 0.191257
H15   H     H_    0.499914 0.688675 0.926740 0.191257
H16   H     H_    0.311324 0.499914 0.926740 0.191257
H17   H     H_    0.059278 0.311730 0.512974 0.190290
H18   H     H_    0.311730 0.940723 0.512979 0.190290
H19   H     H_    0.940723 0.688270 0.512982 0.190290
H20   H     H_    0.688270 0.059277 0.512982 0.190290
H21   H     H_    0.059277 0.688270 0.487018 0.190290
H22   H     H_    0.311730 0.059277 0.487021 0.190290
H23   H     H_    0.940722 0.311730 0.487026 0.190290
H24   H     H_    0.688270 0.940723 0.487018 0.190290
H25   H     H_    0.559277 0.811730 0.012982 0.190290
H26   H     H_    0.811730 0.440723 0.012982 0.190290
H27   H     H_    0.440722 0.188270 0.012978 0.190290
H28   H     H_    0.188270 0.559277 0.012979 0.190290
H29   H     H_    0.559277 0.188270 0.987022 0.190290
H30   H     H_    0.811730 0.559277 0.987018 0.190290
H31   H     H_    0.440723 0.811730 0.987018 0.190290
H32   H     H_    0.188270 0.440723 0.987021 0.190290
O1    O     O_R   0.968530 0.445640 0.500010 -0.519378
O2    O     O_R   0.445640 0.031470 0.500010 -0.519380
O3    O     O_R   0.031470 0.554360 0.500010 -0.519381
O4    O     O_R   0.554360 0.968530 0.500010 -0.519380
O5    O     O_R   0.968530 0.554360 0.499990 -0.519380
O6    O     O_R   0.445640 0.968530 0.499990 -0.519379
O7    O     O_R   0.031470 0.445640 0.499990 -0.519379
O8    O     O_R   0.554360 0.031470 0.499990 -0.519381
O9    O     O_R   0.468530 0.945640 0.000010 -0.519380
O10   O     O_R   0.945640 0.531470 0.000010 -0.519381
O11   O     O_R   0.531470 0.054360 0.000010 -0.519380
O12   O     O_R   0.054360 0.468530 0.000010 -0.519379
O13   O     O_R   0.468530 0.054360 0.999990 -0.519379
O14   O     O_R   0.945640 0.468530 0.999990 -0.519380
O15   O     O_R   0.531470 0.945640 0.999990 -0.519381
O16   O     O_R   0.054360 0.531470 0.999990 -0.519380
O17   O     O_R   0.968530 0.500000 0.438040 -0.557343
O18   O     O_R   0.500000 0.031470 0.438040 -0.557342
O19   O     O_R   0.031470 0.500000 0.438040 -0.557340
O20   O     O_R   0.500000 0.968530 0.438040 -0.557340
O21   O     O_R   0.968530 0.500000 0.561960 -0.557339
O22   O     O_R   0.500000 0.968530 0.561960 -0.557342
O23   O     O_R   0.031470 0.500000 0.561960 -0.557344
O24   O     O_R   0.500000 0.031470 0.561960 -0.557341
O25   O     O_R   0.468530 1.000000 0.938040 -0.557340
O26   O     O_R   0.000000 0.531470 0.938040 -0.557341
O27   O     O_R   0.531470 1.000000 0.938040 -0.557343
O28   O     O_R   0.000000 0.468530 0.938040 -0.557342
O29   O     O_R   0.468530 1.000000 0.061960 -0.557342
O30   O     O_R   1.000000 0.468530 0.061960 -0.557341
O31   O     O_R   0.531470 1.000000 0.061960 -0.557341
O32   O     O_R   1.000000 0.531470 0.061960 -0.557342
O33   O     O_R   0.054260 0.999990 0.464160 -0.532175
O34   O     O_R   0.999990 0.945740 0.464160 -0.532167
O35   O     O_R   0.945740 0.000010 0.464160 -0.532174
O36   O     O_R   0.000010 0.054260 0.464160 -0.532183
O37   O     O_R   0.054260 0.000010 0.535840 -0.532175
O38   O     O_R   0.999990 0.054260 0.535840 -0.532168
O39   O     O_R   0.945740 0.999990 0.535840 -0.532176
O40   O     O_R   0.000010 0.945740 0.535840 -0.532183
O41   O     O_R   0.554260 0.499990 0.964160 -0.532175
O42   O     O_R   0.499990 0.445740 0.964160 -0.532174
O43   O     O_R   0.445740 0.500010 0.964160 -0.532174
O44   O     O_R   0.500010 0.554260 0.964160 -0.532175
O45   O     O_R   0.554260 0.500010 0.035840 -0.532175
O46   O     O_R   0.499990 0.554260 0.035840 -0.532175
O47   O     O_R   0.445740 0.499990 0.035840 -0.532175
O48   O     O_R   0.500010 0.445740 0.035840 -0.532175
F1    F     F_    0.000096 0.116527 0.582129 -0.606863
F2    F     F_    0.116527 0.999919 0.582129 -0.606868
F3    F     F_    0.999907 0.883473 0.582129 -0.606873
F4    F     F_    0.883473 0.000116 0.582129 -0.606868
F5    F     F_    0.000093 0.883473 0.417871 -0.606863
F6    F     F_    0.116527 0.000080 0.417871 -0.606869
F7    F     F_    0.999904 0.116527 0.417871 -0.606874
F8    F     F_    0.883473 0.999884 0.417871 -0.606867
F9    F     F_    0.500097 0.616527 0.082129 -0.606868
F10   F     F_    0.616527 0.499903 0.082129 -0.606868
F11   F     F_    0.499905 0.383473 0.082129 -0.606868
F12   F     F_    0.383473 0.500097 0.082129 -0.606868
F13   F     F_    0.500095 0.383473 0.917871 -0.606868
F14   F     F_    0.616527 0.500096 0.917871 -0.606868
F15   F     F_    0.499903 0.616527 0.917871 -0.606869
F16   F     F_    0.383473 0.499903 0.917871 -0.606868
F17   F     F_    0.066487 0.383760 0.514916 -0.617801
F18   F     F_    0.383760 0.933514 0.514922 -0.617801
F19   F     F_    0.933515 0.616240 0.514925 -0.617802
F20   F     F_    0.616240 0.066485 0.514926 -0.617802
F21   F     F_    0.066485 0.616240 0.485075 -0.617802
F22   F     F_    0.383760 0.066486 0.485078 -0.617802
F23   F     F_    0.933513 0.383760 0.485084 -0.617801
F24   F     F_    0.616240 0.933515 0.485074 -0.617802
F25   F     F_    0.566485 0.883760 0.014926 -0.617802
F26   F     F_    0.883760 0.433515 0.014926 -0.617802
F27   F     F_    0.433514 0.116240 0.014921 -0.617802
F28   F     F_    0.116240 0.566486 0.014922 -0.617802
F29   F     F_    0.566486 0.116240 0.985079 -0.617802
F30   F     F_    0.883760 0.566485 0.985074 -0.617802
F31   F     F_    0.433515 0.883760 0.985074 -0.617802
F32   F     F_    0.116240 0.433514 0.985078 -0.617802

loop_
_geom_bond_atom_site_label_1
_geom_bond_atom_site_label_2
_ccdc_geom_bond_type
C3    O5    A    
C55   F31   S    
Cu11  Cu12  S    
C88   C96   S    
C82   C90   S    
Cu5   O29   S    
C139  F11   S    
C130  C146  A    
C78   O48   A    
Cu9   Cu10  S    
Cu10  O37   S    
C75   O35   A    
C116  C132  A    
C85   O27   A    
Cu7   O11   S    
C32   H24   S    
C84   O22   A    
C74   C147  S    
C42   C58   A    
C38   C70   A    
C56   F32   S    
C26   H18   S    
C35   H27   S    
C118  C134  A    
C83   O23   A    
C32   C68   A    
C138  C150  A    
Cu7   O31   S    
C135  F7    S    
Cu11  O43   S    
C11   C19   T    
C46   F22   S    
C27   H19   S    
C12   C20   T    
Cu11  O41   S    
C125  H13   S    
C28   C68   A    
C44   C60   A    
C124  H12   S    
C39   H31   S    
Cu7   O15   S    
C21   C69   S    
C47   F23   S    
C1    O7    A    
C16   C160  S    
C101  C109  S    
Cu5   O25   S    
C123  C139  A    
Cu12  O45   S    
C120  C156  A    
C87   O31   A    
C108  C109  T    
C31   H23   S    
C143  F15   S    
C103  C111  S    
C119  C153  A    
C121  C137  A    
C38   H30   S    
C6    O14   A    
C3    O3    A    
C115  H3    S    
C86   C94   S    
C78   O42   A    
C88   O32   A    
C29   C67   A    
C122  H10   S    
C85   C93   S    
Cu6   O10   S    
C39   C55   A    
C36   C72   A    
Cu2   O18   S    
C30   C66   A    
Cu4   O6    S    
C40   C56   A    
Cu9   O36   S    
Cu1   O17   S    
C136  F8    S    
C123  H11   S    
C80   O44   A    
C19   C67   S    
C133  C147  A    
C33   H25   S    
C1    O1    A    
C140  C152  A    
C43   F19   S    
C36   C52   A    
C51   C63   A    
C43   C59   A    
C52   F28   S    
C81   C89   S    
C15   C23   T    
C6    O10   A    
C117  C133  A    
C16   C24   T    
Cu3   O3    S    
C121  C157  A    
C46   C58   A    
Cu6   Cu8   S    
C32   C48   A    
C35   C71   A    
Cu1   O1    S    
C144  F16   S    
C119  H7    S    
C12   C156  S    
Cu3   O23   S    
C117  C155  A    
C28   H20   S    
C13   C157  S    
C22   C70   S    
Cu1   Cu3   S    
C95   C103  T    
C78   C151  S    
C48   C60   A    
C114  H2    S    
Cu2   Cu4   S    
C106  C111  T    
C126  C158  A    
C24   C72   S    
Cu6   O32   S    
C80   C149  S    
C134  C146  A    
C81   O19   A    
Cu5   O13   S    
C100  C108  S    
C26   C42   A    
C2    O6    A    
C116  H4    S    
Cu11  O42   S    
C51   F27   S    
C26   C66   A    
C40   H32   S    
Cu10  O39   S    
C126  H14   S    
C142  F14   S    
C25   C65   A    
C122  C138  A    
C52   C64   A    
C93   C101  T    
C41   C57   A    
C104  C112  S    
C92   C100  T    
Cu3   O7    S    
C34   C70   A    
Cu4   O22   S    
C4    O4    A    
C115  C131  A    
Cu2   O24   S    
C54   C62   A    
C135  C145  A    
C27   C43   A    
Cu1   O5    S    
C28   C44   A    
C85   O25   A    
C119  C135  A    
C124  C140  A    
C89   C97   T    
C120  C136  A    
C86   O26   A    
C74   O34   A    
C76   O38   A    
C37   C53   A    
C73   O33   A    
C125  C141  A    
C8    O16   A    
C1    C57   S    
Cu8   O28   S    
Cu4   O20   S    
C84   C92   S    
C127  H15   S    
C38   C54   A    
C49   F25   S    
C134  F6    S    
C116  C156  A    
C5    O9    A    
C4    C60   S    
C128  C160  A    
C56   C64   A    
C39   C69   A    
C5    C61   S    
C27   C67   A    
C127  C143  A    
Cu12  O47   S    
Cu10  O38   S    
C41   F17   S    
C128  C144  A    
C7    C63   S    
C136  C148  A    
C6    C62   S    
C113  C129  A    
C8    C64   S    
C2    O2    A    
C121  H9    S    
C118  H6    S    
Cu5   O9    S    
C137  C149  A    
C105  C112  T    
Cu12  O48   S    
C76   C145  S    
C124  C160  A    
C40   C72   A    
Cu3   O19   S    
Cu9   O34   S    
C96   C104  T    
C140  F12   S    
C14   C22   T    
C50   C62   A    
C107  C110  T    
C30   C46   A    
C11   C155  S    
C102  C110  S    
C77   O45   A    
C5    O15   A    
C25   C41   A    
C83   C91   S    
C84   O24   A    
C130  F2    S    
C73   C146  S    
C88   O30   A    
Cu6   O26   S    
C141  C151  A    
C29   H21   S    
C113  H1    S    
C50   F26   S    
C83   O21   A    
C73   O37   A    
C9    C17   T    
C54   F30   S    
C31   C65   A    
Cu2   O8    S    
C127  C157  A    
C87   C95   S    
C45   C59   A    
C122  C158  A    
C115  C155  A    
C128  H16   S    
C132  C148  A    
C79   O47   A    
C97   C105  S    
C20   C68   S    
C36   H28   S    
C113  C153  A    
C8    O12   A    
C98   C106  S    
C15   C159  S    
C129  F1    S    
C34   C50   A    
C77   C150  S    
C125  C159  A    
Cu7   O27   S    
C82   O18   A    
C33   C69   A    
C75   C148  S    
C18   C66   S    
C99   C107  S    
C114  C130  A    
Cu8   O30   S    
C17   C65   S    
C87   O29   A    
C44   F20   S    
Cu11  O44   S    
C76   O36   A    
C86   O28   A    
C142  C150  A    
C77   O41   A    
C37   C71   A    
Cu10  O40   S    
C74   O40   A    
C144  C152  A    
C25   H17   S    
C13   C21   T    
C35   C51   A    
C34   H26   S    
C53   C63   A    
C49   C61   A    
Cu8   O12   S    
C139  C151  A    
C30   H22   S    
C123  C159  A    
C81   O17   A    
C10   C18   T    
C45   F21   S    
C4    O8    A    
C55   C61   A    
C133  F5    S    
C138  F10   S    
Cu9   O33   S    
C126  C142  A    
Cu4   O4    S    
C118  C154  A    
C10   C154  S    
C131  F3    S    
C129  C145  A    
C114  C154  A    
C120  H8    S    
C2    C58   S    
C14   C158  S    
C48   F24   S    
C75   O39   A    
C132  F4    S    
C9    C153  S    
C7    O13   A    
Cu1   O21   S    
C31   C47   A    
C143  C149  A    
C82   O20   A    
C94   C102  T    
C23   C71   S    
Cu5   Cu7   S    
Cu9   O35   S    
Cu6   O16   S    
C29   C45   A    
C47   C57   A    
C137  F9    S    
C37   H29   S    
Cu12  O46   S    
Cu2   O2    S    
C80   O46   A    
C131  C147  A    
C117  H5    S    
Cu8   O14   S    
C91   C99   T    
C141  F13   S    
C33   C49   A    
C53   F29   S    
C90   C98   T    
C7    O11   A    
C42   F18   S    
C79   O43   A    
C79   C152  S    
C3    C59   S    
