data_mof_unit_pretest_965.cif
_audit_creation_date              2012-12-10T17:51:33-0500
_audit_creation_method            fapswitch 2.2
_symmetry_space_group_name_H-M    P1
_symmetry_Int_Tables_number       1
_space_group_crystal_system       triclinic
_cell_length_a                    9.877921
_cell_length_b                    10.727873
_cell_length_c                    16.865666
_cell_angle_alpha                 91.724972
_cell_angle_beta                  85.128125
_cell_angle_gamma                 89.333958
_cell_volume                      1779.79460214

loop_
_atom_site_label
_atom_site_type_symbol
_atom_type_description
_atom_site_fract_x
_atom_site_fract_y
_atom_site_fract_z
_atom_type_partial_charge
C1    C     C_R   0.498830 0.740167 0.495135 0.876961
C2    C     C_R   0.529652 0.460441 0.262715 -0.036783
C3    C     C_R   0.240534 0.892205 0.484579 -0.160748
C4    C     C_R   0.480971 0.502264 0.652875 0.876087
C5    C     C_R   0.119663 0.955199 0.510278 -0.145083
C6    C     C_R   0.123672 0.068264 0.552241 -0.153075
C7    C     C_R   0.248359 0.123970 0.561185 -0.148883
C8    C     C_R   0.371056 0.066024 0.528242 0.098870
C9    C     C_R   0.368232 0.941839 0.501155 0.096042
C10   C     C_R   0.493765 0.874164 0.492240 -0.120919
C11   C     C_R   0.617521 0.935820 0.493412 -0.214777
C12   C     C_R   0.348999 0.467271 0.780805 -0.191632
C13   C     C_R   0.618745 0.062738 0.503471 -0.208898
C14   C     C_R   0.496305 0.128706 0.518401 -0.127428
C15   C     C_R   0.843149 0.665579 0.603684 -0.176188
C16   C     C_R   0.499006 0.261121 0.508177 0.886547
C17   C     C_R   0.905538 0.746843 0.654562 -0.223348
C18   C     C_R   0.045474 0.745132 0.655395 -0.173848
C19   C     C_R   0.123886 0.663193 0.604599 -0.157615
C20   C     C_R   0.064179 0.580831 0.551426 0.147039
C21   C     C_R   0.919406 0.581336 0.551192 0.176647
C22   C     C_R   0.936461 0.422037 0.451163 -0.127169
C23   C     C_R   0.423551 0.378082 0.149123 -0.169673
C24   C     C_R   0.079821 0.422168 0.451117 -0.117441
C25   C     C_R   0.518869 0.493176 0.347205 0.877096
C26   C     C_R   0.468463 0.506924 0.739071 -0.097687
C27   C     C_R   0.576768 0.550657 0.780006 -0.291609
C28   C     C_R   0.569344 0.549634 0.862581 0.476986
C29   C     C_R   0.452944 0.499135 0.903596 0.034711
C30   C     C_R   0.341576 0.463124 0.863008 -0.200225
C31   C     C_R   0.415976 0.410771 0.229186 -0.188458
C32   C     C_R   0.653780 0.469054 0.216349 -0.210429
C33   C     C_R   0.660904 0.437052 0.135559 -0.084093
C34   C     C_R   0.544127 0.396644 0.101620 0.169360
C35   C     C_2   0.447249 0.475199 0.987734 -0.153273
C36   C     C_2   0.540122 0.400973 0.016103 -0.161544
H1    H     H_    0.667092 0.585547 0.747615 0.177958
H2    H     H_    0.735314 0.671668 0.607667 0.207773
H3    H     H_    0.844646 0.811180 0.693839 0.185171
H4    H     H_    0.320395 0.398732 0.264440 0.155953
H5    H     H_    0.093805 0.808229 0.695239 0.168616
H6    H     H_    0.230683 0.667998 0.608236 0.210542
H7    H     H_    0.140512 0.358618 0.411268 0.150019
H8    H     H_    0.743404 0.504186 0.241837 0.159301
H9    H     H_    0.622630 0.359118 0.977169 0.188559
H10   H     H_    0.251288 0.426612 0.894750 0.171784
H11   H     H_    0.333153 0.345739 0.123115 0.141100
H12   H     H_    0.754212 0.452160 0.098720 0.178601
H13   H     H_    0.263691 0.434927 0.749837 0.170073
H14   H     H_    0.365418 0.518671 0.026553 0.166376
H15   H     H_    0.859707 0.682648 0.825197 0.363480
H16   H     H_    0.714243 0.886327 0.485439 0.171823
H17   H     H_    0.231255 0.807411 0.449532 0.173476
H18   H     H_    0.022883 0.914856 0.499029 0.145482
H19   H     H_    0.030185 0.114821 0.575496 0.143370
H20   H     H_    0.247720 0.212065 0.594180 0.159480
H21   H     H_    0.715838 0.109120 0.498057 0.169444
H22   H     H_    0.888956 0.358438 0.411337 0.146890
N1    N     N_R   0.857140 0.501200 0.500750 -0.120277
N2    N     N_R   0.142740 0.501280 0.500770 -0.126277
O1    O     O_R   0.385310 0.683220 0.500000 -0.651362
O2    O     O_2   0.807329 0.513973 0.924511 -0.356565
O3    O     O_3   0.781465 0.725330 0.855660 -0.546709
O4    O     O_R   0.614640 0.683250 0.500010 -0.638161
O5    O     O_R   0.371780 0.500010 0.615800 -0.646417
O6    O     O_R   0.601110 0.500030 0.615800 -0.632679
O7    O     O_R   0.385360 0.316750 0.499990 -0.625756
O8    O     O_R   0.614690 0.316780 0.500000 -0.617356
O9    O     O_R   0.398890 0.499970 0.384200 -0.619675
O10   O     O_R   0.628220 0.499990 0.384200 -0.614822
O11   O     O_2   0.653753 0.672693 0.990829 -0.256414
S1    S     S_3+6 0.705176 0.614731 0.911570 0.009546
Zn1   Zn    Zn3+2 0.346870 0.499980 0.499990 0.923576
Zn2   Zn    Zn3+2 0.653130 0.500020 0.500010 0.938556

loop_
_geom_bond_atom_site_label_1
_geom_bond_atom_site_label_2
_ccdc_geom_bond_type
C22   H22   S    
C4    C26   S    
C1    O4    A    
C15   H2    S    
O9    Zn1   S    
C6    C7    A    
C3    C9    A    
C20   N2    A    
C29   C30   A    
C3    H17   S    
C9    C10   A    
C29   C35   S    
C11   H16   S    
C19   C20   A    
C19   H6    S    
C15   C21   A    
C6    H19   S    
C24   N2    A    
C23   C34   A    
O11   S1    D    
C32   C33   A    
C3    C5    A    
C35   H14   S    
C17   C18   A    
C32   H8    S    
O5    Zn1   S    
C36   H9    S    
C16   O7    A    
C13   C14   A    
C31   H4    S    
C4    O6    A    
C11   C13   A    
N1    Zn2   S    
C26   C27   A    
C28   S1    S    
C7    H20   S    
C27   H1    S    
O7    Zn1   S    
C5    C6    A    
C22   C24   A    
C28   C29   A    
C4    O5    A    
C33   C34   A    
C12   H13   S    
C2    C25   S    
C34   C36   S    
O1    Zn1   S    
C16   O8    A    
C14   C16   S    
O3    S1    S    
C25   O9    A    
C10   C11   A    
C23   H11   S    
O2    S1    D    
C23   C31   A    
O6    Zn2   S    
C21   N1    A    
N2    Zn1   S    
C5    H18   S    
C7    C8    A    
C13   H21   S    
H15   O3    S    
C20   C21   A    
C2    C32   A    
C18   C19   A    
C17   H3    S    
C18   H5    S    
C22   N1    A    
C33   H12   S    
C24   H7    S    
O4    Zn2   S    
O10   Zn2   S    
C8    C9    A    
C8    C14   A    
C25   O10   A    
C12   C30   A    
C15   C17   A    
O8    Zn2   S    
C30   H10   S    
C1    C10   S    
C35   C36   D    
C12   C26   A    
C2    C31   A    
C27   C28   A    
C1    O1    A    
