data_mof_unit_pretest_47.cif
_audit_creation_date              2012-12-10T19:08:07-0500
_audit_creation_method            fapswitch 2.2
_symmetry_space_group_name_H-M    P1
_symmetry_Int_Tables_number       1
_space_group_crystal_system       triclinic
_cell_length_a                    9.076725
_cell_length_b                    10.827968
_cell_length_c                    9.550643
_cell_angle_alpha                 89.927361
_cell_angle_beta                  89.979676
_cell_angle_gamma                 90.215515
_cell_volume                      938.653499255

loop_
_atom_site_label
_atom_site_type_symbol
_atom_type_description
_atom_site_fract_x
_atom_site_fract_y
_atom_site_fract_z
_atom_type_partial_charge
C1    C     C_R   0.496701 0.262409 0.500071 0.820714
C2    C     C_R   0.453446 0.936620 0.373838 0.603547
C3    C     C_R   0.480884 0.870991 0.498952 -0.230082
C4    C     C_R   0.486301 0.936341 0.624770 0.030815
C5    C     C_3   0.595459 0.930117 0.741558 -0.330529
C6    C     C_3   0.594153 0.070303 0.742798 -0.457120
C7    C     C_R   0.583825 0.583449 0.073579 0.243091
C8    C     C_R   0.408197 0.424861 0.074532 -0.059935
C9    C     C_R   0.408233 0.424815 0.925706 -0.075558
C10   C     C_R   0.583931 0.583400 0.926072 0.210784
C11   C     C_3   0.747753 0.594981 0.921493 0.395146
C12   C     C_R   0.220680 0.499972 0.499994 0.839065
C13   C     C_3   0.747313 0.596257 0.080098 -0.530640
C14   C     C_R   0.496627 0.737755 0.499676 0.847963
C15   C     C_R   0.779301 0.500126 0.500011 0.848540
C16   C     C_1   0.065532 0.500076 0.500016 -0.164484
C17   C     C_1   0.934426 0.500137 0.500006 -0.169584
C18   C     C_R   0.485767 0.063422 0.625465 0.114971
C19   C     C_R   0.480754 0.129497 0.500170 -0.179521
C20   C     C_R   0.453687 0.065411 0.374913 -0.287348
Cu1   Cu    Cu3+1 0.499990 0.499980 0.640670 0.971011
Cu2   Cu    Cu3+1 0.500010 0.500020 0.359330 0.983109
H1    H     H_    0.439520 0.114288 0.276820 0.186733
H2    H     H_    0.802133 0.513910 0.125737 0.174875
H3    H     H_    0.781797 0.686154 0.125935 0.240999
H4    H     H_    0.547658 0.888343 0.837871 0.236580
H5    H     H_    0.702821 0.891078 0.707712 0.239196
H6    H     H_    0.544682 0.109516 0.839452 0.207152
H7    H     H_    0.700912 0.112435 0.710706 0.197194
H8    H     H_    0.336084 0.362163 0.130455 0.139893
H9    H     H_    0.336167 0.362075 0.870019 0.148011
H10   H     H_    0.804355 0.513675 0.875610 0.103962
N1    N     N_R   0.500920 0.500930 0.147930 -0.185220
N2    N     N_R   0.500930 0.500890 0.852020 -0.224449
O1    O     O_R   0.500000 0.319640 0.618810 -0.588437
O2    O     O_R   0.500020 0.319680 0.381230 -0.594637
O3    O     O_R   0.288380 0.499980 0.618770 -0.576425
O4    O     O_R   0.288400 0.500020 0.381190 -0.575612
O5    O     O_R   0.499980 0.680320 0.618770 -0.565830
O6    O     O_R   0.500000 0.680360 0.381190 -0.515184
O7    O     O_R   0.711600 0.499980 0.618810 -0.577601
O8    O     O_R   0.711620 0.500020 0.381230 -0.588204
F1    F     F_    0.792037 0.706851 0.865253 -0.655940
F2    F     F_    0.434071 0.877830 0.249661 -0.651007

loop_
_geom_bond_atom_site_label_1
_geom_bond_atom_site_label_2
_ccdc_geom_bond_type
C7    C10   A    
C11   F1    S    
Cu1   O1    S    
C11   C13   S    
C15   O8    A    
C19   C20   A    
Cu1   O5    S    
C20   H1    S    
C4    C18   A    
C2    C3    A    
C8    H8    S    
C10   N2    A    
Cu1   Cu2   S    
C7    N1    A    
C1    O1    A    
Cu2   O8    S    
C3    C14   S    
Cu1   O7    S    
C5    C6    S    
C11   H10   S    
C8    N1    A    
C1    O2    A    
C12   O4    A    
C9    N2    A    
C6    C18   S    
C1    C19   S    
C16   C17   T    
C10   C11   S    
C9    H9    S    
C14   O6    A    
C5    H4    S    
Cu2   O4    S    
C12   C16   S    
C7    C13   S    
C6    H7    S    
Cu2   O2    S    
C15   O7    A    
Cu1   O3    S    
C18   C19   A    
C12   O3    A    
C15   C17   S    
Cu2   N1    S    
Cu2   O6    S    
C8    C9    A    
Cu1   N2    S    
C14   O5    A    
C5    H5    S    
C2    C20   A    
C6    H6    S    
C3    C4    A    
C13   H2    S    
C2    F2    S    
C4    C5    S    
C13   H3    S    
