data_mof_unit_pretest_621.cif
_audit_creation_date              2013-03-05T15:44:33-0500
_audit_creation_method            fapswitch 2.2
_symmetry_space_group_name_H-M    P1
_symmetry_Int_Tables_number       1
_space_group_crystal_system       triclinic
_cell_length_a                    27.775791
_cell_length_b                    10.948614
_cell_length_c                    9.695434
_cell_angle_alpha                 90.582508
_cell_angle_beta                  89.869837
_cell_angle_gamma                 89.519095
_cell_volume                      2948.17924901

loop_
_atom_site_label
_atom_site_type_symbol
_atom_site_description
_atom_site_fract_x
_atom_site_fract_y
_atom_site_fract_z
_atom_type_partial_charge
O1    O     O_R   0.500010 0.321960 0.617040 -0.575580
O2    O     O_R   0.499990 0.321920 0.382900 -0.522407
C1    C     C_R   0.500539 0.265239 0.498907 0.812046
O3    O     O_R   0.430270 0.500040 0.617060 -0.575213
O4    O     O_R   0.430260 0.500000 0.382910 -0.537704
C2    C     C_R   0.407482 0.503542 0.499908 0.878119
Cu1   Cu    Cu3+1 0.500010 0.500020 0.638630 0.983880
Cu2   Cu    Cu3+1 0.499990 0.499980 0.361370 1.012979
O5    O     O_R   0.500010 0.678080 0.617100 -0.533462
O6    O     O_R   0.499990 0.678040 0.382960 -0.620484
O7    O     O_R   0.569740 0.500000 0.617090 -0.570697
O8    O     O_R   0.569730 0.499960 0.382940 -0.565131
C3    C     C_R   0.501489 0.734578 0.500896 0.744925
C4    C     C_R   0.592561 0.498845 0.499781 0.821410
C5    C     C_R   0.180039 0.418008 0.438138 0.645943
O9    O     O_2   0.207684 0.330070 0.378995 -0.475622
N1    N     N_R   0.201809 0.511271 0.508156 -0.423543
C6    C     C_R   0.175785 0.600612 0.574118 0.667470
C7    C     C_R   0.277653 0.574731 0.403049 0.595143
C8    C     C_R   0.327985 0.572808 0.397127 0.126364
C9    C     C_R   0.329416 0.454243 0.608726 -0.315855
C10   C     C_R   0.279264 0.456603 0.613001 0.630448
C11   C     C_R   0.253338 0.515979 0.509627 0.054709
C12   C     C_R   0.101817 0.505292 0.497122 -0.102790
C13   C     C_R   0.129321 0.413322 0.429060 -0.062963
C14   C     C_R   0.105240 0.320226 0.355015 0.263109
C15   C     C_R   0.125317 0.599058 0.570541 -0.066489
C16   C     C_R   0.354419 0.510067 0.500383 -0.264323
H1    H     H_    0.348772 0.406539 0.689063 0.213659
C17   C     C_R   0.645601 0.495065 0.498756 -0.127412
C18   C     C_R   0.976206 0.396511 0.437509 0.065635
C19   C     C_R   0.973271 0.606406 0.527126 -0.103518
C20   C     C_R   0.949309 0.499819 0.482040 -0.015403
C21   C     C_R   0.951357 0.289379 0.401789 -0.260057
C22   C     C_R   0.901165 0.284627 0.403113 0.273782
C23   C     C_R   0.873913 0.388287 0.444891 -0.026612
C24   C     C_R   0.898250 0.497220 0.480404 -0.148114
C25   C     C_R   0.871610 0.604110 0.513225 -0.143264
C26   C     C_R   0.821111 0.596313 0.524098 0.639683
N2    N     N_R   0.798259 0.489776 0.492821 -0.457714
C27   C     C_R   0.823127 0.386996 0.453740 0.577574
C28   C     C_R   0.720997 0.488737 0.371569 -0.202529
C29   C     C_R   0.670845 0.492356 0.372900 -0.209832
C30   C     C_R   0.671510 0.492987 0.623173 -0.275566
C31   C     C_R   0.721755 0.489332 0.621647 0.685091
C32   C     C_R   0.746627 0.487683 0.495664 0.229343
O10   O     O_2   0.798527 0.283884 0.426386 -0.494991
C33   C     C_R   0.027118 0.403863 0.429068 0.043195
C34   C     C_R   0.050798 0.503536 0.492444 0.020077
C35   C     C_R   0.023659 0.600864 0.552446 0.052758
C36   C     C_R   0.055038 0.315383 0.357975 -0.261220
H2    H     H_    0.651920 0.493482 0.275381 0.184155
H3    H     H_    0.740067 0.488093 0.274011 0.174131
H4    H     H_    0.970171 0.205952 0.374530 0.151063
H5    H     H_    0.038617 0.244082 0.297072 0.142559
O11   O     O_2   0.198768 0.690588 0.642889 -0.505451
C37   C     C_R   0.098137 0.686694 0.643049 -0.223790
H6    H     H_    0.115913 0.753871 0.707605 0.190439
C38   C     C_R   0.946515 0.716418 0.535994 0.560171
C39   C     C_R   0.896126 0.716097 0.528931 0.168124
O12   O     O_2   0.794809 0.693684 0.567188 -0.477350
C40   C     C_R   0.047815 0.685881 0.639535 0.311325
H7    H     H_    0.652983 0.494509 0.721590 0.185873
C41   C     C_2   0.504564 0.931856 0.390168 -0.327146
C42   C     C_2   0.508721 0.865456 0.504898 0.417356
H8    H     H_    0.494909 0.887872 0.293415 0.134988
C43   C     C_2   0.514542 0.063825 0.389505 0.345142
C44   C     C_2   0.497739 0.133006 0.495693 -0.286608
H9    H     H_    0.478206 0.092241 0.580473 0.184428
C45   C     C_2   0.479164 0.416039 0.921064 -0.163310
N3    N     N_2   0.499480 0.498660 0.846910 -0.317707
H10   H     H_    0.464070 0.336508 0.870205 0.193298
H11   H     H_    0.505537 0.581858 0.893099 0.227146
C46   C     C_2   0.473280 0.427850 0.075544 0.720162
N4    N     N_2   0.499460 0.498630 0.153040 -0.127962
F1    F     F_    0.252118 0.632673 0.303520 -0.608528
F2    F     F_    0.969209 0.825871 0.533537 -0.669979
N5    N     N_2   0.870618 0.829557 0.527916 -0.354921
H12   H     H_    0.887110 0.899688 0.581095 0.291370
C47   C     C_3   0.854389 0.865944 0.392455 -0.581141
H13   H     H_    0.885783 0.886516 0.325603 0.208243
H14   H     H_    0.831021 0.948285 0.402340 0.254002
H15   H     H_    0.832941 0.792780 0.342458 0.232271
F3    F     F_    0.746287 0.487991 0.742490 -0.646891
N6    N     N_2   0.022234 0.762051 0.735269 -0.365624
H16   H     H_    0.040255 0.840219 0.764262 0.266437
C48   C     C_3   0.002508 0.698368 0.852338 -0.663679
H17   H     H_    0.981496 0.763504 0.917695 0.235882
H18   H     H_    0.032030 0.658518 0.915168 0.223885
H19   H     H_    0.977989 0.624553 0.817879 0.228080
F4    F     F_    0.524224 0.915920 0.625721 -0.660444
N7    N     N_2   0.541093 0.117247 0.278290 -0.393396
H20   H     H_    0.566446 0.180205 0.309028 0.254871
C49   C     C_3   0.557118 0.039886 0.164885 -0.627965
H21   H     H_    0.576915 0.095643 0.088707 0.233420
H22   H     H_    0.525747 0.999069 0.111319 0.238155
H23   H     H_    0.581633 0.966942 0.202863 0.222644
F5    F     F_    0.255782 0.399252 0.716380 -0.615109
F6    F     F_    0.437786 0.362170 0.135365 -0.644467
N8    N     N_2   0.545099 0.525249 0.104705 -0.362187
H24   H     H_    0.562488 0.465599 0.037673 0.232758
C50   C     C_3   0.558578 0.652601 0.108398 -0.564460
H25   H     H_    0.572737 0.679541 0.006044 0.195947
H26   H     H_    0.587272 0.666621 0.186214 0.229153
H27   H     H_    0.527250 0.712493 0.133570 0.222288
N9    N     N_2   0.130852 0.230986 0.275422 -0.378518
H28   H     H_    0.116296 0.144734 0.280545 0.256830
C51   C     C_3   0.139829 0.267093 0.134605 -0.527491
H29   H     H_    0.162518 0.196643 0.082190 0.245990
H30   H     H_    0.159225 0.355421 0.132086 0.258003
H31   H     H_    0.105302 0.276134 0.077686 0.189507
N10   N     N_2   0.878803 0.174614 0.359445 -0.387549
H32   H     H_    0.896800 0.097672 0.392604 0.254533
C52   C     C_3   0.869068 0.169319 0.212936 -0.600769
H33   H     H_    0.848895 0.084853 0.188099 0.228371
H34   H     H_    0.903358 0.168216 0.153551 0.203917
H35   H     H_    0.846837 0.249064 0.181282 0.251582
N11   N     N_2   0.350657 0.636616 0.287969 -0.358716
H36   H     H_    0.373772 0.585282 0.227281 0.296724
C53   C     C_3   0.368484 0.756195 0.325127 -0.563404
H37   H     H_    0.397806 0.748612 0.402277 0.181504
H38   H     H_    0.338849 0.813791 0.368296 0.255458
H39   H     H_    0.382859 0.801449 0.231896 0.223527

loop_
_geom_bond_atom_site_label_1
_geom_bond_atom_site_label_2
_geom_bond_distance
_ccdc_geom_bond_type
C48   H17   1.110342 S    
C10   F5    1.356826 S    
C7    C8    1.399035 A    
C12   C15   1.408973 A    
C17   C30   1.406316 A    
C38   F2    1.359100 S    
C8    N11   1.422713 S    
C52   H33   1.109939 S    
C37   C40   1.398341 A    
C3    C42   1.448752 S    
C31   C32   1.401806 A    
C53   H37   1.110223 S    
Cu1   O7    1.947556 S    
C39   N5    1.425045 S    
N1    C11   1.432717 S    
C23   C24   1.415694 A    
O3    Cu1   1.948813 S    
C28   H3    1.082963 S    
Cu1   N3    2.019591 S    
O4    C2    1.297679 A    
O7    C4    1.300706 A    
N5    C47   1.448136 S    
C29   H2    1.082962 S    
C5    C13   1.413024 A    
N9    H28   1.031975 S    
C5    O9    1.348987 S    
C51   H29   1.110296 S    
C50   H27   1.110370 S    
C42   F4    1.362368 S    
C21   C22   1.395581 A    
C28   C32   1.399479 A    
O5    C3    1.291525 A    
N11   H36   1.029477 S    
N8    H24   1.032874 S    
C33   C36   1.409373 A    
C2    C16   1.474981 S    
C1    C44   1.450533 S    
C44   H9    1.085686 S    
C45   C46   1.510398 S    
C18   C20   1.413630 A    
C45   N3    1.293658 D    
C53   H39   1.110301 S    
C6    O11   1.349706 S    
C49   H22   1.110222 S    
C38   C39   1.401439 A    
C9    C10   1.393554 A    
C14   N9    1.423615 S    
C23   C27   1.413242 A    
C50   H25   1.110222 S    
C4    C17   1.473470 S    
C47   H15   1.110395 S    
N8    C50   1.446865 S    
N10   H32   1.030567 S    
C53   H38   1.111183 S    
N6    C48   1.447182 S    
C30   H7    1.082990 S    
C26   O12   1.349533 S    
C40   N6    1.425890 S    
C46   N4    1.301515 D    
C43   C44   1.351854 D    
C41   C43   1.473573 S    
Cu1   Cu2   2.688153 S    
C12   C13   1.415723 A    
C47   H14   1.109673 S    
C15   C37   1.398744 A    
C26   N2    1.364372 A    
N3    H11   1.026264 S    
N5    H12   1.031583 S    
C8    C16   1.421985 A    
C49   H23   1.111309 S    
C13   C14   1.414356 A    
N6    H16   1.031967 S    
C9    H1    1.083518 S    
Cu2   N4    2.019842 S    
C20   C24   1.418841 A    
O1    C1    1.297309 A    
C22   C23   1.414178 A    
C41   H8    1.085318 S    
C7    C11   1.398310 A    
C24   C25   1.412511 A    
N4    N8    1.384843 S    
Cu2   O8    1.948808 S    
N7    C49   1.448095 S    
N1    C6    1.364405 A    
C27   O10   1.348838 S    
C18   C21   1.406606 A    
C50   H26   1.109252 S    
C19   C35   1.422384 A    
C25   C39   1.414533 A    
N10   C52   1.447254 S    
O3    C2    1.302302 A    
N2    C27   1.365297 A    
C9    C16   1.405749 A    
O8    C4    1.299618 A    
C21   H4    1.078743 S    
C18   C33   1.419286 A    
C48   H18   1.111545 S    
C35   C40   1.423595 A    
C17   C29   1.405896 A    
C31   F3    1.356847 S    
C28   C29   1.393275 A    
N2    C32   1.434693 S    
C43   N7    1.437045 S    
C30   C31   1.395884 A    
C12   C34   1.418199 A    
Cu1   O5    1.962764 S    
C7    F1    1.358186 S    
O1    Cu1   1.958599 S    
O2    Cu2   1.962764 S    
C6    C15   1.402524 A    
C47   H13   1.111255 S    
O6    C3    1.295621 A    
O4    Cu2   1.947559 S    
C52   H34   1.111733 S    
C5    N1    1.366471 A    
C46   F6    1.357646 S    
C51   H31   1.111741 S    
C41   C42   1.339705 D    
O2    C1    1.290151 A    
C14   C36   1.396116 A    
C19   C20   1.414175 A    
C37   H6    1.083792 S    
C25   C26   1.409744 A    
N9    C51   1.446905 S    
C33   C34   1.414683 A    
N7    H20   1.031878 S    
C51   H30   1.111403 S    
C36   H5    1.078854 S    
C49   H21   1.110629 S    
N11   C53   1.446075 S    
C52   H35   1.111310 S    
Cu2   O6    1.958599 S    
C34   C35   1.419202 A    
C48   H19   1.110552 S    
C10   C11   1.397982 A    
C45   H10   1.084188 S    
C19   C38   1.411747 A    
C22   N10   1.420985 S    
