data_mof_unit_pretest_346.cif
_audit_creation_date              2012-10-26T20:03:19-0400
_audit_creation_method            fapswitch 2.2
_symmetry_space_group_name_H-M    P1
_symmetry_Int_Tables_number       1
_space_group_crystal_system       triclinic
_cell_length_a                    10.611827
_cell_length_b                    12.329558
_cell_length_c                    13.199497
_cell_angle_alpha                 116.590309
_cell_angle_beta                  77.74873
_cell_angle_gamma                 101.122768
_cell_volume                      1499.66800453

loop_
_atom_site_label
_atom_site_type_symbol
_atom_type_description
_atom_site_fract_x
_atom_site_fract_y
_atom_site_fract_z
_atom_type_partial_charge
C1    C     C_R   0.510730 0.854773 0.286706 0.523287
C2    C     C_R   0.496094 0.565973 0.009722 0.030294
C3    C     C_R   0.460007 0.648719 0.124825 0.021931
C4    C     C_R   0.740259 0.999482 0.499899 0.547626
C5    C     C_R   0.456753 0.439102 0.976328 0.026997
C6    C     C_R   0.371808 0.398323 0.054186 0.051533
C7    C     C_R   0.325652 0.482556 0.162410 -0.145884
C8    C     C_R   0.367700 0.605670 0.196748 -0.130240
C9    C     C_R   0.500492 0.351059 0.868051 -0.138288
C10   C     C_R   0.372220 0.188525 0.912144 -0.139445
C11   C     C_R   0.516215 0.772411 0.163953 -0.006210
C12   C     C_3   0.016322 0.003029 0.599425 -0.133427
C13   C     C_R   0.704524 0.345265 0.326934 -0.149180
C14   C     C_R   0.324908 0.759831 0.645559 0.048157
C15   C     C_R   0.287223 0.663536 0.677388 -0.161924
C16   C     C_R   0.481031 0.145031 0.713265 0.544991
C17   C     C_R   0.352967 0.559966 0.622515 -0.138665
C18   C     C_R   0.457989 0.551410 0.534522 -0.006347
C19   C     C_R   0.493377 0.652811 0.505082 0.180559
C20   C     C_R   0.529304 0.446758 0.474928 -0.013929
C21   C     C_R   0.632978 0.445595 0.386943 0.038641
C22   C     C_R   0.665389 0.544695 0.359398 -0.178106
C23   C     C_3   0.933752 0.900557 0.511740 -0.109590
C24   C     C_R   0.598391 0.646431 0.417924 -0.102127
C25   C     C_R   0.502893 0.342298 0.498181 0.038317
C26   C     C_R   0.673798 0.245936 0.354139 0.042079
C27   C     C_R   0.259665 0.000800 0.500408 0.543767
C28   C     C_3   0.983105 0.997922 0.400532 -0.113131
C29   C     C_3   0.041720 0.900501 0.413235 0.004745
C30   C     C_3   0.122862 0.001415 0.500083 0.044046
C31   C     C_3   0.065574 0.099978 0.488543 -0.122240
C32   C     C_3   0.956898 0.101483 0.587889 -0.127784
C33   C     C_3   0.092597 0.785744 0.315056 -0.250016
C34   C     C_3   0.876937 0.999135 0.500053 0.035875
C35   C     C_3   0.994126 0.716524 0.231297 -0.302733
C36   C     C_3   0.036588 0.593532 0.142266 -0.451456
C37   C     C_R   0.331710 0.273528 0.022069 -0.133591
C38   C     C_R   0.454670 0.227739 0.834235 -0.002630
C39   C     C_R   0.589445 0.815433 0.084839 -0.137335
C40   C     C_R   0.612499 0.737078 0.969742 -0.143540
C41   C     C_R   0.568712 0.613559 0.932320 -0.123458
Cu1   Cu    Cu3+1 0.529830 0.098270 0.475420 0.919148
Cu2   Cu    Cu3+1 0.470170 0.901730 0.524580 0.904071
H1    H     H_    0.569983 0.375823 0.807410 0.118160
H2    H     H_    0.273379 0.839863 0.688708 0.121999
H3    H     H_    0.966325 0.995843 0.319444 0.098202
H4    H     H_    0.319576 0.488219 0.650583 0.097399
H5    H     H_    0.206746 0.669196 0.744864 0.099141
H6    H     H_    0.632999 0.718235 0.391759 0.181400
H7    H     H_    0.121934 0.181723 0.479487 0.118534
H8    H     H_    0.918478 0.184001 0.659701 0.111012
H9    H     H_    0.033019 0.005576 0.680733 0.105256
H10   H     H_    0.877594 0.818470 0.520296 0.118043
H11   H     H_    0.335438 0.093160 0.886904 0.119967
H12   H     H_    0.631599 0.909698 0.112232 0.125963
H13   H     H_    0.256563 0.453231 0.221089 0.103817
H14   H     H_    0.266429 0.242076 0.081087 0.102899
H15   H     H_    0.132303 0.606654 0.092759 0.166281
H16   H     H_    0.043520 0.535160 0.184619 0.148662
H17   H     H_    0.964132 0.546251 0.082136 0.142568
H18   H     H_    0.897950 0.701346 0.278913 0.155071
H19   H     H_    0.983932 0.771596 0.186589 0.157727
H20   H     H_    0.184883 0.812045 0.268986 0.140231
H21   H     H_    0.111979 0.726737 0.352281 0.145807
H22   H     H_    0.590766 0.558546 0.841764 0.104050
H23   H     H_    0.668029 0.771693 0.909370 0.117027
H24   H     H_    0.323178 0.666018 0.279454 0.148608
H25   H     H_    0.728467 0.168071 0.308105 0.116005
H26   H     H_    0.744103 0.543570 0.291714 0.105933
H27   H     H_    0.783909 0.343841 0.259530 0.087455
H28   H     H_    0.425705 0.335027 0.563299 0.118027
N1    N     N_R   0.575030 0.246270 0.438190 -0.232652
N2    N     N_R   0.425760 0.754330 0.561190 -0.235740
O1    O     O_R   0.537510 0.972500 0.318130 -0.503377
O2    O     O_R   0.487140 0.806530 0.359650 -0.529469
O3    O     O_R   0.708330 0.082950 0.479220 -0.500881
O4    O     O_R   0.657960 0.916980 0.520740 -0.521583
O5    O     O_R   0.512860 0.193470 0.640350 -0.509589
O6    O     O_R   0.462490 0.027500 0.681870 -0.503836
O7    O     O_R   0.342040 0.083020 0.479260 -0.506604
O8    O     O_R   0.291670 0.917050 0.520780 -0.516301

loop_
_geom_bond_atom_site_label_1
_geom_bond_atom_site_label_2
_ccdc_geom_bond_type
Cu2   N2    S    
Cu1   O7    S    
C26   N1    A    
C35   C36   S    
C1    C11   S    
C36   H16   S    
C7    C8    A    
C12   C23   S    
C28   H3    S    
C10   C37   A    
C1    O1    A    
C23   C29   S    
C28   C29   S    
C36   H15   S    
C30   C31   S    
C13   H27   S    
C2    C41   A    
Cu2   O6    S    
C29   C33   S    
C18   C19   A    
C39   H12   S    
C25   H28   S    
C22   H26   S    
C18   C20   A    
C28   C34   S    
C40   H23   S    
C21   C22   A    
C12   C32   S    
C27   C30   S    
C15   H5    S    
C12   H9    S    
C23   H10   S    
C14   H2    S    
Cu2   O2    S    
C4    C34   S    
Cu1   O1    S    
C1    O2    A    
C14   N2    A    
C19   N2    A    
C27   O7    A    
C39   C40   A    
C41   H22   S    
C32   C34   S    
C32   H8    S    
C5    C9    A    
C29   C30   S    
C31   C32   S    
C27   O8    A    
C33   H20   S    
C23   C34   S    
Cu1   N1    S    
C17   C18   A    
C6    C37   A    
C13   C21   A    
C35   H18   S    
C25   N1    A    
C11   C39   A    
C40   C41   A    
Cu1   O5    S    
Cu2   O8    S    
C22   C24   A    
C13   C26   A    
C2    C5    A    
Cu1   Cu2   S    
C31   H7    S    
C24   H6    S    
C15   C17   A    
C9    H1    S    
C12   C30   S    
C28   C31   S    
C17   H4    S    
C36   H17   S    
C6    C7    A    
Cu2   O4    S    
Cu1   O3    S    
C7    H13   S    
C10   C38   A    
C16   O6    A    
C26   H25   S    
C2    C3    A    
C4    O4    A    
C5    C6    A    
C33   H21   S    
C9    C38   A    
C33   C35   S    
C19   C24   A    
C35   H19   S    
C16   O5    A    
C3    C8    A    
C10   H11   S    
C4    O3    A    
C3    C11   A    
C20   C21   A    
C8    H24   S    
C20   C25   A    
C14   C15   A    
C37   H14   S    
C16   C38   S    
