data_mof_unit_pretest_1053.cif
_audit_creation_date              2012-12-10T16:50:59-0500
_audit_creation_method            fapswitch 2.2
_symmetry_space_group_name_H-M    P1
_symmetry_Int_Tables_number       1
_space_group_crystal_system       triclinic
_cell_length_a                    8.074427
_cell_length_b                    8.537793
_cell_length_c                    10.542048
_cell_angle_alpha                 91.525104
_cell_angle_beta                  87.657614
_cell_angle_gamma                 92.903758
_cell_volume                      724.986468027

loop_
_atom_site_label
_atom_site_type_symbol
_atom_type_description
_atom_site_fract_x
_atom_site_fract_y
_atom_site_fract_z
_atom_type_partial_charge
C1    C     C_R   0.544058 0.792971 0.497021 0.933339
C2    C     C_R   0.934684 0.508769 0.075839 -0.070359
C3    C     C_R   0.070708 0.597990 0.028882 -0.153356
C4    C     C_R   0.929291 0.402025 0.971122 -0.153362
C5    C     C_R   0.209590 0.609114 0.104008 -0.175619
C6    C     C_R   0.790410 0.390899 0.895997 -0.175644
C7    C     C_R   0.351804 0.534957 0.062222 0.114721
C8    C     C_R   0.648195 0.465057 0.937780 0.114716
C9    C     C_R   0.353008 0.456037 0.944468 0.083938
C10   C     C_R   0.646991 0.543979 0.055533 0.083939
C11   C     C_R   0.498370 0.553875 0.125853 -0.249293
C12   C     C_R   0.455942 0.207029 0.502981 0.933337
C13   C     C_R   0.501629 0.446136 0.874149 -0.249283
C14   C     C_2   0.002635 0.305846 0.435060 1.093722
C15   C     C_2   0.997385 0.694168 0.564909 1.093889
C16   C     C_2   0.566559 0.956963 0.494632 -0.371409
C17   C     C_2   0.433442 0.043037 0.505374 -0.371442
C18   C     C_R   0.500824 0.479532 0.738413 0.873986
C19   C     C_R   0.499176 0.520470 0.261587 0.873999
C20   C     C_R   0.203520 0.407191 0.892886 -0.197191
C21   C     C_R   0.796477 0.592826 0.107116 -0.197196
C22   C     C_R   0.065313 0.491248 0.924165 -0.070363
H1    H     H_    0.956525 0.282336 0.994021 0.164418
H2    H     H_    0.307094 0.993819 0.516376 0.231411
H3    H     H_    0.119608 0.164158 0.308377 0.330783
H4    H     H_    0.880563 0.835916 0.691614 0.330808
H5    H     H_    0.043475 0.717680 0.005984 0.164422
H6    H     H_    0.198592 0.323336 0.813602 0.166278
H7    H     H_    0.801403 0.676677 0.186403 0.166281
H8    H     H_    0.039933 0.549575 0.836803 0.213326
H9    H     H_    0.960063 0.450444 0.163201 0.213302
H10   H     H_    0.211309 0.690199 0.184963 0.167384
H11   H     H_    0.788691 0.309811 0.815043 0.167382
H12   H     H_    0.692907 0.006182 0.483630 0.231421
N1    N     N_2   0.950330 0.457950 0.466250 -0.208821
N2    N     N_2   0.049670 0.542050 0.533750 -0.208796
O1    O     O_R   0.389250 0.738570 0.508280 -0.609014
O2    O     O_R   0.091394 0.278073 0.320825 -0.826038
O3    O     O_2   0.034533 0.801770 0.493339 -0.650358
O4    O     O_R   0.908721 0.721996 0.679167 -0.826121
O5    O     O_R   0.610750 0.261430 0.491720 -0.609005
O6    O     O_R   0.678390 0.711630 0.486650 -0.614933
O7    O     O_R   0.321610 0.288370 0.513350 -0.614917
O8    O     O_R   0.355430 0.513480 0.694040 -0.636986
O9    O     O_R   0.644570 0.486520 0.305960 -0.637003
O10   O     O_R   0.644570 0.486540 0.672410 -0.585274
O11   O     O_R   0.355430 0.513460 0.327590 -0.585226
O12   O     O_2   0.965472 0.198201 0.506622 -0.650311
Zn1   Zn    Zn3+2 0.306940 0.517990 0.514440 0.975267
Zn2   Zn    Zn3+2 0.693060 0.482010 0.485560 0.975250

loop_
_geom_bond_atom_site_label_1
_geom_bond_atom_site_label_2
_ccdc_geom_bond_type
O8    Zn1   S    
C12   C17   S    
C2    C4    A    
C19   O9    A    
C8    C13   A    
C18   O8    A    
H3    O2    S    
C14   O2    S    
O1    Zn1   S    
O10   Zn2   S    
C9    C20   A    
N1    N2    D    
C6    H11   S    
C1    O1    A    
C5    H10   S    
C15   O3    D    
N1    Zn2   S    
C3    H5    S    
C2    C3    A    
O11   Zn1   S    
C1    C16   S    
C22   H8    S    
C7    C11   A    
C11   C19   S    
C12   O5    A    
C2    C21   A    
O9    Zn2   S    
O6    Zn2   S    
C14   O12   D    
C18   O10   A    
C8    C10   A    
C20   C22   A    
C12   O7    A    
C5    C7    A    
C2    H9    S    
C10   C21   A    
O5    Zn2   S    
C19   O11   A    
C15   O4    S    
C17   H2    S    
C10   C11   A    
C1    O6    A    
H4    O4    S    
C4    C22   A    
C13   C18   S    
C4    C6    A    
C14   N1    S    
C7    C9    A    
C4    H1    S    
C9    C13   A    
O7    Zn1   S    
C3    C22   A    
C6    C8    A    
C20   H6    S    
C16   H12   S    
C15   N2    S    
C21   H7    S    
N2    Zn1   S    
C16   C17   D    
C3    C5    A    
