data_mof_unit_pretest_874.cif
_audit_creation_date              2013-03-05T15:46:54-0500
_audit_creation_method            fapswitch 2.2
_symmetry_space_group_name_H-M    P1
_symmetry_Int_Tables_number       1
_space_group_crystal_system       triclinic
_cell_length_a                    14.949123
_cell_length_b                    14.914528
_cell_length_c                    15.141128
_cell_angle_alpha                 109.309106
_cell_angle_beta                  110.686711
_cell_angle_gamma                 109.130186
_cell_volume                      2575.20585339

loop_
_atom_site_label
_atom_site_type_symbol
_atom_site_description
_atom_site_fract_x
_atom_site_fract_y
_atom_site_fract_z
_atom_type_partial_charge
C1    C     C_R   0.194831 0.995833 0.905118 -0.115371
C2    C     C_R   0.751175 0.935871 0.030098 -0.112057
H1    H     H_    0.165390 0.019415 0.845348 0.120689
H2    H     H_    0.758420 0.880918 0.060302 0.127660
N1    N     N_R   0.293810 0.002730 0.945950 -0.053203
N2    N     N_R   0.706190 0.997270 0.054050 -0.041598
C3    C     C_R   0.756394 0.223202 0.315197 -0.069428
C4    C     C_R   0.194560 0.792443 0.700496 -0.100764
H3    H     H_    0.775033 0.201822 0.377773 0.128246
H4    H     H_    0.170937 0.825362 0.648692 0.148079
N3    N     N_R   0.706160 0.152130 0.208910 -0.054081
N4    N     N_R   0.293840 0.847870 0.791090 -0.049203
C5    C     C_R   0.410104 0.919475 0.214552 0.616561
C6    C     C_R   0.585091 0.039395 0.771449 0.581313
N5    N     N_R   0.443140 0.945920 0.152090 -0.112445
N6    N     N_R   0.556860 0.054080 0.847910 -0.121227
C7    C     C_R   0.590450 0.315456 0.043642 0.553972
C8    C     C_R   0.412359 0.700094 0.005094 0.593364
N7    N     N_R   0.556830 0.208940 0.002760 -0.094258
N8    N     N_R   0.443170 0.791060 0.997240 -0.096319
C9    C     C_R   0.594815 0.015471 0.308140 -0.101657
C10   C     C_R   0.402286 0.934528 0.685947 -0.148103
H5    H     H_    0.680230 0.048257 0.366218 0.153615
H6    H     H_    0.315966 0.880263 0.623981 0.130836
N9    N     N_R   0.556790 0.002750 0.208910 -0.099548
N10   N     N_R   0.443210 0.997250 0.791090 -0.082764
C11   C     C_R   0.407115 0.223344 0.965566 -0.232242
C12   C     C_R   0.594563 0.797531 0.102060 -0.188410
H7    H     H_    0.321228 0.200057 0.933059 0.139899
H8    H     H_    0.678840 0.839335 0.166969 0.137623
N11   N     N_R   0.443180 0.152110 0.945950 -0.065260
N12   N     N_R   0.556820 0.847890 0.054050 -0.078542
C13   C     C_R   0.756961 0.315764 0.226103 -0.169913
C14   C     C_R   0.192354 0.703471 0.792095 -0.130470
H9    H     H_    0.777264 0.381652 0.209330 0.167417
H10   H     H_    0.163409 0.655817 0.826339 0.149860
N13   N     N_R   0.706170 0.208950 0.152090 -0.050046
N14   N     N_R   0.293830 0.791050 0.847910 -0.042111
C15   C     C_R   0.197264 0.906020 0.996955 -0.070136
C16   C     C_R   0.761043 0.034813 0.947158 -0.134625
H11   H     H_    0.170797 0.845673 0.019996 0.158025
H12   H     H_    0.789908 0.079006 0.910968 0.159514
N15   N     N_R   0.293800 0.945910 0.002760 -0.051147
N16   N     N_R   0.706200 0.054090 0.997240 -0.048404
C17   C     C_R   0.132090 0.934136 0.934624 0.014054
C18   C     C_R   0.783270 0.955289 0.959691 0.049076
C19   C     C_R   0.782033 0.326367 0.328101 0.084319
C20   C     C_R   0.126878 0.702978 0.700113 0.086410
C21   C     C_R   0.504323 0.967326 0.314968 0.042045
C22   C     C_R   0.489592 0.960679 0.671188 0.168157
C23   C     C_R   0.499716 0.328377 0.034116 -0.079141
C24   C     C_R   0.506437 0.704906 0.076892 -0.090254
Ni1   Ni    Ni4+2 0.369690 0.999990 0.869700 0.216843
Ni2   Ni    Ni4+2 0.630310 0.000010 0.130300 0.198103
Ni3   Ni    Ni4+2 0.369670 0.869670 0.000000 0.259927
Ni4   Ni    Ni4+2 0.630330 0.130330 0.000000 0.223808
H13   H     H_    0.051518 0.145705 0.033243 0.142494
H14   H     H_    0.017967 0.984156 0.463550 0.128604
C25   C     C_R   0.112358 0.242730 0.967886 -0.109143
C26   C     C_R   0.859493 0.878136 0.433114 0.033042
H15   H     H_    0.030555 0.215535 0.904266 0.128484
H16   H     H_    0.882144 0.920964 0.517558 0.142079
C27   C     C_R   0.205875 0.319517 0.979131 -0.247777
C28   C     C_R   0.753512 0.788077 0.354773 -0.119105
H17   H     H_    0.195231 0.351033 0.923492 0.148079
H18   H     H_    0.694314 0.762436 0.379344 0.209256
C29   C     C_R   0.312453 0.355871 0.061916 -0.029708
C30   C     C_R   0.724723 0.729117 0.245933 -0.113543
C31   C     C_R   0.324923 0.312669 0.133041 0.634410
C32   C     C_R   0.804957 0.758622 0.216169 0.642753
C33   C     C_R   0.229186 0.236760 0.121747 -0.264437
C34   C     C_R   0.909705 0.854351 0.295294 -0.278878
H19   H     H_    0.235301 0.205909 0.177728 0.153899
H20   H     H_    0.970745 0.884981 0.274410 0.137678
C35   C     C_R   0.124077 0.202550 0.039872 -0.154150
C36   C     C_R   0.936651 0.912655 0.403020 -0.123700
C37   C     C_R   0.416172 0.541903 0.091327 -0.260811
C38   C     C_R   0.607770 0.530165 0.152075 -0.183954
H21   H     H_    0.343291 0.548759 0.077056 0.188298
H22   H     H_    0.683944 0.528748 0.185697 0.173338
C39   C     C_R   0.513864 0.629743 0.119296 0.076125
C40   C     C_R   0.504877 0.433502 0.088354 0.105819
C41   C     C_R   0.613983 0.629406 0.168194 0.108832
C42   C     C_R   0.410925 0.442523 0.077177 0.086026
C43   C     C_R   0.866108 0.528372 0.430176 -0.300042
C44   C     C_R   0.957267 0.530284 0.626229 -0.312839
H23   H     H_    0.829087 0.529685 0.355385 0.170262
H24   H     H_    0.990269 0.530155 0.702154 0.175909
C45   C     C_R   0.950279 0.626897 0.525622 0.396617
C46   C     C_R   0.866074 0.433760 0.532631 0.374329
C47   C     C_R   0.008211 0.623510 0.619918 -0.059855
C48   C     C_R   0.834075 0.429386 0.430932 -0.062047
C49   C     C_R   0.545722 0.908438 0.539557 0.190222
C50   C     C_R   0.435586 0.999995 0.436964 0.247220
C51   C     C_R   0.568353 0.934409 0.466803 0.466731
C52   C     C_R   0.420259 0.984963 0.516530 0.414254
C53   C     C_R   0.505977 0.970490 0.410168 -0.303533
C54   C     C_R   0.478115 0.942275 0.569026 -0.304810
C55   C     C_R   0.970457 0.846433 0.949582 -0.160073
C56   C     C_R   0.869982 0.939507 0.846786 -0.126179
H25   H     H_    0.008006 0.811133 0.991878 0.120136
H26   H     H_    0.832621 0.976569 0.806747 0.147018
C57   C     C_R   0.882716 0.852191 0.956455 -0.157724
C58   C     C_R   0.958854 0.934818 0.840740 -0.118538
H27   H     H_    0.856631 0.821652 0.003607 0.141591
H28   H     H_    0.988247 0.969669 0.797553 0.135806
C59   C     C_R   0.840968 0.910208 0.915892 0.139926
C60   C     C_R   0.016816 0.899336 0.902531 0.141699
O1    O     O_3   0.430517 0.355176 0.219106 -0.628865
C61   C     C_3   0.447626 0.270870 0.230240 -0.125544
H29   H     H_    0.412644 0.197816 0.149905 0.108785
H30   H     H_    0.413391 0.246676 0.278173 0.194509
H31   H     H_    0.538126 0.303266 0.276650 0.189303
O2    O     O_3   0.773967 0.700754 0.107386 -0.643596
C62   C     C_3   0.855511 0.676920 0.098843 -0.260699
H32   H     H_    0.879528 0.638147 0.147654 0.177066
H33   H     H_    0.929147 0.750920 0.121811 0.139310
H34   H     H_    0.820888 0.618071 0.011937 0.171795
N17   N     N_R   0.975268 0.727718 0.524780 0.215184
O3    O     O_R   0.973716 0.733154 0.440290 -0.459784
O4    O     O_R   0.986904 0.810273 0.602798 -0.450154
N18   N     N_R   0.806741 0.343660 0.542585 0.218393
O5    O     O_R   0.858193 0.327449 0.619916 -0.454728
O6    O     O_R   0.699051 0.288915 0.485939 -0.376121
N19   N     N_R   0.591846 0.850834 0.584171 0.256394
O7    O     O_R   0.555195 0.809581 0.635928 -0.402522
O8    O     O_R   0.656330 0.822638 0.557742 -0.368048
N20   N     N_R   0.390359 0.056860 0.392347 0.264111
O9    O     O_R   0.285057 0.007851 0.322271 -0.417456
O10   O     O_R   0.456566 0.150842 0.408830 -0.359249
O11   O     O_3   0.655262 0.931740 0.455334 -0.607349
C63   C     C_3   0.753976 0.030366 0.543521 -0.158492
H35   H     H_    0.785109 0.023790 0.618116 0.171767
H36   H     H_    0.744254 0.104330 0.562684 0.179976
H37   H     H_    0.818058 0.045286 0.520962 0.127861
O12   O     O_3   0.365760 0.030056 0.556938 -0.603949
C64   C     C_3   0.249723 0.958465 0.488902 -0.093042
H38   H     H_    0.223296 0.872999 0.429846 0.106471
H39   H     H_    0.212410 0.994242 0.443876 0.186076
H40   H     H_    0.214296 0.952826 0.541373 0.144554
O13   O     O_3   0.302479 0.842413 0.174939 -0.623964
C65   C     C_3   0.299715 0.756186 0.195622 -0.179358
H41   H     H_    0.308663 0.776328 0.276743 0.123621
H42   H     H_    0.363128 0.735126 0.189622 0.127312
H43   H     H_    0.217564 0.681394 0.133296 0.179618
O14   O     O_3   0.683933 0.105143 0.783543 -0.660570
C66   C     C_3   0.724414 0.216463 0.854014 -0.263426
H44   H     H_    0.737974 0.233186 0.936279 0.161977
H45   H     H_    0.667720 0.242731 0.815590 0.169077
H46   H     H_    0.805664 0.266274 0.865573 0.182763
O15   O     O_3   0.683978 0.387463 0.052505 -0.667470
C67   C     C_3   0.652276 0.402584 0.961241 -0.261911
H47   H     H_    0.630060 0.467910 0.975655 0.199169
H48   H     H_    0.582011 0.325988 0.883554 0.140844
H49   H     H_    0.723647 0.429216 0.949682 0.164085
O16   O     O_3   0.303864 0.627774 0.965593 -0.647447
C68   C     C_3   0.265590 0.535568 0.866182 -0.332661
H50   H     H_    0.311157 0.490766 0.878642 0.157200
H51   H     H_    0.271957 0.559085 0.805182 0.161495
H52   H     H_    0.176985 0.477970 0.831203 0.190912

loop_
_geom_bond_atom_site_label_1
_geom_bond_atom_site_label_2
_geom_bond_distance
_ccdc_geom_bond_type
N7    Ni4   1.851483 S    
C55   C57   1.379486 A    
C27   H17   1.082647 S    
C68   H50   1.112205 S    
C11   H7    1.076831 S    
C19   C48   1.472705 S    
C66   H44   1.112559 S    
C34   C36   1.395378 A    
N7    N11   1.373424 A    
N20   O9    1.300376 A    
C7    C23   1.396157 A    
C58   H28   1.081160 S    
O2    C62   1.412125 S    
H14   C36   1.082471 S    
C52   O12   1.389099 S    
C2    N2    1.333653 A    
C2    C18   1.387443 A    
C3    N3    1.331807 A    
C55   C60   1.404480 A    
C64   H39   1.107987 S    
C1    N1    1.339421 A    
C28   C30   1.402410 A    
C10   H6    1.076284 S    
N1    Ni1   1.883010 S    
O16   C68   1.411049 S    
C66   H45   1.109170 S    
C44   C47   1.402737 A    
C38   H22   1.081498 S    
N5    N9    1.373422 A    
C62   H32   1.113906 S    
C56   C58   1.385984 A    
C26   H16   1.081512 S    
C31   C33   1.412922 A    
C38   C40   1.397655 A    
C61   H29   1.113932 S    
C13   H9    1.070671 S    
N13   Ni4   1.860543 S    
C31   O1    1.391491 S    
C38   C41   1.383463 A    
N14   Ni3   1.860545 S    
C45   N17   1.431326 S    
C63   H35   1.110722 S    
C62   H33   1.109147 S    
C20   C47   1.474594 S    
C52   C54   1.412466 A    
O15   C67   1.413640 S    
C5    O13   1.385504 S    
C45   C47   1.412013 A    
C14   H10   1.077894 S    
N4    Ni1   1.850488 S    
C17   C60   1.459601 S    
C10   C22   1.354831 A    
C43   H23   1.080747 S    
N1    N15   1.392886 A    
C29   C42   1.485219 S    
C68   H51   1.113368 S    
N2    N16   1.392886 A    
C51   O11   1.381452 S    
C46   N18   1.436114 S    
C65   H43   1.109147 S    
C7    O15   1.383542 S    
N6    Ni4   1.861465 S    
N2    Ni2   1.883011 S    
N8    Ni3   1.851482 S    
N12   Ni2   1.850741 S    
C39   C41   1.418729 A    
C43   C48   1.400244 A    
C11   C23   1.391344 A    
C49   N19   1.453554 S    
N17   O4    1.301643 A    
N6    N10   1.373422 A    
C49   C51   1.391969 A    
C64   H40   1.109498 S    
C27   C29   1.406047 A    
C22   C54   1.413617 S    
C25   H15   1.082650 S    
C44   H24   1.079962 S    
C11   N11   1.336976 A    
C12   N12   1.326625 A    
C66   H46   1.109156 S    
N9    Ni2   1.883554 S    
C34   H20   1.080504 S    
C44   C46   1.392408 A    
C33   H19   1.081329 S    
C43   C45   1.389253 A    
C15   N15   1.325665 A    
C37   C42   1.396742 A    
C26   C36   1.392972 A    
C32   O2    1.389655 S    
C29   C31   1.416131 A    
N5    Ni3   1.861462 S    
C8    C24   1.402465 A    
C2    H2    1.078735 S    
C4    C20   1.382044 A    
N16   Ni4   1.851605 S    
C46   C48   1.413109 A    
C61   H31   1.110374 S    
C67   H49   1.107647 S    
C37   C39   1.403784 A    
C4    N4    1.332383 A    
C62   H34   1.107694 S    
C18   C59   1.457808 S    
C56   H26   1.081547 S    
C37   H21   1.079564 S    
C57   H27   1.079137 S    
N11   Ni1   1.850741 S    
C50   C52   1.376252 A    
C23   C40   1.470734 S    
C28   H18   1.082908 S    
N3    Ni2   1.850488 S    
C5    C21   1.383978 A    
C9    C21   1.366584 A    
N15   Ni3   1.851606 S    
C55   H25   1.079400 S    
C67   H48   1.115302 S    
C68   H52   1.109345 S    
C40   C42   1.410802 A    
C9    H5    1.075128 S    
N19   O7    1.301607 A    
C13   C19   1.393273 A    
C6    N6    1.343305 A    
C14   C20   1.386784 A    
C16   C18   1.384118 A    
N18   O6    1.301445 A    
O11   C63   1.417910 S    
N10   Ni1   1.883557 S    
C25   C35   1.394151 A    
C58   C60   1.400495 A    
C65   H42   1.114754 S    
C8    O16   1.375901 S    
N3    N13   1.393009 A    
O14   C66   1.405338 S    
N8    N12   1.373426 A    
C3    H3    1.071692 S    
C9    N9    1.324339 A    
C56   C59   1.404530 A    
C14   N14   1.336815 A    
C30   C41   1.479755 S    
C4    H4    1.074066 S    
O12   C64   1.416478 S    
N20   O10   1.300568 A    
C57   C59   1.396442 A    
N17   O3    1.300973 A    
C51   C53   1.401267 A    
C50   N20   1.436939 S    
C64   H38   1.116705 S    
C6    O14   1.385215 S    
C25   C27   1.395885 A    
C50   C53   1.397370 A    
C15   C17   1.376828 A    
C26   C28   1.394652 A    
H13   C35   1.081423 S    
C5    N5    1.320193 A    
O13   C65   1.412196 S    
C33   C35   1.395019 A    
C12   C24   1.376059 A    
C1    C17   1.388610 A    
C6    C22   1.382964 A    
C63   H37   1.107081 S    
C12   H8    1.070974 S    
C7    N7    1.328937 A    
C13   N13   1.340007 A    
C8    N8    1.342678 A    
N4    N14   1.393009 A    
C24   C39   1.479334 S    
C61   H30   1.110589 S    
C21   C53   1.417613 S    
C16   N16   1.333941 A    
C67   H47   1.108991 S    
C15   H11   1.077078 S    
C63   H36   1.115991 S    
C10   N10   1.317452 A    
N19   O8    1.301212 A    
C30   C32   1.415094 A    
C16   H12   1.067879 S    
C65   H41   1.109204 S    
C32   C34   1.415565 A    
C1    H1    1.080266 S    
N18   O5    1.301481 A    
O1    C61   1.412568 S    
C49   C54   1.406853 A    
C3    C19   1.383587 A    
