data_mof_unit_pretest_53.cif
_audit_creation_date              2012-12-10T18:54:27-0500
_audit_creation_method            fapswitch 2.2
_symmetry_space_group_name_H-M    P1
_symmetry_Int_Tables_number       1
_space_group_crystal_system       triclinic
_cell_length_a                    19.423766
_cell_length_b                    18.198132
_cell_length_c                    9.068207
_cell_angle_alpha                 90.003363
_cell_angle_beta                  91.444193
_cell_angle_gamma                 90.015285
_cell_volume                      3204.37755079

loop_
_atom_site_label
_atom_site_type_symbol
_atom_type_description
_atom_site_fract_x
_atom_site_fract_y
_atom_site_fract_z
_atom_type_partial_charge
C1    C     C_R   0.367493 0.499978 0.502151 0.816724
C2    C     C_R   0.632504 0.500006 0.497787 0.817053
C3    C     C_R   0.461112 0.721819 0.396767 0.395952
C4    C     C_R   0.545163 0.278374 0.591171 0.400183
C5    C     C_R   0.538906 0.721814 0.603247 0.396245
C6    C     C_R   0.454829 0.278360 0.408827 0.400019
C7    C     C_R   0.462819 0.799514 0.392875 -0.304416
C8    C     C_R   0.545355 0.200573 0.591819 -0.304499
C9    C     C_R   0.537214 0.799507 0.607240 -0.304459
C10   C     C_R   0.454625 0.200560 0.408122 -0.304621
C11   C     C_R   0.500013 0.839072 0.500085 0.173605
C12   C     C_R   0.499990 0.161079 0.499959 0.146059
C13   C     C_R   0.554502 0.960963 0.436289 0.142571
C14   C     C_R   0.445906 0.039132 0.565607 0.153017
C15   C     C_R   0.445517 0.960940 0.563835 0.142507
C16   C     C_R   0.554084 0.039153 0.434399 0.153022
C17   C     C_R   0.499988 0.078465 0.499969 -0.018013
C18   C     C_R   0.500017 0.921658 0.500096 -0.020566
C19   C     C_R   0.499831 0.499999 0.220496 0.853594
C20   C     C_R   0.500169 0.500002 0.779504 0.853682
C21   C     C_1   0.499937 0.500004 0.065523 -0.204739
C22   C     C_1   0.500063 0.500008 0.934477 -0.204715
C23   C     C_R   0.744381 0.433654 0.484589 -0.196016
C24   C     C_R   0.255192 0.566158 0.502746 -0.195204
C25   C     C_R   0.255739 0.433385 0.516115 -0.195982
C26   C     C_R   0.744634 0.566404 0.494915 -0.206491
C27   C     C_R   0.816364 0.432825 0.484755 0.156301
C28   C     C_R   0.183204 0.566665 0.501953 0.160130
C29   C     C_R   0.183750 0.432317 0.515342 0.157847
C30   C     C_R   0.816551 0.567347 0.494812 0.166839
C31   C     C_R   0.852790 0.499996 0.491070 0.072366
C32   C     C_R   0.147273 0.499319 0.507039 0.064640
C33   C     C_R   0.708205 0.500008 0.492746 -0.120103
C34   C     C_R   0.291779 0.499849 0.506781 -0.121883
C35   C     C_R   0.964118 0.501266 0.630951 -0.182709
C36   C     C_R   0.035917 0.496866 0.367213 -0.186934
C37   C     C_R   0.035850 0.501127 0.634967 -0.186459
C38   C     C_R   0.964188 0.497038 0.363176 -0.181786
C39   C     C_R   0.071754 0.498984 0.503091 0.135174
C40   C     C_R   0.928281 0.499257 0.495053 0.122346
Cu1   Cu    Cu3+1 0.500000 0.573360 0.500000 0.974673
Cu2   Cu    Cu3+1 0.500000 0.426640 0.500000 0.970204
H1    H     H_    0.716499 0.382330 0.477548 0.171656
H2    H     H_    0.282727 0.617687 0.500445 0.166270
H3    H     H_    0.283729 0.382185 0.524659 0.171410
H4    H     H_    0.717134 0.617993 0.496207 0.171919
H5    H     H_    0.936474 0.503065 0.733151 0.135081
H6    H     H_    0.063565 0.495246 0.265005 0.131657
H7    H     H_    0.063430 0.502814 0.740232 0.131848
H8    H     H_    0.936614 0.495574 0.257890 0.134014
H9    H     H_    0.434520 0.829030 0.307311 0.146314
H10   H     H_    0.579840 0.170628 0.665635 0.152990
H11   H     H_    0.565544 0.829007 0.692814 0.146250
H12   H     H_    0.420124 0.170613 0.334300 0.152957
N1    N     N_R   0.500000 0.683620 0.500000 -0.205174
N2    N     N_R   0.500000 0.316380 0.500000 -0.210692
O1    O     O_R   0.400190 0.561980 0.499980 -0.562418
O2    O     O_R   0.599810 0.438020 0.500020 -0.558673
O3    O     O_R   0.599810 0.561980 0.500020 -0.562534
O4    O     O_R   0.400190 0.438020 0.499980 -0.558577
O5    O     O_R   0.500000 0.561940 0.288400 -0.574837
O6    O     O_R   0.500000 0.438060 0.711600 -0.584413
O7    O     O_R   0.500000 0.561940 0.711600 -0.574509
O8    O     O_R   0.500000 0.438060 0.288400 -0.584183
C41   C     C_3   0.853561 0.360176 0.479349 -0.880034
H13   H     H_    0.817168 0.313066 0.476359 0.225245
H14   H     H_    0.885062 0.357565 0.379029 0.237042
H15   H     H_    0.887716 0.354087 0.578621 0.238537
C42   C     C_3   0.145470 0.639034 0.495231 -0.882393
H16   H     H_    0.181538 0.686363 0.491983 0.224252
H17   H     H_    0.111850 0.641112 0.394480 0.237537
H18   H     H_    0.113329 0.645178 0.593998 0.237736
C43   C     C_3   0.146592 0.359709 0.522715 -0.880273
H19   H     H_    0.183031 0.312689 0.528141 0.225318
H20   H     H_    0.114654 0.358024 0.622480 0.237424
H21   H     H_    0.112843 0.352678 0.423071 0.237999
C44   C     C_3   0.851907 0.641211 0.498911 -0.898508
H22   H     H_    0.834446 0.674223 0.402017 0.232287
H23   H     H_    0.837999 0.670809 0.601031 0.232129
H24   H     H_    0.908804 0.637402 0.496750 0.246715
N3    N     N_2   0.420275 0.683060 0.290402 -0.370511
H25   H     H_    0.443760 0.678909 0.190019 0.246089
C45   C     C_3   0.349051 0.705897 0.274616 -0.729463
H26   H     H_    0.327442 0.719346 0.383592 0.222982
H27   H     H_    0.318352 0.660595 0.223969 0.238857
H28   H     H_    0.344656 0.754862 0.201833 0.208162
N4    N     N_2   0.589677 0.317628 0.690162 -0.374555
H29   H     H_    0.567707 0.327680 0.790444 0.249982
C46   C     C_3   0.660035 0.291864 0.705831 -0.736303
H30   H     H_    0.663173 0.244995 0.784185 0.209309
H31   H     H_    0.692919 0.336997 0.750332 0.239427
H32   H     H_    0.680104 0.274568 0.597534 0.232237
N5    N     N_2   0.579792 0.683051 0.709466 -0.369876
H33   H     H_    0.556466 0.679077 0.810055 0.245930
C47   C     C_3   0.651100 0.705716 0.724585 -0.732034
H34   H     H_    0.672556 0.718976 0.615374 0.225155
H35   H     H_    0.681762 0.660390 0.775175 0.237546
H36   H     H_    0.655756 0.754760 0.797111 0.207922
N6    N     N_2   0.410294 0.317604 0.309923 -0.374553
H37   H     H_    0.432173 0.327526 0.209489 0.249757
C48   C     C_3   0.339874 0.291942 0.294735 -0.735125
H38   H     H_    0.336550 0.245012 0.216535 0.209083
H39   H     H_    0.307020 0.337095 0.250304 0.239491
H40   H     H_    0.319911 0.274765 0.403203 0.232205
N7    N     N_2   0.608486 0.921213 0.368805 -0.417530
H41   H     H_    0.623424 0.940649 0.267773 0.255092
C49   C     C_3   0.665316 0.899268 0.465601 -0.701246
H42   H     H_    0.675813 0.839934 0.449251 0.237135
H43   H     H_    0.654014 0.908587 0.583764 0.223516
H44   H     H_    0.712305 0.930894 0.438845 0.208186
N8    N     N_2   0.391103 0.078763 0.630584 -0.415104
H45   H     H_    0.343184 0.055154 0.615967 0.262198
C50   C     C_3   0.404730 0.101943 0.781179 -0.708799
H46   H     H_    0.361008 0.135608 0.819542 0.224915
H47   H     H_    0.452094 0.135945 0.789118 0.238643
H48   H     H_    0.410869 0.053458 0.854731 0.210949
N9    N     N_2   0.391542 0.921168 0.631361 -0.417260
H49   H     H_    0.376607 0.940622 0.732380 0.255203
C51   C     C_3   0.334709 0.899160 0.534596 -0.701338
H50   H     H_    0.287715 0.930750 0.561362 0.208240
H51   H     H_    0.324228 0.839820 0.550969 0.236639
H52   H     H_    0.345997 0.908472 0.416424 0.223539
N10   N     N_2   0.608877 0.078807 0.369373 -0.415103
H53   H     H_    0.656802 0.055244 0.384010 0.262167
C52   C     C_3   0.595238 0.101925 0.218755 -0.708788
H54   H     H_    0.589107 0.053410 0.145258 0.210911
H55   H     H_    0.638952 0.135610 0.180347 0.224927
H56   H     H_    0.547868 0.135887 0.210790 0.238664

loop_
_geom_bond_atom_site_label_1
_geom_bond_atom_site_label_2
_ccdc_geom_bond_type
C15   C18   A    
N4    H29   S    
C11   C18   S    
N5    H33   S    
Cu2   O8    S    
C43   H20   S    
C43   H19   S    
C47   H34   S    
Cu1   O5    S    
C4    C8    A    
C35   H5    S    
Cu2   O2    S    
N3    H25   S    
C47   H36   S    
N10   H53   S    
C4    N4    S    
C44   H22   S    
C7    C11   A    
N7    C49   S    
C48   H38   S    
C13   C18   A    
C45   H26   S    
C35   C37   A    
C16   N10   S    
C29   C32   A    
C3    C7    A    
N9    C51   S    
C30   C31   A    
C44   H24   S    
C29   C43   S    
C23   H1    S    
C31   C40   S    
Cu1   Cu2   S    
C32   C39   S    
C42   H17   S    
Cu1   N1    S    
Cu2   N2    S    
C30   C44   S    
C3    N1    A    
C28   C42   S    
C16   C17   A    
C41   H14   S    
C12   C17   S    
C3    N3    S    
C52   H56   S    
C49   H42   S    
C23   C27   A    
C46   H31   S    
Cu2   O6    S    
C45   H27   S    
C25   C34   A    
C50   H48   S    
C51   H51   S    
C48   H39   S    
C21   C22   T    
C4    N2    A    
C49   H43   S    
C14   C17   A    
N3    C45   S    
C1    C34   S    
C44   H23   S    
C25   C29   A    
C14   N8    S    
C27   C31   A    
C28   C32   A    
Cu1   O3    S    
C13   N7    S    
C1    O4    A    
Cu2   O4    S    
C2    O3    A    
C23   C33   A    
C24   C34   A    
C15   N9    S    
C42   H18   S    
C5    C9    A    
C27   C41   S    
C1    O1    A    
C37   H7    S    
C26   C33   A    
N6    H37   S    
C19   O8    A    
C8    C12   A    
C41   H15   S    
C47   H35   S    
N8    C50   S    
C46   H32   S    
C9    C11   A    
C10   C12   A    
C2    C33   S    
N6    C48   S    
C20   C22   S    
C26   C30   A    
C48   H40   S    
N4    C46   S    
C52   H54   S    
C24   H2    S    
C43   H21   S    
C9    H11   S    
Cu1   O7    S    
C25   H3    S    
C50   H46   S    
C51   H52   S    
C8    H10   S    
N8    H45   S    
C19   C21   S    
C5    N1    A    
C36   C39   A    
C24   C28   A    
C6    N2    A    
C6    C10   A    
C5    N5    S    
C51   H50   S    
C2    O2    A    
C38   H8    S    
N7    H41   S    
C6    N6    S    
C20   O7    A    
C36   C38   A    
C35   C40   A    
Cu1   O1    S    
C37   C39   A    
N9    H49   S    
C38   C40   A    
C19   O5    A    
C49   H44   S    
C36   H6    S    
C20   O6    A    
C42   H16   S    
C10   H12   S    
N10   C52   S    
C26   H4    S    
C7    H9    S    
C45   H28   S    
N5    C47   S    
C41   H13   S    
C13   C16   A    
C52   H55   S    
C14   C15   A    
C46   H30   S    
C50   H47   S    
