data_mof_unit_pretest_290.cif
_audit_creation_date              2012-12-10T17:03:01-0500
_audit_creation_method            fapswitch 2.2
_symmetry_space_group_name_H-M    P1
_symmetry_Int_Tables_number       1
_space_group_crystal_system       triclinic
_cell_length_a                    9.902347
_cell_length_b                    10.777126
_cell_length_c                    13.216954
_cell_angle_alpha                 95.942893
_cell_angle_beta                  82.347188
_cell_angle_gamma                 109.625789
_cell_volume                      1314.10851689

loop_
_atom_site_label
_atom_site_type_symbol
_atom_type_description
_atom_site_fract_x
_atom_site_fract_y
_atom_site_fract_z
_atom_type_partial_charge
C1    C     C_R   0.553185 0.746115 0.511163 0.828801
C2    C     C_R   0.438614 0.549389 0.977969 -0.020170
C3    C     C_R   0.475851 0.566362 0.872931 -0.006332
C4    C     C_R   0.550710 0.585245 0.042638 0.085106
C5    C     C_R   0.687877 0.674945 0.011393 -0.026641
C6    C     C_R   0.710759 0.718890 0.911776 -0.049009
C7    C     C_R   0.608649 0.662245 0.842712 -0.094469
C8    C     C_R   0.530576 0.524479 0.134028 -0.175245
C9    C     C_R   0.760574 0.673484 0.181623 0.196118
C10   C     C_R   0.378326 0.488567 0.803171 -0.242209
C11   C     C_2   0.575592 0.887443 0.521098 -0.271343
C12   C     C_R   0.423708 0.489778 0.691400 0.832131
C13   C     C_2   0.473628 0.934536 0.570677 0.319504
C14   C     C_2   0.415110 0.111207 0.499292 0.291452
C15   C     C_2   0.487072 0.072211 0.562771 -0.270177
C16   C     C_2   0.924374 0.488441 0.485203 0.519534
C17   C     C_2   0.085733 0.531126 0.483977 0.021550
C18   C     C_R   0.444527 0.253304 0.494138 0.818951
C19   C     C_R   0.578711 0.524513 0.310656 0.881354
C20   C     C_R   0.795741 0.718870 0.080738 0.373496
C21   C     C_R   0.628789 0.570995 0.206170 -0.163517
C22   C     C_R   0.239186 0.406225 0.842860 0.253999
C23   C     C_R   0.190837 0.426403 0.946970 0.170144
C24   C     C_R   0.290388 0.503752 0.014344 0.177194
Cu1   Cu    Cu3+1 0.362000 0.479240 0.482530 1.131867
Cu2   Cu    Cu3+1 0.638000 0.520760 0.517470 1.116931
H1    H     H_    0.671928 0.952861 0.480864 0.193697
H2    H     H_    0.146496 0.633099 0.502907 0.206568
H3    H     H_    0.096628 0.350645 0.465892 0.286983
H4    H     H_    0.808355 0.793955 0.884198 0.235006
H5    H     H_    0.434793 0.441305 0.150690 0.184454
H6    H     H_    0.633670 0.698262 0.766893 0.183167
H7    H     H_    0.561371 0.144516 0.610328 0.183612
N1    N     N_2   0.845330 0.551960 0.543750 -0.116168
N2    N     N_2   0.154690 0.448120 0.456210 -0.224364
O1    O     O_R   0.426290 0.668220 0.490680 -0.547852
O2    O     O_R   0.659360 0.703290 0.520190 -0.538077
O3    O     O_R   0.326580 0.473880 0.629020 -0.512912
O4    O     O_R   0.559660 0.508940 0.658530 -0.588502
O5    O     O_R   0.340640 0.296710 0.479810 -0.509705
O6    O     O_R   0.573710 0.331780 0.509320 -0.551851
O7    O     O_R   0.440340 0.491060 0.341470 -0.532390
O8    O     O_R   0.673420 0.526120 0.370980 -0.514537
Br1   Br    Br    0.879914 0.762060 0.289372 -0.309747
Br2   Br    Br    0.317199 0.833015 0.662310 -0.370303
S1    S     S_3+6 0.285165 0.998779 0.424452 0.100363
O9    O     O_2   0.335664 0.886284 0.378816 -0.228045
O10   O     O_2   0.146421 0.945734 0.491672 -0.191078
O11   O     O_3   0.257057 0.077343 0.329796 -0.500207
H8    H     H_    0.172864 0.013556 0.299022 0.413943
S2    S     S_3+6 0.848043 0.332572 0.411240 0.052598
O12   O     O_2   0.792563 0.226579 0.486110 -0.340203
O13   O     O_2   0.730723 0.324559 0.347861 -0.242865
O14   O     O_3   0.971159 0.292399 0.326359 -0.506049
H9    H     H_    0.928628 0.196391 0.309564 0.392807
Br3   Br    Br    0.931023 0.700370 0.630347 -0.274787
S3    S     S_3+6 0.970408 0.830347 0.039797 0.075695
O15   O     O_2   0.078788 0.855027 0.115174 -0.188013
O16   O     O_2   0.027923 0.774421 0.941019 -0.236064
O17   O     O_3   0.952230 0.975133 0.019424 -0.496743
H10   H     H_    0.050720 0.032004 0.995799 0.397086
S4    S     S_3+6 0.128878 0.275656 0.765112 0.093179
O18   O     O_2   0.027954 0.166290 0.827451 -0.209031
O19   O     O_2   0.041625 0.329748 0.708029 -0.206254
O20   O     O_3   0.232133 0.209556 0.680938 -0.515870
H11   H     H_    0.286238 0.176280 0.723394 0.336310
S5    S     S_3+6 0.228725 0.566094 0.135846 0.116673
O21   O     O_2   0.340597 0.691196 0.170593 -0.195843
O22   O     O_2   0.092228 0.595592 0.130132 -0.145919
O23   O     O_3   0.196848 0.453848 0.222450 -0.451690
H12   H     H_    0.174973 0.367734 0.182486 0.353362
Br4   Br    Br    0.989703 0.349877 0.997633 -0.259455

loop_
_geom_bond_atom_site_label_1
_geom_bond_atom_site_label_2
_ccdc_geom_bond_type
Cu1   O7    S    
C2    C4    A    
C23   C24   A    
C19   O7    A    
Cu2   O2    S    
N1    Br3   S    
S4    O18   D    
C1    O2    A    
Cu1   O3    S    
C22   S4    S    
H3    N2    S    
C9    C20   A    
S4    O19   D    
C1    C11   S    
C16   S2    S    
C11   H1    S    
C1    O1    A    
C4    C8    A    
S2    O14   S    
C16   N1    D    
S5    O23   S    
C12   O4    A    
C2    C3    A    
Cu1   Cu2   S    
C14   S1    S    
C3    C10   A    
C10   C22   A    
C12   O3    A    
C11   C13   D    
S1    O11   S    
C9    C21   A    
S3    O15   D    
O23   H12   S    
C10   C12   S    
Cu1   N2    S    
C19   C21   S    
C19   O8    A    
Cu2   O8    S    
O11   H8    S    
C6    C7    A    
C3    C7    A    
C13   C15   S    
Cu1   O5    S    
C2    C24   A    
C5    C6    A    
S1    O10   D    
Cu2   O4    S    
S3    O16   D    
C16   C17   S    
Cu1   O1    S    
S5    O21   D    
S3    O17   S    
S2    O13   D    
C13   Br2   S    
O20   H11   S    
S1    O9    D    
C18   O6    A    
C5    C20   A    
C24   S5    S    
C14   C18   S    
O14   H9    S    
O17   H10   S    
C9    Br1   S    
C18   O5    A    
C7    H6    S    
C17   N2    D    
S4    O20   S    
C6    H4    S    
C20   S3    S    
C14   C15   D    
C17   H2    S    
C23   Br4   S    
Cu2   N1    S    
C22   C23   A    
C8    H5    S    
S2    O12   D    
Cu2   O6    S    
C15   H7    S    
C4    C5    A    
S5    O22   D    
C8    C21   A    
