data_mof_unit_pretest_404.cif
_audit_creation_date              2012-12-11T18:37:12-0500
_audit_creation_method            fapswitch 2.2
_symmetry_space_group_name_H-M    P1
_symmetry_Int_Tables_number       1
_space_group_crystal_system       triclinic
_cell_length_a                    8.217691
_cell_length_b                    14.293703
_cell_length_c                    26.995093
_cell_angle_alpha                 93.122643
_cell_angle_beta                  92.778779
_cell_angle_gamma                 88.421441
_cell_volume                      3161.45970091

loop_
_atom_site_label
_atom_site_type_symbol
_atom_type_description
_atom_site_fract_x
_atom_site_fract_y
_atom_site_fract_z
_atom_type_partial_charge
Ba1   Ba    Ba6+2 0.849670 0.455410 0.524690 1.642238
Ba2   Ba    Ba6+2 0.340150 0.544510 0.475310 1.657537
C1    C     C_3   0.668841 0.107580 0.664765 -0.362523
C2    C     C_R   0.989325 0.599701 0.182026 0.602198
C3    C     C_2   0.784586 0.577588 0.271632 -0.093234
C4    C     C_3   0.101279 0.253270 0.666138 0.334800
C5    C     C_3   0.760326 0.601344 0.326186 -0.105354
C6    C     C_1   0.980323 0.485900 0.344117 0.033525
C7    C     C_2   0.017223 0.476367 0.296542 -0.085877
C8    C     C_2   0.914225 0.523898 0.257314 0.224601
C9    C     C_R   0.039407 0.510009 0.104469 -0.076082
C10   C     C_R   0.013137 0.427194 0.128833 -0.033972
C11   C     C_R   0.027859 0.340813 0.102082 -0.052567
C12   C     C_3   0.636758 0.203639 0.644167 0.353953
C13   C     C_R   0.028234 0.596639 0.131430 -0.041979
C14   C     C_2   0.858524 0.539593 0.360460 -0.258523
C15   C     C_2   0.344962 0.472772 0.641457 -0.282330
C16   C     C_3   0.079846 0.226372 0.719124 -0.302094
C17   C     C_R   0.145632 0.413805 0.976915 0.021738
C18   C     C_R   0.110205 0.584883 0.975686 0.040444
C19   C     C_R   0.144189 0.497262 0.950689 0.052617
C20   C     C_R   0.193464 0.329114 0.951574 -0.100389
C21   C     C_R   0.232236 0.326379 0.901811 -0.055945
C22   C     C_R   0.222069 0.407575 0.874717 -0.022898
C23   C     C_3   0.534017 0.674623 0.622779 0.290316
C24   C     C_R   0.175610 0.492998 0.898887 -0.081760
C25   C     C_R   0.160298 0.574046 0.871352 -0.039866
C26   C     C_R   0.194930 0.568902 0.820193 0.601599
C27   C     C_R   0.258292 0.404616 0.823991 0.575396
C28   C     C_3   0.163408 0.258030 0.424028 0.311167
C29   C     C_2   0.421558 0.434703 0.729244 -0.085181
C30   C     C_3   0.437595 0.407479 0.674958 -0.046153
C31   C     C_1   0.211947 0.517220 0.656879 0.030982
C32   C     C_2   0.170415 0.520236 0.704349 -0.102480
C33   C     C_2   0.283657 0.479819 0.744149 0.196076
C34   C     C_3   0.531807 0.696468 0.678504 -0.354049
C35   C     C_R   0.098546 0.417703 0.027255 0.025159
C36   C     C_R   0.078073 0.506096 0.053257 0.050174
C37   C     C_R   0.098247 0.590388 0.028623 -0.020293
C38   C     C_R   0.070167 0.336009 0.052578 -0.097050
C39   C     C_R   0.064396 0.678426 0.108177 -0.086017
C40   C     C_3   0.166710 0.152307 0.413699 -0.384440
C41   C     C_R   0.080746 0.663033 0.946280 -0.044972
C42   C     C_R   0.107873 0.658171 0.895486 -0.047679
C43   C     C_R   0.107100 0.676063 0.058381 -0.043944
C44   C     C_R   0.690808 0.065069 0.474193 -0.033898
C45   C     C_3   0.011953 0.783824 0.336382 0.365407
C46   C     C_R   0.511326 0.198634 0.502308 0.045324
C47   C     C_R   0.375848 0.230263 0.528270 -0.298236
C48   C     C_R   0.276915 0.167341 0.549404 0.015895
C49   C     C_R   0.322049 0.072765 0.549546 -0.144607
C50   C     C_R   0.462921 0.039874 0.526012 -0.007092
C51   C     C_R   0.556411 0.101921 0.500458 -0.027870
C52   C     C_3   0.032154 0.742829 0.576083 0.310174
C53   C     C_R   0.642640 0.908699 0.501098 -0.015339
C54   C     C_R   0.736714 0.969862 0.475286 0.007589
C55   C     C_R   0.686479 0.812592 0.500297 0.035516
C56   C     C_3   0.000143 0.837755 0.289275 -0.311726
C57   C     C_R   0.819965 0.778680 0.474307 -0.276852
C58   C     C_R   0.920983 0.839548 0.452750 -0.000080
C59   C     C_R   0.877991 0.935043 0.451988 -0.140344
C60   C     C_R   0.507448 0.944965 0.526575 -0.042756
C61   C     C_3   0.034972 0.848510 0.586610 -0.379518
C62   C     C_3   0.659636 0.340845 0.380174 0.294782
C63   C     C_3   0.664220 0.317964 0.324566 -0.349857
C64   C     C_2   0.186418 0.760644 0.042183 0.849763
C65   C     C_3   0.542311 0.785138 0.323796 0.340563
C66   C     C_3   0.458779 0.871652 0.302816 -0.333692
C67   C     C_R   0.971878 0.432477 0.179378 0.595528
H1    H     H_    0.679942 0.201574 0.605721 0.075234
H2    H     H_    0.782453 0.360803 0.394640 0.005995
H3    H     H_    0.572749 0.400498 0.386500 0.090275
H4    H     H_    0.800060 0.087751 0.663532 0.149318
H5    H     H_    0.756841 0.261587 0.317015 0.132078
H6    H     H_    0.695911 0.381006 0.305249 0.080945
H7    H     H_    0.542839 0.294412 0.309731 0.134713
H8    H     H_    0.502727 0.217153 0.643202 -0.061327
H9    H     H_    0.597902 0.054361 0.642031 0.073149
H10   H     H_    0.409335 0.656449 0.608781 0.016789
H11   H     H_    0.618647 0.613841 0.616044 0.072577
H12   H     H_    0.254088 0.132518 0.384562 0.127639
H13   H     H_    0.443534 0.754901 0.686591 0.136231
H14   H     H_    0.495296 0.633828 0.697381 0.073752
H15   H     H_    0.631135 0.108115 0.703734 0.124629
H16   H     H_    0.075124 0.290659 0.743878 0.122306
H17   H     H_    0.036637 0.708552 0.326411 0.064688
H18   H     H_    0.892573 0.792532 0.353992 -0.122211
H19   H     H_    0.111779 0.824859 0.268143 0.152601
H20   H     H_    0.893017 0.815000 0.265543 0.119565
H21   H     H_    0.985857 0.914011 0.298853 0.095390
H22   H     H_    0.649001 0.768334 0.300982 -0.035300
H23   H     H_    0.204445 0.116211 0.447837 0.065732
H24   H     H_    0.583341 0.802312 0.363098 0.005898
H25   H     H_    0.548976 0.927781 0.301351 0.064137
H26   H     H_    0.360234 0.898399 0.326730 0.154525
H27   H     H_    0.026999 0.318057 0.659790 0.093131
H28   H     H_    0.407912 0.854874 0.264607 0.124249
H29   H     H_    0.124615 0.435687 0.285818 0.109265
H30   H     H_    0.006813 0.275918 0.119443 0.129009
H31   H     H_    0.509715 0.406522 0.756115 0.116529
H32   H     H_    0.269270 0.259548 0.884437 0.124635
H33   H     H_    0.206754 0.263816 0.969724 0.077223
H34   H     H_    0.043338 0.128868 0.400805 0.116673
H35   H     H_    0.075120 0.266888 0.034549 0.079115
H36   H     H_    0.708723 0.613441 0.244199 0.093024
H37   H     H_    0.068563 0.744541 0.129846 0.150870
H38   H     H_    0.031967 0.728529 0.961784 0.078051
H39   H     H_    0.231785 0.267019 0.661841 -0.052533
H40   H     H_    0.087071 0.720952 0.875101 0.122998
H41   H     H_    0.054312 0.551762 0.714546 0.127558
H42   H     H_    0.842400 0.551976 0.399953 0.079836
H43   H     H_    0.374802 0.470572 0.602682 0.079471
H44   H     H_    0.340381 0.303772 0.528911 0.070856
H45   H     H_    0.906692 0.721817 0.565725 -0.004491
H46   H     H_    0.245362 0.024842 0.566916 0.074472
H47   H     H_    0.955355 0.981715 0.434079 0.066303
H48   H     H_    0.852355 0.704738 0.473943 0.056195
H49   H     H_    0.762035 0.109241 0.452887 0.098992
H50   H     H_    0.964115 0.189401 0.722014 0.144688
H51   H     H_    0.434069 0.900044 0.546871 0.091511
H52   H     H_    0.182640 0.179837 0.731497 0.123701
H53   H     H_    0.288263 0.281234 0.433893 0.002461
H54   H     H_    0.083452 0.275348 0.455375 0.068228
H55   H     H_    0.655129 0.716672 0.693270 0.132939
H56   H     H_    0.112722 0.723909 0.545126 0.067058
H57   H     H_    0.367520 0.813352 0.005108 0.319692
H58   H     H_    0.947697 0.869941 0.615526 0.131638
H59   H     H_    0.000755 0.885559 0.552529 0.062110
H60   H     H_    0.159446 0.869503 0.599839 0.117932
N1    N     N_R   0.958830 0.518333 0.205399 -0.424031
N2    N     N_R   0.244439 0.484732 0.796802 -0.422328
O1    O     O_2   0.918080 0.549800 0.616640 -0.459473
O2    O     O_2   0.260333 0.833709 0.457544 -0.476018
O3    O     O_3   0.141231 0.818770 0.367204 -0.581762
O4    O     O_3   0.150070 0.549720 0.556460 -0.496138
O5    O     O_3   0.546340 0.387390 0.478340 -0.488490
O6    O     O_2   0.398940 0.728800 0.517420 -0.463019
O7    O     O_3   0.585535 0.753637 0.599856 -0.647698
O8    O     O_2   0.445712 0.526077 0.323609 -0.484108
O9    O     O_3   0.435219 0.709589 0.320708 -0.554079
O10   O     O_2   0.946071 0.360691 0.200001 -0.592973
O11   O     O_2   0.301830 0.329982 0.804026 -0.621242
O12   O     O_3   0.610613 0.261599 0.403245 -0.640032
O13   O     O_2   0.984466 0.675106 0.205493 -0.620538
O14   O     O_2   0.183921 0.639857 0.796859 -0.593917
O15   O     O_3   0.658250 0.379560 0.591530 -0.481231
O16   O     O_2   0.774033 0.453640 0.678656 -0.496505
O17   O     O_3   0.084962 0.699476 0.619255 -0.625048
O18   O     O_3   0.720415 0.272226 0.674205 -0.597531
O19   O     O_2   0.790750 0.271170 0.482550 -0.469197
O20   O     O_3   0.062300 0.331660 0.568480 -0.494258
O21   O     O_2   0.939863 0.165042 0.541045 -0.487671
O22   O     O_2   0.135069 0.838858 0.055185 -0.603299
O23   O     O_3   0.049417 0.179782 0.633102 -0.602799
O24   O     O_R   0.323788 0.750804 0.013524 -0.749288
O25   O     O_2   0.271610 0.450170 0.383330 -0.453376
O26   O     O_3   0.039630 0.450200 0.443530 -0.499972
O27   O     O_3   0.531440 0.620360 0.408460 -0.457797
O28   O     O_3   0.104785 0.300387 0.381041 -0.628625
O29   O     O_3   0.643350 0.612530 0.521650 -0.477860
O30   O     O_3   0.127390 0.668260 0.431510 -0.473481
P1    P     P_3+3 0.090020 0.577590 0.608380 0.991207
P2    P     P_3+3 0.614340 0.285150 0.467650 0.971187
P3    P     P_3+3 0.081563 0.210269 0.572579 0.941778
P4    P     P_3+3 0.099670 0.422330 0.391610 0.990421
P5    P     P_3+3 0.112182 0.790602 0.428167 0.978581
P6    P     P_3+3 0.649638 0.382135 0.655884 0.946005
P7    P     P_3+3 0.582557 0.728622 0.535641 0.939063
P8    P     P_3+3 0.542746 0.612360 0.343741 0.977279

loop_
_geom_bond_atom_site_label_1
_geom_bond_atom_site_label_2
_ccdc_geom_bond_type
C47   H44   S    
O15   P6    S    
O9    P8    S    
C23   H11   S    
O18   P6    S    
C4    H39   S    
C53   C54   A    
Ba1   O1    S    
C40   H34   S    
C55   P7    S    
C3    H36   S    
O19   P2    D    
C26   O14   D    
C7    H29   S    
C63   H7    S    
O23   P3    S    
C17   C19   A    
C22   C24   A    
C32   C33   S    
C35   C38   A    
C36   C37   A    
C61   H60   S    
C55   C57   A    
C52   C61   S    
C34   H14   S    
C67   O10   D    
C53   C60   A    
C44   H49   S    
O7    P7    S    
Ba1   Ba2   S    
C27   N2    Am   
C12   H8    S    
C66   H28   S    
C11   C38   A    
C17   C35   A    
C22   C27   A    
C9    C13   A    
C25   C42   A    
C64   O24   S    
C28   H53   S    
C34   H13   S    
C6    C7    D    
C21   C22   A    
O3    P5    S    
Ba1   O20   S    
Ba1   O5    S    
C7    C8    S    
C60   H51   S    
C61   H59   S    
C37   C43   A    
H57   O24   S    
C6    C14   D    
O29   P7    S    
C57   C58   A    
C57   H48   S    
C46   P2    S    
C12   H1    S    
Ba1   O15   S    
C28   O28   S    
C40   H12   S    
C15   C31   D    
Ba2   O30   S    
O12   P2    S    
C19   C24   A    
C48   C49   A    
O1    P1    D    
C46   C51   A    
C4    C16   S    
C52   H56   S    
C16   H16   S    
C39   H37   S    
C48   P3    S    
C49   C50   A    
C66   H26   S    
C45   H17   S    
C17   C20   A    
C13   C39   A    
O26   P4    S    
C3    C5    S    
C18   C37   A    
C67   N1    Am   
C2    N1    Am   
C16   H52   S    
Ba2   O5    S    
C63   H5    S    
C65   C66   S    
C58   C59   A    
C45   H18   S    
C11   H30   S    
C9    C36   A    
C41   C42   A    
C8    N1    S    
C35   C36   A    
C38   H35   S    
C29   C30   S    
Ba2   O27   S    
C59   H47   S    
C65   H22   S    
C31   C32   D    
C24   C25   A    
Ba1   O19   S    
C54   C59   A    
C41   H38   S    
C29   H31   S    
C10   C11   A    
C65   O9    S    
C56   H21   S    
Ba2   P4    S    
O21   P3    D    
C1    C12   S    
O16   P6    D    
C46   C47   A    
C10   C67   A    
Ba1   P1    S    
O20   P3    S    
C4    H27   S    
C5    P8    S    
C45   O3    S    
C32   H41   S    
O4    P1    S    
C29   C33   D    
C1    H15   S    
C15   H43   S    
C33   N2    S    
C25   C26   A    
C18   C41   A    
C50   C51   A    
C62   H2    S    
C52   O17   S    
C12   O18   S    
C15   C30   S    
C5    C14   S    
Ba2   O25   S    
C34   H55   S    
C23   H10   S    
Ba2   O6    S    
Ba1   O29   S    
O30   P5    S    
C56   H19   S    
C2    O13   D    
C64   O22   D    
C23   O7    S    
C9    C10   A    
O27   P8    S    
C62   O12   S    
Ba2   O4    S    
C20   H33   S    
C49   H46   S    
C26   N2    Am   
O17   P1    S    
C62   C63   S    
C2    C13   A    
C53   C55   A    
C31   P1    S    
C3    C8    D    
C50   C60   A    
O2    P5    D    
C42   H40   S    
C45   C56   S    
C4    O23   S    
C21   H32   S    
O25   P4    D    
Ba2   O26   S    
C27   O11   D    
C52   H45   S    
C44   C51   A    
Ba1   O26   S    
O8    P8    D    
C40   H23   S    
C62   H3    S    
C1    H4    S    
C56   H20   S    
C66   H25   S    
C6    P4    S    
C23   C34   S    
O28   P4    S    
C58   P5    S    
C18   C19   A    
Ba1   P2    S    
Ba2   O29   S    
C47   C48   A    
C30   P6    S    
C44   C54   A    
C43   C64   S    
C65   H24   S    
C28   H54   S    
C39   C43   A    
C20   C21   A    
C28   C40   S    
Ba1   O4    S    
C1    H9    S    
C16   H50   S    
O6    P7    D    
C61   H58   S    
C63   H6    S    
C14   H42   S    
O5    P2    S    
