data_mof_unit_pretest_1489.cif
_audit_creation_date              2012-12-11T15:37:04-0500
_audit_creation_method            fapswitch 2.2
_symmetry_space_group_name_H-M    P1
_symmetry_Int_Tables_number       1
_space_group_crystal_system       triclinic
_cell_length_a                    15.049251
_cell_length_b                    15.06334
_cell_length_c                    34.85004
_cell_angle_alpha                 91.34687
_cell_angle_beta                  91.753302
_cell_angle_gamma                 60.157636
_cell_volume                      6849.11664265

loop_
_atom_site_label
_atom_site_type_symbol
_atom_type_description
_atom_site_fract_x
_atom_site_fract_y
_atom_site_fract_z
_atom_type_partial_charge
C1    C     C_R   0.610589 0.302922 0.443953 0.543860
C2    C     C_R   0.607949 0.087942 0.762725 -0.073274
C3    C     C_R   0.096534 0.762258 0.885661 0.376443
C4    C     C_R   0.121880 0.750959 0.847081 -0.081322
C5    C     C_R   0.115432 0.676340 0.824282 -0.028698
C6    C     C_R   0.090069 0.608459 0.841121 -0.143927
C7    C     C_R   0.065117 0.619212 0.879677 -0.182323
C8    C     C_R   0.183342 0.579365 0.763297 -0.109159
C9    C     C_R   0.192339 0.576627 0.723656 -0.112348
C10   C     C_R   0.146742 0.667860 0.702692 0.028823
C11   C     C_R   0.091992 0.761969 0.721890 -0.105457
C12   C     C_R   0.082633 0.764712 0.761587 -0.108614
C13   C     C_R   0.600346 0.164850 0.788358 -0.029046
C14   C     C_R   0.655976 0.764631 0.164650 -0.123206
C15   C     C_R   0.128527 0.673393 0.782567 0.030812
C16   C     C_R   0.198042 0.725448 0.645420 -0.117650
C17   C     C_R   0.234566 0.706675 0.608173 -0.124947
C18   C     C_R   0.192918 0.570799 0.601126 -0.111621
C19   C     C_R   0.156435 0.589640 0.638309 -0.112187
C20   C     C_R   0.163215 0.663816 0.661249 0.029952
C21   C     C_R   0.236826 0.625855 0.586467 0.020444
C22   C     C_R   0.673346 0.078143 0.906053 0.022344
C23   C     C_R   0.600967 0.060472 0.886114 -0.124780
C24   C     C_R   0.553121 0.188955 0.640267 -0.025934
C25   C     C_R   0.572368 0.093523 0.848292 -0.118893
C26   C     C_3   0.259799 0.518868 0.157657 -0.358143
C27   C     C_3   0.213307 0.812549 0.416137 -0.365341
C28   C     C_3   0.862431 0.149247 0.085394 -0.354157
C29   C     C_3   0.532135 0.137035 0.164688 -0.390585
C30   C     C_3   0.834183 0.461975 0.852397 -0.406698
C31   C     C_R   0.825460 0.615816 0.160088 -0.061825
C32   C     C_R   0.554018 0.214206 0.602015 0.369706
C33   C     C_R   0.692003 0.249081 0.617713 -0.178778
C34   C     C_R   0.690203 0.224709 0.655870 -0.140727
C35   C     C_R   0.618490 0.197878 0.667629 0.000042
C36   C     C_R   0.621027 0.248438 0.590712 0.022496
C37   C     C_R   0.046216 0.738830 0.048329 0.581830
C38   C     C_R   0.741975 0.683358 0.182339 0.061504
C39   C     C_R   0.747353 0.746759 0.064086 0.543973
C40   C     C_R   0.750915 0.040914 0.050787 0.536228
C41   C     C_R   0.017065 0.722376 0.939748 0.574363
C42   C     C_R   0.717316 0.730168 0.954813 0.540423
C43   C     C_R   0.824872 0.632495 0.120821 -0.130716
C44   C     C_R   0.721391 0.024414 0.942091 0.538290
C45   C     C_R   0.763307 0.579225 0.240237 0.397812
C46   C     C_R   0.753546 0.573413 0.279630 -0.067894
C47   C     C_R   0.725114 0.659628 0.303411 0.006545
C48   C     C_R   0.712116 0.750176 0.287607 -0.045155
C49   C     C_R   0.615014 0.145483 0.830096 0.033733
C50   C     C_R   0.721329 0.756305 0.248240 -0.153927
C51   C     C_R   0.744423 0.671781 0.224192 0.034066
C52   C     C_R   0.604408 0.732468 0.357980 0.383471
C53   C     C_R   0.593348 0.610106 0.449390 0.552217
C54   C     C_R   0.572708 0.720296 0.393688 -0.079710
C55   C     C_R   0.732093 0.560677 0.402219 -0.142694
C56   C     C_R   0.764069 0.572834 0.366600 -0.168616
C57   C     C_R   0.699335 0.657055 0.343685 0.035135
C58   C     C_R   0.634641 0.632560 0.415487 -0.037055
C59   C     C_R   0.104488 0.728416 0.084358 -0.034642
C60   C     C_R   0.681475 0.169522 0.851140 -0.108516
C61   C     C_R   0.166975 0.631506 0.100732 0.376358
C62   C     C_R   0.195343 0.623034 0.139887 -0.033297
C63   C     C_R   0.159995 0.713046 0.162504 -0.009825
C64   C     C_R   0.107741 0.809144 0.145025 0.360226
C65   C     C_R   0.303689 0.591598 0.442204 0.560352
C66   C     C_R   0.080849 0.816592 0.106183 -0.158041
C67   C     C_R   0.228984 0.734836 0.225925 -0.080118
C68   C     C_R   0.233843 0.728052 0.265900 -0.171367
C69   C     C_R   0.174655 0.694914 0.284959 0.026163
C70   C     C_R   0.107836 0.671979 0.263553 0.381269
C71   C     C_R   0.710456 0.136046 0.888708 -0.113813
C72   C     C_R   0.103011 0.679073 0.223665 -0.071945
C73   C     C_R   0.165096 0.708308 0.204675 0.015415
C74   C     C_R   0.213598 0.580965 0.340793 -0.033013
C75   C     C_R   0.243112 0.556694 0.379053 0.353385
C76   C     C_R   0.217236 0.728367 0.390658 -0.061163
C77   C     C_R   0.605648 0.300292 0.553686 0.569119
C78   C     C_R   0.188480 0.750691 0.351820 -0.118173
C79   C     C_R   0.189671 0.676475 0.326633 -0.009277
C80   C     C_R   0.250225 0.627923 0.404313 0.033027
C81   C     C_R   0.720074 0.102401 0.086887 0.017144
C82   C     C_R   0.590960 0.255164 0.773669 -0.138424
C83   C     C_R   0.778151 0.142809 0.105169 -0.009103
C84   C     C_R   0.758245 0.176169 0.143487 -0.084569
C85   C     C_R   0.681001 0.172165 0.163427 0.023799
C86   C     C_R   0.616559 0.141949 0.144251 -0.000120
C87   C     C_R   0.636003 0.108820 0.106139 -0.109898
C88   C     C_R   0.593255 0.268994 0.222422 -0.098317
C89   C     C_R   0.587397 0.606406 0.559155 0.549018
C90   C     C_R   0.585629 0.274632 0.262252 -0.104477
C91   C     C_R   0.662483 0.197778 0.285305 0.028918
C92   C     C_R   0.748129 0.116448 0.267977 -0.106344
C93   C     C_R   0.594772 0.266073 0.734291 -0.172598
C94   C     C_R   0.755469 0.110698 0.228151 -0.102644
C95   C     C_R   0.677500 0.186224 0.205260 0.027953
C96   C     C_R   0.738711 0.190753 0.350410 -0.113176
C97   C     C_R   0.726721 0.214104 0.389493 -0.119072
C98   C     C_R   0.548701 0.257395 0.383694 -0.106740
C99   C     C_R   0.560605 0.234608 0.344570 -0.109069
C100  C     C_R   0.654548 0.205149 0.327397 0.025396
C101  C     C_R   0.297716 0.589332 0.551612 0.535143
C102  C     C_R   0.630397 0.252017 0.406108 0.015672
C103  C     C_R   0.692277 0.689769 0.919617 0.007768
C104  C     C_R   0.607205 0.187311 0.708836 0.033249
C105  C     C_R   0.764310 0.594016 0.904537 -0.108641
C106  C     C_R   0.754156 0.565789 0.866716 0.005652
C107  C     C_R   0.671122 0.636008 0.843355 0.044458
C108  C     C_R   0.594372 0.727090 0.859790 -0.129038
C109  C     C_R   0.604534 0.753568 0.897567 -0.127207
C110  C     C_R   0.580446 0.636200 0.781990 -0.121024
C111  C     C_R   0.574801 0.636376 0.741948 -0.121679
C112  C     C_R   0.657710 0.624287 0.720489 0.064899
C113  C     C_R   0.740562 0.716824 0.103356 0.017336
C114  C     C_R   0.746865 0.610728 0.739605 -0.047574
C115  C     C_R   0.611078 0.099088 0.723179 0.389715
C116  C     C_R   0.752160 0.611476 0.779656 -0.116505
C117  C     C_R   0.669062 0.624032 0.801158 0.021365
C118  C     C_R   0.722834 0.546197 0.655864 0.376472
C119  C     C_R   0.706760 0.543563 0.616242 -0.087642
C120  C     C_R   0.549044 0.706113 0.620508 -0.135676
C121  C     C_R   0.564623 0.708419 0.660065 -0.166934
C122  C     C_R   0.649776 0.627124 0.678201 0.035297
C123  C     C_R   0.617824 0.621676 0.598387 -0.035606
C124  C     C_R   0.064372 0.698544 0.901915 0.033003
C125  C     C_R   0.655004 0.781018 0.125488 -0.121583
Cr1   Cr    Cr6+3 0.426010 0.422500 0.497000 1.122998
Cr2   Cr    Cr6+3 0.651300 0.426310 0.501970 1.024759
Cr3   Cr    Cr6+3 0.422670 0.651170 0.501050 1.012529
Cr4   Cr    Cr6+3 0.905130 0.911420 0.992650 1.075562
Cr5   Cr    Cr6+3 0.911860 0.682710 0.002320 1.052265
Cr6   Cr    Cr6+3 0.682710 0.906840 0.004710 1.020456
F1    F     F_    0.194564 0.545680 0.079165 -0.619484
F2    F     F_    0.538597 0.813573 0.336196 -0.643248
F3    F     F_    0.047495 0.642702 0.281213 -0.639739
F4    F     F_    0.270979 0.460497 0.390385 -0.627785
F5    F     F_    0.074499 0.896172 0.166330 -0.630028
F6    F     F_    0.805573 0.466070 0.672662 -0.648338
F7    F     F_    0.100003 0.837708 0.906575 -0.622084
F8    F     F_    0.784483 0.496762 0.217586 -0.636291
F9    F     F_    0.623830 0.021449 0.699214 -0.636813
F10   F     F_    0.485784 0.210223 0.576646 -0.614429
H1    H     H_    0.588950 0.846706 0.112949 0.136703
H2    H     H_    0.051467 0.660862 0.207433 0.130971
H3    H     H_    0.215032 0.522583 0.321637 0.176476
H4    H     H_    0.588560 0.081529 0.092281 0.137942
H5    H     H_    0.495248 0.244134 0.327405 0.131244
H6    H     H_    0.520037 0.339332 0.275083 0.111905
H7    H     H_    0.532889 0.328012 0.204966 0.112576
H8    H     H_    0.837717 0.514316 0.356216 0.140533
H9    H     H_    0.806017 0.201344 0.158572 0.147503
H10   H     H_    0.808187 0.056442 0.285192 0.121690
H11   H     H_    0.820504 0.045882 0.215073 0.149078
H12   H     H_    0.497131 0.776726 0.403184 0.155029
H13   H     H_    0.811973 0.167927 0.337774 0.118014
H14   H     H_    0.791188 0.208694 0.406129 0.135164
H15   H     H_    0.473680 0.285934 0.395724 0.191309
H16   H     H_    0.831331 0.542829 0.921573 0.128343
H17   H     H_    0.547495 0.827746 0.908389 0.136603
H18   H     H_    0.508177 0.772082 0.676780 0.133625
H19   H     H_    0.762953 0.503093 0.291254 0.134508
H20   H     H_    0.505563 0.646238 0.727651 0.107723
H21   H     H_    0.515211 0.647055 0.798050 0.113730
H22   H     H_    0.811113 0.602450 0.723552 0.156574
H23   H     H_    0.892575 0.552779 0.173359 0.161250
H24   H     H_    0.820119 0.604944 0.793909 0.116185
H25   H     H_    0.760898 0.477330 0.599980 0.150972
H26   H     H_    0.529929 0.781628 0.842478 0.115363
H27   H     H_    0.479750 0.767512 0.607709 0.152831
H28   H     H_    0.040275 0.569334 0.891371 0.142441
H29   H     H_    0.127905 0.542671 0.649874 0.124995
H30   H     H_    0.237095 0.503268 0.709457 0.113238
H31   H     H_    0.220242 0.508138 0.778952 0.111812
H32   H     H_    0.143884 0.802350 0.834737 0.131918
H33   H     H_    0.056226 0.833070 0.706156 0.119043
H34   H     H_    0.781839 0.492582 0.418533 0.149564
H35   H     H_    0.038298 0.838062 0.775825 0.115057
H36   H     H_    0.204075 0.782968 0.662730 0.109287
H37   H     H_    0.267658 0.750539 0.597503 0.131775
H38   H     H_    0.084058 0.550618 0.824022 0.123072
H39   H     H_    0.590262 0.816682 0.181360 0.119915
H40   H     H_    0.192333 0.509060 0.584761 0.152553
H41   H     H_    0.571471 0.015644 0.898819 0.127550
H42   H     H_    0.766063 0.151030 0.903513 0.137239
H43   H     H_    0.742161 0.230723 0.676592 0.150693
H44   H     H_    0.589659 0.335532 0.723661 0.130365
H45   H     H_    0.033195 0.891882 0.094173 0.156805
H46   H     H_    0.583553 0.316189 0.792744 0.124676
H47   H     H_    0.520094 0.075061 0.832787 0.108575
H48   H     H_    0.616896 0.016901 0.773360 0.132553
H49   H     H_    0.497555 0.167946 0.648906 0.174005
H50   H     H_    0.691876 0.816963 0.305552 0.174220
H51   H     H_    0.716414 0.208519 0.837802 0.113240
H52   H     H_    0.744291 0.275269 0.610027 0.160561
H53   H     H_    0.708025 0.827842 0.236352 0.120395
H54   H     H_    0.327311 0.515413 0.172916 0.120798
H55   H     H_    0.214075 0.504328 0.178373 0.126972
H56   H     H_    0.167569 0.825458 0.340794 0.135260
H57   H     H_    0.288649 0.456309 0.135890 0.203008
H58   H     H_    0.170223 0.888396 0.402109 0.125979
H59   H     H_    0.173751 0.817411 0.443143 0.142924
H60   H     H_    0.292014 0.798193 0.422608 0.170268
H61   H     H_    0.890276 0.193730 0.102723 0.135793
H62   H     H_    0.928767 0.071607 0.080898 0.164818
H63   H     H_    0.833519 0.188421 0.057429 0.147527
H64   H     H_    0.564254 0.086670 0.190091 0.144992
H65   H     H_    0.473567 0.214917 0.174076 0.136193
H66   H     H_    0.493076 0.105876 0.145837 0.127607
H67   H     H_    0.286328 0.745367 0.281883 0.139650
H68   H     H_    0.813004 0.441923 0.824076 0.151713
H69   H     H_    0.908581 0.460021 0.850157 0.126497
H70   H     H_    0.843510 0.402430 0.872901 0.134364
H71   H     H_    0.276308 0.758697 0.211530 0.154205
H72   H     H_    0.892170 0.582117 0.104557 0.144069
O1    O     O_R   0.324990 0.503440 0.453910 -0.431215
O2    O     O_R   0.675430 0.831160 0.051290 -0.517034
O3    O     O_R   0.698870 0.998880 0.039560 -0.506011
O4    O     O_R   0.522030 0.339050 0.458320 -0.488061
O5    O     O_R   0.811290 0.006780 0.950620 -0.497205
O6    O     O_R   0.980960 0.812920 0.953200 -0.428256
O7    O     O_R   0.001480 0.656720 0.955830 -0.528829
O8    O     O_R   0.809240 0.683250 0.968050 -0.505660
O9    O     O_R   0.652500 0.818540 0.967340 -0.513718
O10   O     O_R   0.677620 0.987170 0.961730 -0.503142
O11   O     O_3   0.833240 0.833660 0.999890 -0.260788
O12   O     O_R   0.639980 0.519500 0.542640 -0.504194
O13   O     O_R   0.676180 0.324490 0.458320 -0.518609
O14   O     O_R   0.643570 0.521510 0.464260 -0.495926
O15   O     O_R   0.504630 0.675350 0.460920 -0.518975
O16   O     O_R   0.339850 0.642450 0.459830 -0.523472
O17   O     O_R   0.321120 0.501280 0.538470 -0.497741
O18   O     O_R   0.518440 0.337050 0.536710 -0.429692
O19   O     O_R   0.672300 0.322330 0.542880 -0.532596
O20   O     O_R   0.500750 0.673190 0.545480 -0.508764
O21   O     O_R   0.336260 0.640450 0.538210 -0.509862
O22   O     O_3   0.499990 0.499990 0.500010 -0.261100
O23   O     O_R   0.834210 0.019400 0.034570 -0.522738
O24   O     O_R   0.002210 0.824620 0.031030 -0.514378
O25   O     O_R   0.024400 0.669340 0.039790 -0.441964
O26   O     O_R   0.830490 0.694950 0.045870 -0.502265

loop_
_geom_bond_atom_site_label_1
_geom_bond_atom_site_label_2
_ccdc_geom_bond_type
C1    O13   A    
C17   H37   S    
C72   H2    S    
C55   C56   A    
C64   F5    S    
Cr3   O16   S    
C6    H38   S    
C18   C21   A    
C85   C95   S    
C19   C20   A    
C111  H20   S    
C19   H29   S    
C84   H9    S    
C7    C124  A    
C40   O23   A    
C26   H55   S    
C42   C103  S    
C30   H68   S    
C112  C114  A    
C110  H21   S    
C85   C86   A    
C56   C57   A    
Cr4   O5    S    
C49   C60   A    
C31   C43   A    
C32   C36   A    
C41   C124  S    
C16   C20   A    
Cr1   O17   S    
C76   C78   A    
C18   C19   A    
C36   C77   S    
C59   C66   A    
C5    C6    A    
C75   F4    S    
C47   C57   S    
C106  C107  A    
C26   H54   S    
C94   H11   S    
C45   F8    S    
C33   C36   A    
C29   H64   S    
C108  C109  A    
C93   C104  A    
C34   C35   A    
C118  C122  A    
C92   H10   S    
C114  H22   S    
C2    C13   A    
C118  C119  A    
C48   H50   S    
Cr1   O1    S    
C61   F1    S    
C41   O6    A    
C110  C111  A    
C96   H13   S    
C47   C48   A    
C10   C20   S    
C68   C69   A    
C39   C113  S    
C25   C49   A    
C68   H67   S    
Cr2   O13   S    
C107  C108  A    
C2    H48   S    
C34   H43   S    
C101  O17   A    
C67   C73   A    
C78   H56   S    
C91   C100  S    
C42   O8    A    
C9    C10   A    
C105  H16   S    
C97   C102  A    
Cr1   O4    S    
C60   H51   S    
C12   H35   S    
C21   C101  S    
Cr3   O22   S    
C48   C50   A    
C103  C109  A    
C88   C95   A    
C33   H52   S    
C82   C93   A    
C27   H60   S    
C30   C106  S    
C28   C83   S    
Cr2   O14   S    
C52   F2    S    
C65   C80   S    
C94   C95   A    
C54   H12   S    
Cr4   O11   S    
C109  H17   S    
C40   C81   S    
C110  C117  A    
C39   O26   A    
C81   C83   A    
C52   C54   A    
C33   C34   A    
C16   H36   S    
Cr3   O21   S    
C98   H15   S    
Cr5   O26   S    
C77   O18   A    
C24   C35   A    
C59   C61   A    
C74   C75   A    
Cr4   O23   S    
Cr6   O2    S    
C67   C68   A    
C28   H63   S    
C71   H42   S    
C44   O5    A    
C84   C85   A    
C23   H41   S    
C35   C104  S    
C10   C11   A    
C30   H70   S    
C3    F7    S    
C78   C79   A    
C8    C9    A    
C38   C51   S    
C63   C73   S    
C60   C71   A    
C98   C102  A    
C13   C82   A    
C70   C72   A    
C17   C21   A    
C29   H65   S    
C114  C116  A    
C120  C123  A    
C64   C66   A    
C24   C32   A    
C112  C122  S    
C90   H6    S    
C25   H47   S    
C14   C38   A    
C104  C115  A    
C2    C115  A    
C37   O24   A    
C83   C84   A    
C12   C15   A    
C125  H1    S    
Cr3   O15   S    
C46   H19   S    
C96   C97   A    
C40   O3    A    
C62   C63   A    
C92   C94   A    
C50   C51   A    
C88   H7    S    
C27   H58   S    
C67   H71   S    
C103  C105  A    
C44   O10   A    
C81   C87   A    
Cr5   O7    S    
Cr1   O22   S    
C14   C125  A    
C119  H25   S    
C55   H34   S    
C32   F10   S    
C37   C59   S    
C8    H31   S    
C13   C49   S    
C3    C124  A    
Cr6   O11   S    
C99   H5    S    
C88   C90   A    
C8    C15   A    
C74   C79   A    
C7    H28   S    
C121  H18   S    
C116  H24   S    
C9    H30   S    
C3    C4    A    
C118  F6    S    
C22   C71   A    
C91   C92   A    
C41   O7    A    
C65   O16   A    
C120  C121  A    
C120  H27   S    
C70   F3    S    
C54   C58   A    
Cr3   O20   S    
C75   C80   A    
C74   H3    S    
C31   H23   S    
Cr5   O25   S    
C11   H33   S    
C22   C44   S    
C87   H4    S    
C111  C112  A    
Cr4   O24   S    
Cr6   O3    S    
C86   C87   A    
C28   H62   S    
C89   O20   A    
C108  H26   S    
Cr5   O8    S    
C27   H59   S    
C76   C80   A    
C89   O12   A    
C4    C5    A    
C29   H66   S    
C37   O25   A    
C30   H69   S    
C24   H49   S    
C53   C58   S    
C121  C122  A    
C6    C7    A    
C119  C123  A    
C89   C123  S    
C105  C106  A    
Cr2   O22   S    
C18   H40   S    
C31   C38   A    
C39   O2    A    
C82   H46   S    
C4    H32   S    
C28   H61   S    
C29   C86   S    
Cr1   O18   S    
C26   C62   S    
C65   O1    A    
C53   O15   A    
C66   H45   S    
C99   C100  A    
C43   C113  A    
C50   H53   S    
C90   C91   A    
C16   C17   A    
C72   C73   A    
C96   C100  A    
Cr5   O11   S    
Cr2   O19   S    
C53   O14   A    
C116  C117  A    
Cr6   O9    S    
C97   H14   S    
C61   C62   A    
C26   H57   S    
C69   C70   A    
C5    C15   S    
C46   C47   A    
C69   C79   S    
C52   C57   A    
C63   C64   A    
C45   C46   A    
C23   C25   A    
C113  C125  A    
C115  F9    S    
Cr4   O6    S    
C98   C99   A    
C1    O4    A    
C55   C58   A    
C101  O21   A    
Cr2   O12   S    
C45   C51   A    
C22   C23   A    
Cr6   O10   S    
C77   O19   A    
C56   H8    S    
C42   O9    A    
C1    C102  S    
C107  C117  S    
C14   H39   S    
C27   C76   S    
C11   C12   A    
C93   H44   S    
C43   H72   S    
