data_mof_unit_pretest_1526.cif
_audit_creation_date              2012-12-10T19:52:20-0500
_audit_creation_method            fapswitch 2.2
_symmetry_space_group_name_H-M    P1
_symmetry_Int_Tables_number       1
_space_group_crystal_system       triclinic
_cell_length_a                    14.995061
_cell_length_b                    14.242598
_cell_length_c                    10.678244
_cell_angle_alpha                 90.171209
_cell_angle_beta                  90.818378
_cell_angle_gamma                 89.922901
_cell_volume                      2280.29315227

loop_
_atom_site_label
_atom_site_type_symbol
_atom_type_description
_atom_site_fract_x
_atom_site_fract_y
_atom_site_fract_z
_atom_type_partial_charge
C1    C     C_R   0.327898 0.500062 0.500049 1.006995
C2    C     C_R   0.906069 0.572233 0.442796 -0.102111
C3    C     C_R   0.814733 0.428649 0.565163 0.619282
C4    C     C_R   0.813999 0.572552 0.441736 0.612575
C5    C     C_R   0.768089 0.500233 0.502186 -0.328072
C6    C     C_R   0.952144 0.500742 0.505279 -0.025184
C7    C     C_R   0.465371 0.107632 0.390614 0.280374
C8    C     C_R   0.419594 0.892567 0.462056 0.275319
C9    C     C_R   0.498933 0.499751 0.257600 1.076863
C10   C     C_R   0.462825 0.206256 0.400124 0.705519
C11   C     C_R   0.425414 0.793913 0.458530 0.692667
C12   C     C_3   0.591226 0.529810 0.926782 0.925841
C13   C     C_R   0.534026 0.201687 0.598812 0.424379
C14   C     C_R   0.572998 0.798287 0.539025 0.428955
C15   C     C_R   0.524721 0.103424 0.603323 0.385371
C16   C     C_R   0.575953 0.896453 0.524326 0.391818
C17   C     C_R   0.494785 0.053392 0.495171 -0.307216
C18   C     C_R   0.496818 0.946631 0.491910 -0.299885
C19   C     C_R   0.672126 0.500001 0.500481 0.992815
C20   C     C_R   0.497453 0.500017 0.741923 1.128907
C21   C     C_3   0.431358 0.576591 0.070414 0.813949
C22   C     C_3   0.466796 0.400476 0.069488 0.782098
C23   C     C_R   0.094885 0.579052 0.549046 0.635721
C24   C     C_3   0.425508 0.570005 0.926052 0.342556
C25   C     C_3   0.474663 0.399591 0.926626 0.353187
C26   C     C_3   0.595450 0.522183 0.072769 0.536895
C27   C     C_3   0.498431 0.499384 0.120634 -0.508466
C28   C     C_3   0.496962 0.499810 0.878034 -0.615811
C29   C     C_R   0.093266 0.421396 0.459373 0.634507
C30   C     C_R   0.186926 0.579091 0.546595 -0.168177
C31   C     C_R   0.185336 0.421316 0.458191 -0.207724
C32   C     C_R   0.232071 0.500216 0.501408 -0.220958
C33   C     C_R   0.048138 0.500264 0.505033 -0.161109
C34   C     C_R   0.906834 0.429340 0.566955 -0.107009
F1    F     F_    0.461797 0.665867 0.102643 -0.597771
F2    F     F_    0.656389 0.474558 0.871653 -0.623648
F3    F     F_    0.051476 0.654869 0.595971 -0.586088
F4    F     F_    0.048192 0.345740 0.413722 -0.596591
F5    F     F_    0.519656 0.328026 0.116802 -0.611027
F6    F     F_    0.771576 0.359711 0.627424 -0.591028
F7    F     F_    0.770160 0.642130 0.379622 -0.584448
F8    F     F_    0.423731 0.255836 0.306650 -0.551851
F9    F     F_    0.353701 0.744800 0.416653 -0.566720
F10   F     F_    0.340958 0.542363 0.886094 -0.565483
F11   F     F_    0.396792 0.365584 0.870700 -0.537393
F12   F     F_    0.607581 0.621798 0.890484 -0.568255
H1    H     H_    0.437053 0.641090 0.886440 0.179771
H2    H     H_    0.621153 0.703184 0.645543 0.387033
H3    H     H_    0.518616 0.997609 0.717612 0.359513
H4    H     H_    0.656611 0.002145 0.505628 0.366042
H5    H     H_    0.311261 0.621671 0.103603 0.398037
H6    H     H_    0.365278 0.316329 0.088849 0.431895
H7    H     H_    0.650402 0.599280 0.205931 0.399498
H8    H     H_    0.652242 0.396398 0.059201 0.399577
H9    H     H_    0.529346 0.350732 0.900315 0.191999
H10   H     H_    0.222786 0.639991 0.581554 0.233729
H11   H     H_    0.219927 0.360386 0.421946 0.229716
H12   H     H_    0.942944 0.374679 0.616716 0.219214
H13   H     H_    0.941552 0.627059 0.394107 0.220688
H14   H     H_    0.461913 0.003570 0.272055 0.381360
H15   H     H_    0.335684 0.996801 0.469823 0.371779
H16   H     H_    0.606944 0.301089 0.663055 0.402813
N1    N     N_R   0.499980 0.252470 0.500000 -0.286924
N2    N     N_R   0.499980 0.747530 0.500000 -0.285145
O1    O     O_R   0.369070 0.579480 0.500010 -0.572734
O2    O     O_3   0.337331 0.932172 0.435857 -0.619043
O3    O     O_3   0.577768 0.244805 0.697012 -0.620151
O4    O     O_3   0.645075 0.755234 0.595021 -0.583460
O5    O     O_3   0.548750 0.059279 0.713813 -0.599795
O6    O     O_3   0.656512 0.940458 0.548023 -0.592309
O7    O     O_3   0.346593 0.564415 0.123157 -0.640791
O8    O     O_3   0.377960 0.383788 0.104523 -0.585218
O9    O     O_3   0.624670 0.609506 0.120928 -0.554851
O10   O     O_3   0.657348 0.452827 0.113100 -0.694059
O11   O     O_R   0.369070 0.420520 0.500010 -0.603893
O12   O     O_R   0.499990 0.579480 0.314790 -0.563534
O13   O     O_R   0.499990 0.420520 0.314790 -0.516034
O14   O     O_R   0.630940 0.579480 0.499990 -0.586709
O15   O     O_R   0.630940 0.420520 0.499990 -0.611763
O16   O     O_R   0.500020 0.579480 0.685200 -0.652569
O17   O     O_R   0.500020 0.420520 0.685200 -0.595085
O18   O     O_3   0.438233 0.068230 0.278090 -0.611287
Zn1   Zn    Zn3+2 0.500010 0.606140 0.500000 1.087334
Zn2   Zn    Zn3+2 0.500010 0.393860 0.500000 1.100793

loop_
_geom_bond_atom_site_label_1
_geom_bond_atom_site_label_2
_ccdc_geom_bond_type
C7    C10   A    
C8    O2    S    
C10   F8    S    
C10   N1    A    
C25   C28   S    
C26   C27   S    
H16   O3    S    
C21   O7    S    
O15   Zn2   S    
O11   Zn2   S    
O1    Zn1   S    
C4    F7    S    
C29   C33   A    
C26   O9    S    
H8    O10   S    
H14   O18   S    
O14   Zn1   S    
C7    C17   A    
C22   C25   S    
C29   F4    S    
C1    O1    A    
C11   F9    S    
C9    O12   A    
C12   F2    S    
C21   C27   S    
H3    O5    S    
C20   O17   A    
C2    C6    A    
H5    O7    S    
O16   Zn1   S    
H15   O2    S    
O12   Zn1   S    
C22   O8    S    
C15   O5    S    
C20   O16   A    
C1    O11   A    
C23   C30   A    
C25   H9    S    
C16   O6    S    
C12   F12   S    
C11   N2    A    
C2    H13   S    
C20   C28   S    
O13   Zn2   S    
C23   C33   A    
C23   F3    S    
C30   H10   S    
C1    C32   S    
C8    C18   A    
C6    C34   A    
C12   C26   S    
C19   O14   A    
C2    C4    A    
N2    Zn1   S    
H6    O8    S    
C31   C32   A    
C13   N1    A    
C14   N2    A    
C17   C18   S    
C9    O13   A    
H2    O4    S    
C19   O15   A    
C21   F1    S    
C12   C28   S    
C3    F6    S    
C22   C27   S    
C13   C15   A    
C24   F10   S    
C14   C16   A    
C25   F11   S    
O17   Zn2   S    
C9    C27   S    
C13   O3    S    
C15   C17   A    
C24   H1    S    
H7    O9    S    
C24   C28   S    
C4    C5    A    
C3    C5    A    
C5    C19   S    
C3    C34   A    
C6    C33   S    
N1    Zn2   S    
C31   H11   S    
H4    O6    S    
C29   C31   A    
C30   C32   A    
C8    C11   A    
C22   F5    S    
C26   O10   S    
C7    O18   S    
C16   C18   A    
C21   C24   S    
C34   H12   S    
C14   O4    S    
