data_mof_unit_pretest_286.cif
_audit_creation_date              2012-12-11T15:46:58-0500
_audit_creation_method            fapswitch 2.2
_symmetry_space_group_name_H-M    P1
_symmetry_Int_Tables_number       1
_space_group_crystal_system       triclinic
_cell_length_a                    11.558577
_cell_length_b                    11.544841
_cell_length_c                    19.58173
_cell_angle_alpha                 90.570148
_cell_angle_beta                  90.211221
_cell_angle_gamma                 59.618738
_cell_volume                      2254.08681124

loop_
_atom_site_label
_atom_site_type_symbol
_atom_type_description
_atom_site_fract_x
_atom_site_fract_y
_atom_site_fract_z
_atom_type_partial_charge
Br1   Br    Br    0.930380 0.571628 0.357428 -0.554207
Br2   Br    Br    0.898799 0.804155 0.152196 -0.533473
C1    C     C_R   0.620130 0.091505 0.606661 0.545830
C2    C     C_1   0.638298 0.129415 0.673750 0.007652
C3    C     C_R   0.666309 0.671201 0.191659 0.015246
C4    C     C_R   0.612605 0.746182 0.598717 0.544250
C5    C     C_R   0.539843 0.739435 0.221648 0.006107
C6    C     C_R   0.529888 0.748877 0.291114 0.004493
C7    C     C_R   0.770183 0.642727 0.303431 0.100598
C8    C     C_R   0.781496 0.629578 0.232700 -0.096320
C9    C     C_3   0.421141 0.719803 0.215900 -0.260081
C10   C     C_3   0.414973 0.724392 0.292883 -0.260349
C11   C     C_R   0.642945 0.696309 0.333017 0.033804
C12   C     C_1   0.641597 0.704169 0.668092 0.006012
C13   C     C_R   0.133212 0.201170 0.194013 0.010419
C14   C     C_R   0.149705 0.294877 0.230625 0.038661
C15   C     C_R   0.175676 0.279031 0.299071 0.090432
C16   C     C_R   0.241377 0.145357 0.598303 0.545942
C17   C     C_R   0.146541 0.086859 0.300546 -0.168955
C18   C     C_R   0.126279 0.099222 0.229812 -0.162696
C19   C     C_3   0.247047 0.340990 0.217986 -0.277045
C20   C     C_3   0.277630 0.321880 0.293451 -0.245251
C21   C     C_R   0.181141 0.171795 0.334827 0.033387
C22   C     C_R   0.667866 0.187181 0.192730 0.001639
C23   C     C_1   0.126354 0.198560 0.859199 0.004467
C24   C     C_R   0.731659 0.057112 0.218678 0.062343
C25   C     C_R   0.725805 0.035333 0.287136 -0.004380
C26   C     C_R   0.584992 0.273409 0.306954 -0.173871
C27   C     C_R   0.587097 0.295245 0.236881 -0.171999
C28   C     C_R   0.645009 0.112396 0.402494 0.551587
C29   C     C_3   0.874969 0.946850 0.213809 0.035062
C30   C     C_3   0.866817 0.920494 0.288622 -0.224906
C31   C     C_R   0.660992 0.142858 0.332924 0.004770
C32   C     C_R   0.081502 0.231093 0.928500 0.538193
C33   C     C_R   0.683807 0.604094 0.929407 0.544135
C34   C     C_1   0.171700 0.170517 0.727724 -0.028900
C35   C     C_R   0.735061 0.227094 0.922524 0.548438
C36   C     C_R   0.082881 0.235551 0.125222 0.541665
C37   C     C_R   0.683360 0.611855 0.125231 0.564128
C38   C     C_R   0.708207 0.211785 0.127039 0.565246
C39   C     C_R   0.617367 0.737583 0.403054 0.581340
C40   C     C_R   0.243851 0.141317 0.401493 0.554534
C41   C     C_1   0.669941 0.646166 0.860057 0.007562
C42   C     C_1   0.654886 0.683824 0.728485 -0.030060
C43   C     C_1   0.663155 0.666533 0.799690 -0.029174
C44   C     C_1   0.149977 0.182241 0.798898 -0.029213
C45   C     C_1   0.195685 0.161239 0.667470 0.006353
C46   C     C_1   0.699863 0.206447 0.855346 0.008523
C47   C     C_1   0.654426 0.157433 0.730912 -0.027478
C48   C     C_1   0.676433 0.185798 0.798101 -0.026802
Cr1   Cr    Cr6+3 0.404720 0.198220 0.499960 1.045026
Cr2   Cr    Cr6+3 0.698290 0.897110 0.500380 1.072135
Cr3   Cr    Cr6+3 0.396970 0.904720 0.499610 1.030387
Cr4   Cr    Cr6+3 0.926290 0.152010 0.028150 1.055360
Cr5   Cr    Cr6+3 0.921440 0.451830 0.027490 1.072842
Cr6   Cr    Cr6+3 0.626370 0.446880 0.028730 1.034074
H1    H     H_    0.332852 0.270276 0.185195 0.142663
H2    H     H_    0.333712 0.807105 0.191830 0.145343
H3    H     H_    0.141198 0.008504 0.327493 0.116276
H4    H     H_    0.107033 0.028710 0.203042 0.127729
H5    H     H_    0.196236 0.447954 0.202363 0.178632
H6    H     H_    0.525296 0.357913 0.340686 0.128838
H7    H     H_    0.322743 0.810643 0.313729 0.152901
H8    H     H_    0.442526 0.626026 0.315948 0.135811
H9    H     H_    0.379639 0.237257 0.304428 0.152833
H10   H     H_    0.247796 0.417146 0.321469 0.180035
H11   H     H_    0.534523 0.397064 0.218444 0.131755
H12   H     H_    0.944919 0.983602 0.204310 0.141061
H13   H     H_    0.871300 0.824068 0.298339 0.215305
H14   H     H_    0.933382 0.940764 0.321528 0.121284
H15   H     H_    0.881315 0.574901 0.210919 0.196583
H16   H     H_    0.443388 0.620877 0.195455 0.161629
O1    O     O_R   0.267750 0.231960 0.575440 -0.501411
O2    O     O_R   0.596230 0.579400 0.952760 -0.509484
O3    O     O_R   0.639160 0.321170 0.958690 -0.487536
O4    O     O_R   0.527290 0.186640 0.570530 -0.489810
O5    O     O_R   0.821370 0.124220 0.104400 -0.488417
O6    O     O_R   0.037020 0.167050 0.097880 -0.510007
O7    O     O_R   0.056310 0.349620 0.102920 -0.502313
O8    O     O_R   0.797790 0.564880 0.097980 -0.477741
O9    O     O_R   0.596000 0.584270 0.104310 -0.529239
O10   O     O_R   0.638950 0.325690 0.099180 -0.506089
O11   O     O_3   0.824700 0.350240 0.028120 -0.284674
O12   O     O_R   0.685950 0.784660 0.430010 -0.455962
O13   O     O_R   0.728110 0.003450 0.576380 -0.497642
O14   O     O_R   0.682980 0.789190 0.570500 -0.500167
O15   O     O_R   0.499300 0.771880 0.575540 -0.502494
O16   O     O_R   0.285350 0.030870 0.569740 -0.494487
O17   O     O_R   0.270960 0.227070 0.423890 -0.499281
O18   O     O_R   0.530270 0.182120 0.430040 -0.508327
O19   O     O_R   0.731320 0.998570 0.424830 -0.497935
O20   O     O_R   0.502510 0.767000 0.423980 -0.526510
O21   O     O_R   0.288320 0.026340 0.429250 -0.507016
O22   O     O_3   0.499990 0.000020 0.499980 -0.283882
O23   O     O_R   0.821590 0.119350 0.952850 -0.484438
O24   O     O_R   0.037230 0.162540 0.957390 -0.507941
O25   O     O_R   0.056530 0.344750 0.951370 -0.498222
O26   O     O_R   0.798000 0.560370 0.957490 -0.485136

loop_
_geom_bond_atom_site_label_1
_geom_bond_atom_site_label_2
_ccdc_geom_bond_type
C33   O2    A    
C14   C19   S    
C1    O13   A    
C40   O21   A    
C17   C18   A    
C28   O18   A    
C16   C45   S    
C11   C39   S    
Cr6   O9    S    
C13   C36   S    
C25   C31   A    
C5    C9    S    
C24   C25   A    
C15   C21   A    
C21   C40   S    
C26   C27   A    
C32   O24   A    
Cr1   O18   S    
C10   H8    S    
C36   O7    A    
C13   C14   A    
C32   O25   A    
C35   O23   A    
C34   C45   T    
Cr2   O12   S    
C7    C11   A    
C22   C27   A    
C20   H10   S    
C27   H11   S    
C14   C15   A    
Cr2   O22   S    
C18   H4    S    
C9    H2    S    
C33   C41   S    
C7    C8    A    
Cr4   O24   S    
C23   C32   S    
Cr4   O5    S    
C8    H15   S    
C46   C48   T    
C35   O3    A    
C24   C29   S    
Cr6   O3    S    
C19   C20   S    
C29   H12   S    
Cr4   O11   S    
C13   C18   A    
Cr6   O2    S    
Cr3   O21   S    
C38   O10   A    
C5    C6    A    
Br1   C7    S    
Cr1   O4    S    
C37   O9    A    
C3    C5    A    
C10   H7    S    
C9    H16   S    
C30   H14   S    
C36   O6    A    
C17   H3    S    
C39   O12   A    
C16   O16   A    
C4    O15   A    
Br2   C29   S    
C17   C21   A    
C20   H9    S    
C19   H1    S    
C4    C12   S    
Cr5   O7    S    
C29   C30   S    
C6    C10   S    
Cr5   O25   S    
Cr3   O20   S    
Cr3   O15   S    
C35   C46   S    
C34   C44   S    
C1    O4    A    
C41   C43   T    
Cr4   O23   S    
C26   C31   A    
C16   O1    A    
C3    C37   S    
Cr5   O11   S    
C1    C2    S    
C33   O26   A    
C42   C43   S    
Cr6   O11   S    
C12   C42   T    
Cr2   O13   S    
C28   C31   S    
Cr3   O22   S    
C19   H5    S    
Cr1   O1    S    
C22   C24   A    
C28   O19   A    
C9    C10   S    
Cr6   O10   S    
C30   H13   S    
C15   C20   S    
C4    O14   A    
C2    C47   T    
C40   O17   A    
C37   O8    A    
Cr2   O14   S    
C3    C8    A    
Cr1   O17   S    
Cr5   O8    S    
Cr5   O26   S    
C22   C38   S    
Cr3   O16   S    
C25   C30   S    
Cr1   O22   S    
C6    C11   A    
C39   O20   A    
C47   C48   S    
C38   O5    A    
Cr2   O19   S    
C23   C44   T    
Cr4   O6    S    
C26   H6    S    
