data_mof_unit_pretest_1283.cif
_audit_creation_date              2012-12-10T18:05:52-0500
_audit_creation_method            fapswitch 2.2
_symmetry_space_group_name_H-M    P1
_symmetry_Int_Tables_number       1
_space_group_crystal_system       triclinic
_cell_length_a                    12.577733
_cell_length_b                    13.131081
_cell_length_c                    14.996052
_cell_angle_alpha                 90.463949
_cell_angle_beta                  102.499494
_cell_angle_gamma                 82.329493
_cell_volume                      2395.84282645

loop_
_atom_site_label
_atom_site_type_symbol
_atom_type_description
_atom_site_fract_x
_atom_site_fract_y
_atom_site_fract_z
_atom_type_partial_charge
C1    C     C_R   0.438717 0.691298 0.492836 0.859611
C2    C     C_R   0.600003 0.497231 0.111061 0.117235
C3    C     C_R   0.300571 0.503465 0.009820 -0.217796
C4    C     C_R   0.300720 0.504849 0.917193 -0.206849
C5    C     C_R   0.399939 0.503541 0.888923 0.113119
C6    C     C_R   0.500053 0.501083 0.953602 0.060366
C7    C     C_R   0.600333 0.499879 0.925519 0.121018
C8    C     C_R   0.699382 0.497303 0.990173 -0.218144
C9    C     C_R   0.699229 0.495939 0.082805 -0.215433
C10   C     C_R   0.400880 0.504249 0.796883 -0.235001
C11   C     C_R   0.500470 0.502236 0.769152 -0.075050
C12   C     C_R   0.500299 0.500768 0.673081 0.888918
C13   C     C_R   0.599767 0.500700 0.833080 -0.265422
C14   C     C_R   0.702744 0.066227 0.635087 -0.187099
C15   C     C_R   0.597326 0.200358 0.531018 -0.053677
C16   C     C_R   0.299301 0.837085 0.428499 -0.136890
C17   C     C_R   0.271142 0.941432 0.408348 -0.132500
C18   C     C_R   0.345198 0.009318 0.442870 -0.192092
C19   C     C_R   0.447143 0.973791 0.502583 0.085078
C20   C     C_R   0.466990 0.870790 0.533780 0.092996
C21   C     C_R   0.530046 0.036855 0.532586 0.084448
C22   C     C_R   0.622513 0.001943 0.603285 0.177987
C23   C     C_R   0.561162 0.308763 0.511277 0.858962
C24   C     C_R   0.632063 0.904479 0.642488 -0.248665
C25   C     C_R   0.554938 0.839695 0.608392 -0.192304
C26   C     C_R   0.524070 0.133510 0.493229 -0.247635
C27   C     C_R   0.689064 0.166303 0.600152 -0.191572
C28   C     C_R   0.398968 0.800967 0.488540 -0.108437
C29   C     C_R   0.083377 0.359134 0.362436 -0.308011
C30   C     C_R   0.798488 0.631169 0.606901 -0.041099
C31   C     C_R   0.896393 0.672107 0.617677 -0.259851
C32   C     C_R   0.975226 0.631799 0.569633 0.253670
C33   C     C_R   0.958987 0.542134 0.516578 -0.060997
C34   C     C_R   0.499676 0.499363 0.326913 0.882811
C35   C     C_R   0.853663 0.508867 0.502560 0.202557
C36   C     C_R   0.039116 0.485786 0.474416 0.003099
C37   C     C_R   0.007363 0.410915 0.408431 0.194745
C38   C     C_R   0.901353 0.385392 0.391594 -0.293884
C39   C     C_R   0.827343 0.430672 0.440861 -0.192774
C40   C     C_R   0.151363 0.494904 0.499078 -0.007072
C41   C     C_R   0.191227 0.379054 0.384491 0.001439
C42   C     C_R   0.599056 0.496431 0.203091 -0.257037
C43   C     C_R   0.499491 0.498206 0.230833 -0.072432
C44   C     C_R   0.400193 0.499857 0.166901 -0.259730
C45   C     C_R   0.399619 0.500853 0.074465 0.118384
C46   C     C_R   0.499893 0.499700 0.046380 0.062540
H1    H     H_    0.675980 0.494363 0.252952 0.169248
H2    H     H_    0.699933 0.877737 0.698650 0.142255
H3    H     H_    0.773072 0.040686 0.689545 0.142030
H4    H     H_    0.459683 0.161000 0.435244 0.140603
H5    H     H_    0.244957 0.784374 0.394715 0.174210
H6    H     H_    0.319307 0.089216 0.423588 0.133616
H7    H     H_    0.193758 0.969318 0.362586 0.147510
H8    H     H_    0.563764 0.765341 0.641677 0.154831
H9    H     H_    0.251085 0.341167 0.348821 0.129358
H10   H     H_    0.876833 0.326894 0.342855 0.155364
H11   H     H_    0.059787 0.303460 0.310638 0.143386
H12   H     H_    0.323310 0.501543 0.188897 0.162245
H13   H     H_    0.185500 0.537621 0.557181 0.173944
H14   H     H_    0.736250 0.664794 0.641899 0.144606
H15   H     H_    0.907941 0.739226 0.659264 0.179316
H16   H     H_    0.749456 0.403294 0.428799 0.210988
H17   H     H_    0.223282 0.504468 0.030902 0.146552
H18   H     H_    0.223537 0.506787 0.867757 0.151747
H19   H     H_    0.323939 0.506423 0.746974 0.167977
H20   H     H_    0.676659 0.498918 0.811084 0.161497
H21   H     H_    0.776677 0.496261 0.969094 0.145986
H22   H     H_    0.776412 0.493961 0.132259 0.151450
H23   H     H_    0.746218 0.218301 0.630356 0.159012
N1    N     N_R   0.222190 0.444670 0.452360 -0.109116
N2    N     N_R   0.776970 0.554790 0.547140 -0.125707
O1    O     O_R   0.366740 0.627160 0.477250 -0.593816
O2    O     O_R   0.544830 0.662520 0.507680 -0.610658
O3    O     O_R   0.410940 0.482340 0.616930 -0.620196
O4    O     O_R   0.589030 0.517700 0.647360 -0.636318
O5    O     O_R   0.455170 0.337480 0.492320 -0.611484
O6    O     O_R   0.633260 0.372840 0.522750 -0.640982
O7    O     O_R   0.410970 0.482300 0.352640 -0.627456
O8    O     O_R   0.589060 0.517660 0.383070 -0.633212
Zn1   Zn    Zn3+2 0.381090 0.476390 0.479680 0.957341
Zn2   Zn    Zn3+2 0.618910 0.523610 0.520320 0.933774
Br1   Br    Br    0.084124 0.720599 0.564239 -0.571434

loop_
_geom_bond_atom_site_label_1
_geom_bond_atom_site_label_2
_ccdc_geom_bond_type
C16   C28   A    
C21   C26   A    
C12   O3    A    
C31   H15   S    
C19   C20   A    
C16   H5    S    
C23   O5    A    
C30   N2    A    
C18   H6    S    
C7    C8    A    
C45   C46   A    
C2    C46   A    
C40   N1    A    
C36   C37   A    
C19   C21   A    
C26   H4    S    
C38   C39   A    
O7    Zn1   S    
C14   H3    S    
C16   C17   A    
C20   C25   A    
C33   C36   A    
C18   C19   A    
C41   H9    S    
C44   H12   S    
C8    C9    A    
C30   H14   S    
C1    C28   S    
C24   C25   A    
C14   C27   A    
C27   H23   S    
C15   C23   S    
C35   N2    A    
C40   H13   S    
O3    Zn1   S    
C21   C22   A    
O2    Zn2   S    
C13   H20   S    
C1    O1    A    
N1    Zn1   S    
C24   H2    S    
C36   C40   A    
C25   H8    S    
O8    Zn2   S    
O4    Zn2   S    
C15   C26   A    
C20   C28   A    
C3    C45   A    
C35   C39   A    
C43   C44   A    
C37   C38   A    
C34   O8    A    
C15   C27   A    
C31   C32   A    
O6    Zn2   S    
C30   C31   A    
C17   C18   A    
C23   O6    A    
C29   H11   S    
C22   C24   A    
C42   C43   A    
C3    C4    A    
C17   H7    S    
C44   C45   A    
C10   H19   S    
C39   H16   S    
C6    C46   A    
C29   C41   A    
C34   C43   S    
O5    Zn1   S    
C4    C5    A    
C11   C12   S    
C6    C7    A    
C3    H17   S    
C32   Br1   S    
C4    H18   S    
C1    O2    A    
C32   C33   A    
C14   C22   A    
C9    H22   S    
C5    C10   A    
O1    Zn1   S    
C34   O7    A    
C11   C13   A    
C5    C6    A    
C2    C42   A    
C33   C35   A    
C42   H1    S    
C10   C11   A    
C7    C13   A    
C38   H10   S    
C8    H21   S    
C12   O4    A    
C29   C37   A    
C2    C9    A    
C41   N1    A    
N2    Zn2   S    
