data_mof_unit_pretest_240.cif
_audit_creation_date              2012-12-10T19:00:42-0500
_audit_creation_method            fapswitch 2.2
_symmetry_space_group_name_H-M    P1
_symmetry_Int_Tables_number       1
_space_group_crystal_system       triclinic
_cell_length_a                    15.049883
_cell_length_b                    10.835494
_cell_length_c                    9.568318
_cell_angle_alpha                 90.253796
_cell_angle_beta                  89.732516
_cell_angle_gamma                 89.529205
_cell_volume                      1560.24827409

loop_
_atom_site_label
_atom_site_type_symbol
_atom_type_description
_atom_site_fract_x
_atom_site_fract_y
_atom_site_fract_z
_atom_type_partial_charge
C1    C     C_R   0.497994 0.262516 0.499438 0.814328
C2    C     C_R   0.905976 0.555353 0.613008 0.092356
C3    C     C_R   0.955364 0.387311 0.280610 -0.206371
C4    C     C_R   0.047904 0.388881 0.279868 -0.205512
C5    C     C_R   0.093944 0.444169 0.390334 0.125327
C6    C     C_R   0.046810 0.498738 0.503231 0.047889
C7    C     C_R   0.092737 0.553045 0.616450 0.051731
C8    C     C_R   0.044229 0.607930 0.727843 -0.018519
C9    C     C_R   0.951402 0.609369 0.724605 -0.253641
C10   C     C_R   0.186421 0.445674 0.389663 -0.246699
C11   C     C_R   0.232172 0.498756 0.501339 -0.063693
C12   C     C_R   0.328825 0.499465 0.500321 0.793054
C13   C     C_R   0.185814 0.551097 0.614418 -0.242585
C14   C     C_R   0.524397 0.064323 0.615988 0.065398
C15   C     C_R   0.498330 0.128939 0.496836 -0.216160
C16   C     C_R   0.478834 0.062237 0.372940 0.463693
C17   C     C_R   0.483756 0.933836 0.373854 -0.282360
C18   C     C_R   0.501797 0.870505 0.498310 -0.172030
C19   C     C_R   0.525550 0.937257 0.616986 0.118017
C20   C     C_3   0.489770 0.931500 0.762635 -0.441845
C21   C     C_3   0.488496 0.071567 0.761837 -0.425743
C22   C     C_R   0.577103 0.515760 0.072570 0.225128
C23   C     C_R   0.499518 0.737417 0.500089 0.831391
C24   C     C_R   0.422701 0.496061 0.074590 -0.078969
C25   C     C_R   0.422712 0.495814 0.926421 -0.075232
C26   C     C_R   0.576952 0.516968 0.925485 0.235900
C27   C     C_3   0.658082 0.437522 0.916138 -0.517537
C28   C     C_3   0.658999 0.436232 0.074684 -0.305540
C29   C     C_R   0.671256 0.499851 0.499853 0.811353
C30   C     C_R   0.813354 0.556973 0.610065 -0.239304
C31   C     C_R   0.768050 0.499847 0.500231 -0.063465
C32   C     C_R   0.815332 0.441680 0.391976 -0.248639
C33   C     C_R   0.907896 0.442389 0.390966 0.114300
C34   C     C_R   0.953602 0.498868 0.502466 0.062591
Cu1   Cu    Cu3+1 0.500000 0.499980 0.640670 0.938784
Cu2   Cu    Cu3+1 0.500000 0.500020 0.359330 0.958789
H1    H     H_    0.776485 0.603944 0.692296 0.140734
H2    H     H_    0.468445 0.884195 0.278527 0.180984
H3    H     H_    0.422346 0.890447 0.767957 0.199641
H4    H     H_    0.538889 0.892026 0.836834 0.202382
H5    H     H_    0.420334 0.111876 0.766942 0.196470
H6    H     H_    0.536843 0.112898 0.835669 0.213051
H7    H     H_    0.359937 0.489075 0.128819 0.140157
H8    H     H_    0.360006 0.488541 0.872862 0.145898
H9    H     H_    0.644763 0.346967 0.865166 0.213059
H10   H     H_    0.715628 0.487594 0.872035 0.188062
H11   H     H_    0.780220 0.393891 0.310086 0.141149
H12   H     H_    0.717051 0.484979 0.119064 0.149727
H13   H     H_    0.920890 0.343847 0.194482 0.147693
H14   H     H_    0.083490 0.346660 0.193080 0.146250
H15   H     H_    0.222887 0.403961 0.303268 0.133577
H16   H     H_    0.222875 0.592174 0.699277 0.155941
H17   H     H_    0.914418 0.652153 0.809829 0.149192
N1    N     N_R   0.500570 0.500930 0.147930 -0.186940
N2    N     N_R   0.500570 0.500890 0.852020 -0.183095
O1    O     O_R   0.500000 0.319640 0.618810 -0.580664
O2    O     O_R   0.500010 0.319680 0.381230 -0.537204
O3    O     O_R   0.370250 0.499950 0.618800 -0.597980
O4    O     O_R   0.370260 0.499990 0.381220 -0.603106
O5    O     O_R   0.499990 0.680320 0.618770 -0.577997
O6    O     O_R   0.500000 0.680360 0.381190 -0.582427
O7    O     O_R   0.629740 0.500010 0.618780 -0.585338
O8    O     O_R   0.629750 0.500050 0.381200 -0.589027
C35   C     C_1   0.645366 0.311825 0.131735 0.347329
N3    N     N_1   0.635654 0.213660 0.176009 -0.253327
C36   C     C_1   0.087619 0.663645 0.846667 0.216179
N4    N     N_1   0.122329 0.708181 0.941831 -0.300241
O9    O     O_3   0.455629 0.120360 0.249620 -0.580465
C37   C     C_3   0.364548 0.154556 0.252858 0.088835
H18   H     H_    0.358213 0.245524 0.200543 0.170078
H19   H     H_    0.336690 0.167152 0.360512 0.099618
C38   C     C_3   0.309521 0.060418 0.171786 -0.367027
H20   H     H_    0.337974 0.048142 0.065119 0.233047
H21   H     H_    0.311898 0.970059 0.226117 0.216246
C39   C     C_3   0.212848 0.102593 0.159829 -0.911179
H22   H     H_    0.182830 0.114841 0.265338 0.259036
H23   H     H_    0.174413 0.032066 0.101850 0.272765
H24   H     H_    0.208635 0.191255 0.102281 0.242732

loop_
_geom_bond_atom_site_label_1
_geom_bond_atom_site_label_2
_ccdc_geom_bond_type
C29   O8    A    
C8    C36   S    
C19   C20   S    
Cu2   O4    S    
C26   N2    A    
C3    H13   S    
C7    C8    A    
C22   N1    A    
C26   C27   S    
Cu1   O3    S    
C14   C21   S    
C1    O1    A    
C5    C6    A    
C20   H4    S    
C16   C17   A    
C3    C33   A    
C24   N1    A    
C15   C16   A    
C18   C19   A    
C37   H19   S    
O9    C37   S    
C12   O4    A    
Cu1   Cu2   S    
C8    C9    A    
C1    C15   S    
Cu2   O8    S    
C12   O3    A    
C27   H9    S    
C36   N4    T    
C22   C28   S    
C38   C39   S    
C10   H15   S    
C25   H8    S    
C33   C34   A    
C23   O5    A    
Cu1   N2    S    
C18   C23   S    
C24   C25   A    
C38   H21   S    
Cu2   O2    S    
C20   H3    S    
C4    C5    A    
C6    C34   A    
C30   H1    S    
C4    H14   S    
Cu1   O5    S    
C37   C38   S    
C39   H22   S    
C1    O2    A    
C13   H16   S    
C31   C32   A    
C7    C13   A    
C17   C18   A    
C39   H23   S    
C16   O9    S    
C28   C35   S    
C27   H10   S    
C32   H11   S    
C21   H5    S    
C9    H17   S    
Cu2   O6    S    
C29   O7    A    
C28   H12   S    
Cu1   O1    S    
C14   C19   A    
C25   N2    A    
C38   H20   S    
C11   C12   S    
C6    C7    A    
C2    C30   A    
C35   N3    T    
C5    C10   A    
C29   C31   S    
C32   C33   A    
C11   C13   A    
C2    C34   A    
C30   C31   A    
Cu1   O7    S    
C17   H2    S    
C37   H18   S    
C39   H24   S    
Cu2   N1    S    
C10   C11   A    
C21   H6    S    
C23   O6    A    
C20   C21   S    
C22   C26   A    
C27   C28   S    
C24   H7    S    
C14   C15   A    
C2    C9    A    
C3    C4    A    
