data_mof_unit_pretest_157.cif
_audit_creation_date              2012-10-26T18:27:54-0400
_audit_creation_method            fapswitch 2.2
_symmetry_space_group_name_H-M    P1
_symmetry_Int_Tables_number       1
_space_group_crystal_system       triclinic
_cell_length_a                    15.883346
_cell_length_b                    10.90674
_cell_length_c                    9.805874
_cell_angle_alpha                 110.323208
_cell_angle_beta                  98.169601
_cell_angle_gamma                 90.684122
_cell_volume                      1573.36973321

loop_
_atom_site_label
_atom_site_type_symbol
_atom_type_description
_atom_site_fract_x
_atom_site_fract_y
_atom_site_fract_z
_atom_type_partial_charge
C1    C     C_R   0.498227 0.253942 0.441825 0.542744
C2    C     C_2   0.553659 0.064227 0.498448 0.116945
C3    C     C_2   0.524827 0.885793 0.585890 -0.137874
C4    C     C_R   0.340338 0.500123 0.501325 0.547159
C5    C     C_2   0.536767 0.925471 0.474788 -0.132182
C6    C     C_2   0.507229 0.511157 0.080921 -0.019466
C7    C     C_2   0.492273 0.489644 0.919294 -0.011983
C8    C     C_R   0.508891 0.746457 0.557921 0.544849
C9    C     C_R   0.659660 0.499827 0.498704 0.539526
C10   C     C_3   0.057763 0.451689 0.632528 0.287950
C11   C     C_3   0.036330 0.395614 0.353957 0.022196
C12   C     C_3   0.959710 0.467972 0.634626 -0.210551
C13   C     C_3   0.938277 0.394445 0.355928 -0.212582
C14   C     C_1   0.749006 0.499366 0.496382 -0.030468
C15   C     C_3   0.083293 0.496767 0.503997 0.121334
C16   C     C_3   0.120350 0.663442 0.841310 -0.326424
C17   C     C_3   0.915786 0.824326 0.437654 -0.332749
C18   C     C_3   0.697120 0.075434 0.637822 -0.312750
C19   C     C_3   0.152104 0.269108 0.652463 -0.296444
C20   C     C_3   0.054711 0.309883 0.092618 -0.331269
C21   C     C_3   0.916932 0.499697 0.499034 0.031973
C22   C     C_3   0.953981 0.637791 0.515788 0.036268
C23   C     C_3   0.051414 0.634397 0.512875 -0.212851
C24   C     C_1   0.824517 0.499347 0.496699 -0.042982
C25   C     C_1   0.175576 0.498436 0.504716 -0.006998
C26   C     C_1   0.250996 0.499623 0.503847 -0.037571
C27   C     C_2   0.501609 0.113824 0.412307 -0.110217
Cu1   Cu    Cu3+1 0.514650 0.521810 0.644910 0.930581
Cu2   Cu    Cu3+1 0.485350 0.478190 0.355090 0.936770
H1    H     H_    0.556316 0.584085 0.152909 0.143654
H2    H     H_    0.170615 0.694891 0.790511 0.156841
H3    H     H_    0.948760 0.547246 0.737124 0.102424
H4    H     H_    0.919076 0.631566 0.296742 0.247559
H5    H     H_    0.876179 0.848232 0.348564 0.139068
H6    H     H_    0.982793 0.860688 0.447365 0.129118
H7    H     H_    0.891128 0.874759 0.542189 0.143104
H8    H     H_    0.528547 0.856679 0.362042 0.126860
H9    H     H_    0.638577 0.230584 0.600969 0.271454
H10   H     H_    0.746250 0.147482 0.718991 0.126637
H11   H     H_    0.724011 0.028252 0.534744 0.136036
H12   H     H_    0.914944 0.295855 0.350177 0.086042
H13   H     H_    0.682248 0.001041 0.685829 0.159238
H14   H     H_    0.530815 0.955470 0.697879 0.125155
H15   H     H_    0.456320 0.049002 0.321044 0.069265
H16   H     H_    0.442696 0.417510 0.847506 0.149301
H17   H     H_    0.583801 0.621732 0.933096 0.200098
H18   H     H_    0.022456 0.241466 0.553691 0.223231
H19   H     H_    0.163650 0.170903 0.575586 0.122555
H20   H     H_    0.147999 0.262140 0.761615 0.136087
H21   H     H_    0.206823 0.337595 0.663073 0.180018
H22   H     H_    0.417089 0.376806 0.066558 0.202786
H23   H     H_    0.085173 0.715952 0.607399 0.081222
H24   H     H_    0.029247 0.500637 0.207123 0.245688
H25   H     H_    0.074981 0.341145 0.005300 0.137518
H26   H     H_    0.988832 0.263635 0.054410 0.129851
H27   H     H_    0.098989 0.237250 0.111412 0.150092
H28   H     H_    0.057128 0.296279 0.344373 0.159943
H29   H     H_    0.903481 0.409792 0.257067 0.134556
H30   H     H_    0.067605 0.659142 0.418678 0.130164
H31   H     H_    0.943789 0.706778 0.625764 0.130028
H32   H     H_    0.926751 0.378855 0.638406 0.098184
H33   H     H_    0.090151 0.485191 0.858092 0.251354
H34   H     H_    0.145347 0.694298 0.960808 0.133864
H35   H     H_    0.060422 0.712534 0.829755 0.118169
N1    N     N_2   0.463320 0.445430 0.137380 -0.348873
N2    N     N_2   0.536720 0.554500 0.862620 -0.350299
N3    N     N_2   0.105388 0.522439 0.780582 -0.494093
N4    N     N_2   0.910514 0.683930 0.403104 -0.513939
N5    N     N_2   0.621924 0.142008 0.608834 -0.484698
N6    N     N_2   0.072643 0.311637 0.596448 -0.535312
N7    N     N_2   0.057616 0.422597 0.226423 -0.526634
O1    O     O_R   0.507820 0.332330 0.577400 -0.484901
O2    O     O_R   0.483070 0.295500 0.332660 -0.489805
O3    O     O_R   0.391820 0.518430 0.622420 -0.493592
O4    O     O_R   0.367070 0.481600 0.377680 -0.479764
O5    O     O_R   0.516930 0.704500 0.667340 -0.487095
O6    O     O_R   0.492180 0.667670 0.422600 -0.493663
O7    O     O_R   0.632930 0.518400 0.622320 -0.498194
O8    O     O_R   0.608180 0.481570 0.377580 -0.489237

loop_
_geom_bond_atom_site_label_1
_geom_bond_atom_site_label_2
_ccdc_geom_bond_type
C5    H8    S    
C20   H27   S    
Cu1   O3    S    
C13   H12   S    
C10   N3    S    
C16   H2    S    
C23   H30   S    
C3    H14   S    
H33   N3    S    
C7    H16   S    
Cu1   Cu2   S    
H17   N2    S    
C10   C15   S    
C18   H13   S    
C22   H31   S    
C11   N7    S    
C15   C25   S    
Cu2   O2    S    
C8    O5    A    
H22   N1    S    
C14   C24   T    
C18   H10   S    
C18   H11   S    
C4    O4    A    
C11   C15   S    
C27   H15   S    
C6    N1    D    
C20   N7    S    
C2    C27   D    
C17   H7    S    
C2    N5    S    
Cu1   O7    S    
C4    O3    A    
C18   N5    S    
C15   C23   S    
H9    N5    S    
C21   C22   S    
C12   H3    S    
Cu1   O1    S    
C20   H26   S    
C9    O8    A    
C1    O1    A    
C20   H25   S    
C3    C8    S    
C19   H19   S    
C13   H29   S    
C25   C26   T    
C12   C21   S    
Cu1   N2    S    
C9    C14   S    
H18   N6    S    
C19   H20   S    
Cu2   O8    S    
C13   C21   S    
C16   N3    S    
C22   N4    S    
C10   C12   S    
Cu2   N1    S    
C10   N6    S    
C16   H34   S    
C8    O6    A    
C2    C5    S    
C17   H5    S    
Cu1   O5    S    
C17   N4    S    
C6    H1    S    
C3    C5    D    
C4    C26   S    
C6    C7    S    
Cu2   O4    S    
C17   H6    S    
C1    O2    A    
C7    N2    D    
C12   H32   S    
C11   C13   S    
C19   H21   S    
C23   H23   S    
C9    O7    A    
Cu2   O6    S    
C21   C24   S    
C1    C27   S    
C22   C23   S    
C19   N6    S    
C16   H35   S    
C11   H28   S    
H4    N4    S    
H24   N7    S    
