data_mof_unit_pretest_138.cif
_audit_creation_date              2012-12-11T14:35:52-0500
_audit_creation_method            fapswitch 2.2
_symmetry_space_group_name_H-M    P1
_symmetry_Int_Tables_number       1
_space_group_crystal_system       triclinic
_cell_length_a                    14.448419
_cell_length_b                    16.099007
_cell_length_c                    7.04782
_cell_angle_alpha                 89.99998
_cell_angle_beta                  81.107362
_cell_angle_gamma                 90.0
_cell_volume                      1619.65403697

loop_
_atom_site_label
_atom_site_type_symbol
_atom_type_description
_atom_site_fract_x
_atom_site_fract_y
_atom_site_fract_z
_atom_type_partial_charge
O1    O     O_R   0.337460 0.413110 0.524760 -0.535029
O2    O     O_R   0.662540 0.913110 0.475240 -0.535028
O3    O     O_R   0.348690 0.587910 0.191230 -0.548785
O4    O     O_R   0.651310 0.087910 0.808770 -0.548784
O5    O     O_R   0.166530 0.586890 0.082470 -0.554631
O6    O     O_R   0.833470 0.086890 0.917530 -0.554629
C1    C     C_R   0.370510 0.616214 0.353793 0.734873
C2    C     C_R   0.629490 0.116214 0.646207 0.734876
O7    O     O_R   0.348700 0.413830 0.191250 -0.541046
O8    O     O_R   0.651300 0.913830 0.808750 -0.541045
O9    O     O_R   0.166530 0.411570 0.082490 -0.537290
O10   O     O_R   0.833470 0.911570 0.917510 -0.537290
C3    C     C_R   0.370876 0.385707 0.353669 0.810842
C4    C     C_R   0.629123 0.885707 0.646331 0.810846
O11   O     O_R   0.337460 0.588430 0.524740 -0.546671
O12   O     O_R   0.662540 0.088430 0.475260 -0.546670
O13   O     O_3   0.192230 0.499460 0.407330 -0.358777
O14   O     O_3   0.807770 0.999460 0.592670 -0.358780
V1    V     V_3+5 0.263080 0.500100 0.108540 1.434658
V2    V     V_3+5 0.736920 0.000100 0.891460 1.434661
O15   O     O_R   0.155290 0.412090 0.756570 -0.504132
O16   O     O_R   0.844710 0.912090 0.243430 -0.504136
C5    C     C_R   0.131640 0.383947 0.934218 0.662698
C6    C     C_R   0.868360 0.883947 0.065782 0.662688
O17   O     O_R   0.155290 0.586170 0.756550 -0.538369
O18   O     O_R   0.844710 0.086170 0.243450 -0.538372
C7    C     C_R   0.133141 0.614741 0.931912 0.656282
C8    C     C_R   0.866858 0.114741 0.068088 0.656252
V3    V     V_3+5 0.240910 0.499900 0.616030 1.502765
V4    V     V_3+5 0.759090 0.999900 0.383970 1.502755
O19   O     O_3   0.311760 0.500540 0.867100 -0.381545
O20   O     O_3   0.688240 0.000540 0.132900 -0.381541
C9    C     C_3   0.109458 0.762454 0.042069 -0.386234
C10   C     C_3   0.890542 0.262454 0.957931 -0.386216
H1    H     H_    0.139653 0.744791 0.172659 0.134347
H2    H     H_    0.860347 0.244791 0.827341 0.134344
H3    H     H_    0.169782 0.782951 0.934496 0.180386
H4    H     H_    0.830219 0.282951 0.065503 0.180386
C11   C     C_3   0.038135 0.835456 0.084297 -0.158950
C12   C     C_3   0.961866 0.335456 0.915700 -0.158948
H5    H     H_    0.068784 0.890963 0.005351 0.180835
H6    H     H_    0.931218 0.390964 0.994645 0.180837
H7    H     H_    0.881087 0.746942 0.290495 0.178863
H8    H     H_    0.118912 0.246941 0.709504 0.178862
C13   C     C_3   0.975434 0.661915 0.114487 -0.133740
C14   C     C_3   0.024566 0.161914 0.885518 -0.133775
C15   C     C_3   0.029636 0.712650 0.773243 -0.319167
C16   C     C_3   0.970365 0.212649 0.226757 -0.319172
C17   C     C_3   0.062671 0.685643 0.963896 0.034342
C18   C     C_3   0.937328 0.185643 0.036104 0.034306
H9    H     H_    0.994980 0.658918 0.714240 0.167742
H10   H     H_    0.005024 0.158916 0.285751 0.167719
H11   H     H_    0.091603 0.724549 0.662018 0.165033
H12   H     H_    0.908400 0.224546 0.337986 0.165041
C19   C     C_3   0.940485 0.812449 0.024902 -0.093198
C20   C     C_3   0.059515 0.312449 0.975097 -0.093214
C21   C     C_3   0.901513 0.733016 0.136199 -0.366964
C22   C     C_3   0.098487 0.233015 0.863800 -0.366940
C23   C     C_3   0.963052 0.790470 0.803537 0.011473
C24   C     C_3   0.036948 0.290470 0.196463 0.011483
H13   H     H_    0.835293 0.713459 0.087672 0.161933
H14   H     H_    0.164709 0.213460 0.912323 0.161953
H15   H     H_    0.434771 0.693854 0.645544 0.154022
H16   H     H_    0.565229 0.193854 0.354456 0.154022
C25   C     C_2   0.439655 0.684357 0.344448 -0.315913
C26   C     C_2   0.560345 0.184357 0.655552 -0.315910
C27   C     C_2   0.465076 0.717152 0.504833 -0.112675
C28   C     C_2   0.534924 0.217152 0.495167 -0.112673
H17   H     H_    0.529142 0.794117 0.796072 0.125594
H18   H     H_    0.470858 0.294117 0.203928 0.125594
C29   C     C_2   0.559623 0.817856 0.655892 -0.332987
C30   C     C_2   0.440377 0.317856 0.344108 -0.332987
C31   C     C_2   0.534143 0.785069 0.495557 -0.115179
C32   C     C_2   0.465857 0.285069 0.504443 -0.115178
H19   H     H_    0.470092 0.708179 0.204314 0.127125
H20   H     H_    0.529908 0.208179 0.795686 0.127126
C33   C     C_2   0.874576 0.768486 0.719671 0.244559
H21   H     H_    0.837280 0.711340 0.761827 0.121445
O21   O     O_2   0.843822 0.813641 0.605017 -0.541430
C34   C     C_2   0.125424 0.268488 0.280330 0.244560
H22   H     H_    0.162722 0.211343 0.238172 0.121453
O22   O     O_2   0.156175 0.313643 0.394987 -0.541428
C35   C     C_2   0.932483 0.579375 0.074536 0.381520
H23   H     H_    0.943637 0.526187 0.162082 0.057530
O23   O     O_2   0.886543 0.571057 0.944258 -0.516011
C36   C     C_2   0.067513 0.079374 0.925485 0.381654
H24   H     H_    0.056307 0.026172 0.838027 0.057444
O24   O     O_2   0.113497 0.071069 0.055695 -0.516020
H25   H     H_    0.564525 0.808282 0.354815 0.152544
H26   H     H_    0.435475 0.308282 0.645185 0.152544
C37   C     C_2   0.028934 0.859935 0.286128 0.483606
H27   H     H_    0.011118 0.811541 0.390405 0.057600
O25   O     O_2   0.040907 0.932156 0.330096 -0.503924
C38   C     C_2   0.971067 0.359933 0.713868 0.483627
H28   H     H_    0.988881 0.311538 0.609592 0.057594
O26   O     O_2   0.959095 0.432154 0.669898 -0.503910
H29   H     H_    0.999866 0.654743 0.256068 0.087866
H30   H     H_    0.000135 0.154739 0.743936 0.087877
C39   C     C_2   0.010734 0.867146 0.704035 0.335074
H31   H     H_    0.969520 0.920829 0.676978 0.135162
O27   O     O_2   0.095933 0.871632 0.659960 -0.538074
C40   C     C_2   0.989264 0.367146 0.295962 0.335073
H32   H     H_    0.030477 0.420831 0.323014 0.135156
O28   O     O_2   0.904065 0.371629 0.340039 -0.538085

loop_
_geom_bond_atom_site_label_1
_geom_bond_atom_site_label_2
_ccdc_geom_bond_type
C22   H14   S    
C26   C28   D    
C2    C26   S    
O11   V3    S    
C19   C23   S    
C23   C39   S    
C4    C29   S    
C28   C32   S    
O4    C2    A    
V1    O19   S    
C23   C33   S    
C5    C20   S    
C11   H5    S    
C33   H21   S    
C6    C19   S    
C16   H12   S    
C13   C21   S    
C9    C11   S    
C10   C12   S    
H16   C28   S    
O3    C1    A    
C36   O24   D    
C37   O25   D    
O12   V4    S    
O13   V3    S    
H17   C29   S    
O7    C3    A    
O9    V1    S    
O13   V1    S    
O5    C7    A    
C8    C18   S    
O7    V1    S    
C11   C19   S    
C35   H23   S    
O8    V2    S    
C12   C20   S    
O3    V1    S    
C27   C31   S    
C10   H2    S    
C15   H11   S    
C16   C18   S    
C14   H30   S    
C2    O12   A    
C14   C22   S    
C13   C35   S    
C24   C40   S    
C11   C37   S    
C16   C24   S    
C33   O21   D    
O17   V3    S    
H15   C27   S    
C10   C18   S    
C30   C32   D    
O8    C4    A    
H8    C22   S    
C37   H27   S    
C29   C31   D    
C36   H24   S    
C15   H9    S    
C1    O11   A    
C25   C27   D    
O15   V3    S    
C9    H3    S    
C20   C24   S    
C38   O26   D    
C1    C25   S    
C12   H6    S    
C39   H31   S    
C13   C17   S    
C26   H20   S    
O10   V2    S    
O1    V3    S    
C38   H28   S    
C40   O28   D    
O14   V4    S    
C34   O22   D    
C39   O27   D    
O18   V4    S    
O15   C5    A    
O17   C7    A    
O16   C6    A    
O1    C3    A    
V2    O20   S    
C14   C18   S    
C24   C34   S    
O16   V4    S    
C35   O23   D    
C10   H4    S    
C12   C38   S    
C34   H22   S    
C21   H13   S    
O5    V1    S    
C3    C30   S    
C15   C17   S    
O6    V2    S    
O10   C6    A    
O18   C8    A    
C25   H19   S    
O2    V4    S    
C32   H26   S    
C19   C21   S    
C31   H25   S    
V3    O19   S    
C13   H29   S    
V4    O20   S    
O9    C5    A    
C9    H1    S    
C20   C22   S    
O14   V2    S    
C40   H32   S    
O2    C4    A    
H7    C21   S    
C15   C23   S    
O4    V2    S    
O6    C8    A    
C16   H10   S    
H18   C30   S    
C9    C17   S    
C7    C17   S    
C14   C36   S    
