data_mof_unit_pretest_526.cif
_audit_creation_date              2012-10-26T19:45:32-0400
_audit_creation_method            fapswitch 2.2
_symmetry_space_group_name_H-M    P1
_symmetry_Int_Tables_number       1
_space_group_crystal_system       triclinic
_cell_length_a                    10.829501
_cell_length_b                    9.580776
_cell_length_c                    10.741256
_cell_angle_alpha                 90.042259
_cell_angle_beta                  91.384752
_cell_angle_gamma                 90.006669
_cell_volume                      1114.13348255

loop_
_atom_site_label
_atom_site_type_symbol
_atom_type_description
_atom_site_fract_x
_atom_site_fract_y
_atom_site_fract_z
_atom_type_partial_charge
C1    C     C_R   0.262268 0.499994 0.500108 0.564601
C2    C     C_R   0.440224 0.925733 0.407575 -0.047872
C3    C     C_R   0.558993 0.926655 0.593590 0.404831
C4    C     C_R   0.558867 0.073581 0.593665 0.403417
C5    C     C_R   0.499678 0.500138 0.259982 0.544260
C6    C     C_R   0.737739 0.500004 0.500480 0.559075
C7    C     C_R   0.500110 0.500223 0.739970 0.635829
C8    C     C_3   0.383598 0.423170 0.069841 -0.229189
C9    C     C_3   0.617590 0.426642 0.075780 -0.226561
C10   C     C_3   0.383933 0.421687 0.925284 0.074805
C11   C     C_3   0.616679 0.423344 0.931255 0.066002
C12   C     C_3   0.499078 0.653041 0.929166 -0.238616
C13   C     C_3   0.497893 0.652501 0.071564 -0.262172
C14   C     C_3   0.499680 0.500495 0.122066 -0.014595
C15   C     C_3   0.499954 0.500804 0.877969 0.056397
C16   C     C_R   0.063870 0.373170 0.500930 -0.119099
C17   C     C_R   0.063903 0.626816 0.501125 -0.129628
C18   C     C_R   0.936110 0.373173 0.501137 -0.121404
C19   C     C_R   0.936143 0.626823 0.501334 -0.130482
C20   C     C_R   0.871694 0.500002 0.501055 0.032261
C21   C     C_R   0.128317 0.499991 0.500710 0.031368
C22   C     C_R   0.440257 0.074095 0.407554 -0.047447
Cu1   Cu    Cu3+1 0.500020 0.640660 0.500000 0.953197
Cu2   Cu    Cu3+1 0.500020 0.359340 0.500000 0.964086
H1    H     H_    0.298699 0.474210 0.104430 0.135084
H2    H     H_    0.581190 0.711784 0.898063 0.175658
H3    H     H_    0.111858 0.273979 0.500789 0.136688
H4    H     H_    0.111915 0.726006 0.501144 0.134928
H5    H     H_    0.888092 0.273982 0.501175 0.134982
H6    H     H_    0.888153 0.726017 0.501533 0.134098
H7    H     H_    0.391920 0.129353 0.333366 0.123289
H8    H     H_    0.391863 0.870345 0.333402 0.122372
H9    H     H_    0.663297 0.779651 0.656365 0.357521
H10   H     H_    0.663537 0.220245 0.656557 0.363493
H11   H     H_    0.255899 0.566425 0.911986 0.329132
H12   H     H_    0.701151 0.481192 0.113597 0.138646
H13   H     H_    0.743810 0.568918 0.921799 0.331751
H14   H     H_    0.382710 0.313733 0.104597 0.108821
H15   H     H_    0.621690 0.317733 0.111712 0.121807
H16   H     H_    0.389919 0.310739 0.895069 0.170966
H17   H     H_    0.611156 0.311991 0.902046 0.192556
H18   H     H_    0.413799 0.707931 0.103029 0.127194
H19   H     H_    0.579778 0.711121 0.108334 0.141221
H20   H     H_    0.417552 0.711670 0.892214 0.149376
N1    N     N_R   0.500030 0.852070 0.500030 -0.268306
N2    N     N_R   0.500030 0.147930 0.500030 -0.269148
O1    O     O_R   0.319660 0.618740 0.499990 -0.506422
O2    O     O_3   0.622015 0.137881 0.690261 -0.668683
O3    O     O_3   0.273108 0.474991 0.872802 -0.692155
O4    O     O_3   0.727022 0.476693 0.883098 -0.696355
O5    O     O_R   0.319660 0.381260 0.499990 -0.501127
O6    O     O_R   0.499990 0.618790 0.317690 -0.514205
O7    O     O_R   0.499990 0.381210 0.317690 -0.515502
O8    O     O_R   0.680370 0.618830 0.500010 -0.534378
O9    O     O_R   0.680370 0.381170 0.500010 -0.531523
O10   O     O_R   0.500030 0.618780 0.682310 -0.490726
O11   O     O_R   0.500030 0.381220 0.682310 -0.486434
O12   O     O_3   0.622669 0.862687 0.689898 -0.677682

loop_
_geom_bond_atom_site_label_1
_geom_bond_atom_site_label_2
_ccdc_geom_bond_type
C2    C22   A    
C9    H12   S    
C9    C14   S    
C5    O6    A    
C1    C21   S    
H9    O12   S    
Cu1   N1    S    
C10   O3    S    
C6    C20   S    
C19   C20   A    
C12   C15   S    
C13   H19   S    
C6    O9    A    
Cu1   Cu2   S    
Cu2   N2    S    
C17   H4    S    
C16   H3    S    
C7    C15   S    
Cu1   O6    S    
Cu1   O10   S    
C12   H20   S    
C18   H5    S    
C4    N2    A    
C13   C14   S    
Cu2   O9    S    
C8    H1    S    
C1    O5    A    
C5    C14   S    
C16   C21   A    
C8    H14   S    
C7    O10   A    
C6    O8    A    
H11   O3    S    
C2    H8    S    
C13   H18   S    
C17   C19   A    
C7    O11   A    
C11   H17   S    
C18   C20   A    
C10   C15   S    
C9    C11   S    
C2    N1    A    
Cu2   O5    S    
Cu1   O1    S    
C22   H7    S    
C3    C4    A    
C3    O12   S    
C9    H15   S    
H10   O2    S    
C12   C13   S    
Cu1   O8    S    
C16   C18   A    
C4    O2    S    
C5    O7    A    
H13   O4    S    
C11   O4    S    
C1    O1    A    
C10   H16   S    
C8    C14   S    
C22   N2    A    
Cu2   O7    S    
C19   H6    S    
C11   C15   S    
C3    N1    A    
C8    C10   S    
C17   C21   A    
C12   H2    S    
Cu2   O11   S    
