data_mof_unit_pretest_867.cif
_audit_creation_date              2012-10-26T18:26:33-0400
_audit_creation_method            fapswitch 2.2
_symmetry_space_group_name_H-M    P1
_symmetry_Int_Tables_number       1
_space_group_crystal_system       triclinic
_cell_length_a                    15.839028
_cell_length_b                    8.689957
_cell_length_c                    7.463201
_cell_angle_alpha                 102.922385
_cell_angle_beta                  94.736068
_cell_angle_gamma                 92.202576
_cell_volume                      996.090752154

loop_
_atom_site_label
_atom_site_type_symbol
_atom_type_description
_atom_site_fract_x
_atom_site_fract_y
_atom_site_fract_z
_atom_type_partial_charge
C1    C     C_R   0.497477 0.199770 0.453321 0.547300
C2    C     C_3   0.978798 0.638831 0.604062 -0.120482
C3    C     C_1   0.250370 0.500520 0.503021 -0.005669
C4    C     C_1   0.749630 0.499480 0.496979 -0.005669
C5    C     C_3   0.035224 0.518214 0.671002 0.024006
C6    C     C_3   0.964776 0.481786 0.328998 0.024006
C7    C     C_3   0.082953 0.500377 0.498339 0.027325
C8    C     C_3   0.917047 0.499623 0.501661 0.027325
C9    C     C_1   0.174730 0.500616 0.500783 -0.028010
C10   C     C_1   0.825270 0.499384 0.499217 -0.028010
C11   C     C_1   0.923124 0.461294 0.141447 0.211012
C12   C     C_R   0.502523 0.800230 0.546679 0.547300
C13   C     C_1   0.076876 0.538706 0.858553 0.211012
C14   C     C_R   0.339957 0.499917 0.501335 0.550258
C15   C     C_R   0.660043 0.500083 0.498665 0.550258
C16   C     C_2   0.496269 0.031902 0.427075 -0.150768
C17   C     C_2   0.503731 0.968098 0.572925 -0.150768
C18   C     C_3   0.972537 0.379277 0.571475 -0.108746
C19   C     C_3   0.027463 0.620723 0.428525 -0.108746
C20   C     C_3   0.021202 0.361169 0.395938 -0.120482
Cu1   Cu    Cu3+1 0.509330 0.517380 0.684380 0.978200
Cu2   Cu    Cu3+1 0.490670 0.482620 0.315620 0.978200
H1    H     H_    0.949149 0.281527 0.631466 0.133863
H2    H     H_    0.050851 0.718473 0.368534 0.133863
H3    H     H_    0.489234 0.960446 0.286463 0.136971
H4    H     H_    0.510766 0.039554 0.713537 0.136971
H5    H     H_    0.434374 0.376939 0.948398 0.241986
H6    H     H_    0.565626 0.623061 0.051602 0.241986
H7    H     H_    0.039610 0.248501 0.309147 0.119935
H8    H     H_    0.960390 0.751499 0.690853 0.119935
N1    N     N_2   0.476600 0.456420 0.038510 -0.252793
N2    N     N_2   0.523400 0.543580 0.961490 -0.252793
N3    N     N_1   0.889821 0.445160 0.993977 -0.312130
N4    N     N_1   0.110179 0.554840 0.006023 -0.312130
O1    O     O_R   0.506070 0.286130 0.619780 -0.506477
O2    O     O_R   0.493930 0.713870 0.380220 -0.506477
O3    O     O_R   0.490300 0.256770 0.308360 -0.498147
O4    O     O_R   0.509700 0.743230 0.691640 -0.498147
O5    O     O_R   0.386960 0.514660 0.655680 -0.499769
O6    O     O_R   0.613040 0.485340 0.344320 -0.499769
O7    O     O_R   0.371190 0.485310 0.344260 -0.487866
O8    O     O_R   0.628810 0.514690 0.655740 -0.487866

loop_
_geom_bond_atom_site_label_1
_geom_bond_atom_site_label_2
_ccdc_geom_bond_type
C12   C17   S    
C5    C7    S    
C3    C9    T    
C12   O2    A    
C6    C20   S    
C5    C13   S    
N1    N2    D    
Cu1   O5    S    
C1    O3    A    
C2    H8    S    
Cu2   O6    S    
C4    C15   S    
C19   H2    S    
C2    C19   S    
C13   N4    T    
C1    C16   S    
Cu1   Cu2   S    
C6    C19   S    
C3    C14   S    
C14   O7    A    
Cu1   O1    S    
C17   H4    S    
H6    N2    S    
C7    C19   S    
C20   H7    S    
C6    C11   S    
C12   O4    A    
Cu1   N2    S    
C2    C8    S    
C15   O6    A    
C2    C5    S    
Cu2   N1    S    
C4    C10   T    
Cu1   O8    S    
Cu2   O7    S    
C11   N3    T    
Cu2   O2    S    
C1    O1    A    
C18   C20   S    
C8    C10   S    
C7    C20   S    
C16   H3    S    
C7    C9    S    
C6    C8    S    
C5    C18   S    
C14   O5    A    
Cu2   O3    S    
H5    N1    S    
C8    C18   S    
Cu1   O4    S    
C18   H1    S    
C15   O8    A    
C16   C17   D    
