data_mof_unit_pretest_1565.cif
_audit_creation_date              2012-12-10T17:26:00-0500
_audit_creation_method            fapswitch 2.2
_symmetry_space_group_name_H-M    P1
_symmetry_Int_Tables_number       1
_space_group_crystal_system       triclinic
_cell_length_a                    37.185668
_cell_length_b                    29.337895
_cell_length_c                    21.853805
_cell_angle_alpha                 89.706171
_cell_angle_beta                  127.892069
_cell_angle_gamma                 90.048239
_cell_volume                      18814.5618777

loop_
_atom_site_label
_atom_site_type_symbol
_atom_type_description
_atom_site_fract_x
_atom_site_fract_y
_atom_site_fract_z
_atom_type_partial_charge
C1    C     C_R   0.914424 0.000055 0.914586 0.850398
C2    C     C_R   0.085581 0.999942 0.085560 0.814333
C3    C     C_R   0.414424 0.500055 0.914586 0.850399
C4    C     C_R   0.585580 0.499942 0.085560 0.814335
C5    C     C_1   0.820909 0.000157 0.822396 -0.008527
C6    C     C_1   0.179091 0.999839 0.177665 -0.006326
C7    C     C_1   0.320909 0.500157 0.822396 -0.008527
C8    C     C_1   0.679091 0.499839 0.177665 -0.006326
C9    C     C_1   0.770653 0.000136 0.772801 -0.003380
C10   C     C_1   0.229347 0.999860 0.227236 -0.003673
C11   C     C_1   0.270653 0.500136 0.772801 -0.003380
C12   C     C_1   0.729347 0.499860 0.227236 -0.003673
C13   C     C_1   0.728249 0.000107 0.730814 -0.003796
C14   C     C_1   0.271751 0.999890 0.269209 -0.003681
C15   C     C_1   0.228248 0.500107 0.730814 -0.003796
C16   C     C_1   0.771751 0.499890 0.269210 -0.003681
C17   C     C_1   0.677973 0.000067 0.680743 -0.003956
C18   C     C_1   0.322026 0.999931 0.319268 -0.003891
C19   C     C_1   0.177973 0.500067 0.680743 -0.003956
C20   C     C_1   0.822026 0.499932 0.319268 -0.003891
C21   C     C_1   0.635549 0.000033 0.637991 -0.190279
C22   C     C_1   0.364451 0.999965 0.362012 -0.190284
C23   C     C_1   0.135549 0.500033 0.637991 -0.190279
C24   C     C_1   0.864451 0.499965 0.362012 -0.190284
C25   C     C_R   0.000030 0.914462 0.500044 0.821864
C26   C     C_R   0.999965 0.085538 0.500000 0.821572
C27   C     C_R   0.500030 0.414461 0.500044 0.821866
C28   C     C_R   0.499965 0.585538 0.500000 0.821571
C29   C     C_R   0.001102 0.999658 0.622170 0.799740
C30   C     C_R   0.998891 0.000501 0.377776 0.796098
C31   C     C_R   0.501102 0.499658 0.622170 0.799740
C32   C     C_R   0.498891 0.500501 0.377776 0.796101
C33   C     C_R   0.499978 0.084354 0.499853 0.792312
C34   C     C_R   0.500020 0.915646 0.500152 0.792308
C35   C     C_R   0.999978 0.584354 0.499853 0.792312
C36   C     C_R   0.000020 0.415646 0.500152 0.792308
C37   C     C_R   0.584358 0.000001 0.585217 0.791830
C38   C     C_R   0.415641 0.999999 0.414783 0.791818
C39   C     C_R   0.084358 0.500000 0.585217 0.791830
C40   C     C_R   0.915641 0.499999 0.414783 0.791818
C41   C     C_1   0.000001 0.863355 0.500221 -0.199847
C42   C     C_1   0.999974 0.136645 0.500082 -0.199315
C43   C     C_1   0.500001 0.363355 0.500221 -0.199844
C44   C     C_1   0.499974 0.636644 0.500081 -0.199317
C45   C     C_R   0.997855 0.000226 0.876763 0.805655
C46   C     C_R   0.002637 0.999774 0.123718 0.860109
C47   C     C_R   0.497855 0.500226 0.876763 0.805653
C48   C     C_R   0.502636 0.499774 0.123717 0.860114
C49   C     C_1   0.999863 0.820939 0.500177 -0.012559
C50   C     C_1   0.000095 0.179060 0.500245 -0.010417
C51   C     C_1   0.499862 0.320939 0.500177 -0.012556
C52   C     C_1   0.500095 0.679060 0.500245 -0.010416
C53   C     C_1   0.999824 0.770678 0.499968 -0.035070
C54   C     C_1   0.000143 0.229323 0.500424 -0.034203
C55   C     C_1   0.499824 0.270678 0.499969 -0.035070
C56   C     C_1   0.500143 0.729322 0.500424 -0.034203
C57   C     C_1   0.499846 0.228258 0.499805 -0.015389
C58   C     C_1   0.500128 0.771742 0.500490 -0.015854
C59   C     C_1   0.999846 0.728258 0.499805 -0.015388
C60   C     C_1   0.000128 0.271742 0.500491 -0.015854
C61   C     C_1   0.499893 0.177971 0.499654 -0.006009
C62   C     C_1   0.500090 0.822029 0.500498 -0.005969
C63   C     C_1   0.999893 0.677971 0.499654 -0.006009
C64   C     C_1   0.000090 0.322030 0.500498 -0.005969
C65   C     C_1   0.499935 0.135536 0.499626 -0.191780
C66   C     C_1   0.500055 0.864465 0.500425 -0.191670
C67   C     C_1   0.999935 0.635536 0.499626 -0.191779
C68   C     C_1   0.000055 0.364465 0.500425 -0.191670
C69   C     C_3   0.965291 0.962927 0.748938 0.257605
C70   C     C_3   0.034349 0.038524 0.250863 0.241494
C71   C     C_3   0.017696 0.950010 0.233856 0.257967
C72   C     C_3   0.985298 0.050720 0.769643 0.279890
C73   C     C_3   0.465290 0.462927 0.748937 0.257604
C74   C     C_3   0.534352 0.538522 0.250866 0.241490
C75   C     C_3   0.517692 0.450008 0.233852 0.257971
C76   C     C_3   0.485298 0.550720 0.769644 0.279891
C77   C     C_3   0.974045 0.958201 0.687325 -0.166493
C78   C     C_3   0.024848 0.042925 0.311603 -0.167632
C79   C     C_3   0.023532 0.956136 0.310606 -0.172073
C80   C     C_3   0.978771 0.044958 0.692262 -0.200563
C81   C     C_3   0.474045 0.458202 0.687324 -0.166491
C82   C     C_3   0.524852 0.542924 0.311606 -0.167628
C83   C     C_3   0.523529 0.456135 0.310603 -0.172078
C84   C     C_3   0.478772 0.544958 0.692263 -0.200562
C85   C     C_3   0.053179 0.990437 0.844612 0.208400
C86   C     C_3   0.947723 0.007894 0.155341 0.227358
C87   C     C_3   0.553179 0.490436 0.844612 0.208401
C88   C     C_3   0.447723 0.507898 0.155341 0.227360
C89   C     C_3   0.000864 0.000965 0.811569 -0.002363
C90   C     C_3   0.000259 0.999224 0.189653 0.021017
C91   C     C_3   0.500864 0.500965 0.811569 -0.002364
C92   C     C_3   0.500258 0.499224 0.189652 0.021015
C93   C     C_3   0.004929 0.999794 0.694270 -0.201492
C94   C     C_3   0.995255 0.000145 0.305760 -0.193675
C95   C     C_3   0.504929 0.499794 0.694270 -0.201493
C96   C     C_3   0.495255 0.500145 0.305760 -0.193676
C97   C     C_3   0.058526 0.997393 0.775323 0.053295
C98   C     C_3   0.941652 0.000278 0.223689 0.027364
C99   C     C_3   0.558526 0.497393 0.775323 0.053294
C100  C     C_3   0.441651 0.500282 0.223689 0.027364
C101  C     C_1   0.863301 0.000145 0.864163 -0.221334
C102  C     C_1   0.136701 0.999851 0.135928 -0.221369
C103  C     C_1   0.363301 0.500145 0.864163 -0.221332
C104  C     C_1   0.636701 0.499851 0.135928 -0.221370
Cu1   Cu    Cu3+1 0.000000 0.957500 0.000000 0.908958
Cu2   Cu    Cu3+1 0.000000 0.042500 0.000000 0.905010
Cu3   Cu    Cu3+1 0.500000 0.457500 0.000000 0.908957
Cu4   Cu    Cu3+1 0.500000 0.542500 0.000000 0.905010
Cu5   Cu    Cu3+1 0.957500 1.000000 0.457520 0.925820
Cu6   Cu    Cu3+1 0.042500 0.000000 0.542480 0.929522
Cu7   Cu    Cu3+1 0.457500 0.500000 0.457520 0.925820
Cu8   Cu    Cu3+1 0.542500 0.500000 0.542480 0.929520
Cu9   Cu    Cu3+1 0.499970 1.000000 0.437500 0.952119
Cu10  Cu    Cu3+1 0.500030 1.000000 0.562500 0.952333
Cu11  Cu    Cu3+1 0.999970 0.500000 0.437500 0.952119
Cu12  Cu    Cu3+1 0.000030 0.500000 0.562500 0.952333
H1    H     H_    0.940347 0.966754 0.631995 0.138981
H2    H     H_    0.058645 0.035449 0.367428 0.138849
H3    H     H_    0.058907 0.968464 0.347665 0.172420
H4    H     H_    0.942953 0.033856 0.654969 0.179421
H5    H     H_    0.440347 0.466755 0.631995 0.138981
H6    H     H_    0.558647 0.535444 0.367431 0.138849
H7    H     H_    0.558904 0.468460 0.347661 0.172422
H8    H     H_    0.442953 0.533857 0.654970 0.179422
O1    O     O_R   0.938020 0.964110 0.938040 -0.562033
O2    O     O_R   0.061980 0.035890 0.061960 -0.571103
O3    O     O_R   0.061980 0.964110 0.061960 -0.569970
O4    O     O_R   0.938020 0.035890 0.938040 -0.569847
O5    O     O_R   0.438020 0.464110 0.938040 -0.562036
O6    O     O_R   0.561980 0.535890 0.061960 -0.571103
O7    O     O_R   0.561980 0.464110 0.061960 -0.569969
O8    O     O_R   0.438020 0.535890 0.938040 -0.569847
O9    O     O_R   0.999990 0.964110 0.908840 -0.602397
O10   O     O_R   0.000010 0.035890 0.091160 -0.607574
O11   O     O_R   0.000010 0.964110 0.091160 -0.593213
O12   O     O_R   0.999990 0.035890 0.908840 -0.608597
O13   O     O_R   0.499990 0.464110 0.908840 -0.602397
O14   O     O_R   0.500010 0.535890 0.091160 -0.607573
O15   O     O_R   0.500010 0.464110 0.091160 -0.593217
O16   O     O_R   0.499990 0.535890 0.908840 -0.608598
O17   O     O_R   0.964100 0.938030 0.464100 -0.574850
O18   O     O_R   0.035900 0.061970 0.535900 -0.573731
O19   O     O_R   0.035900 0.938030 0.535900 -0.564595
O20   O     O_R   0.964100 0.061970 0.464100 -0.567338
O21   O     O_R   0.464100 0.438030 0.464100 -0.574851
O22   O     O_R   0.535900 0.561970 0.535900 -0.573731
O23   O     O_R   0.535900 0.438030 0.535900 -0.564596
O24   O     O_R   0.464100 0.561970 0.464100 -0.567338
O25   O     O_R   0.964110 1.000000 0.555280 -0.599660
O26   O     O_R   0.035890 0.000000 0.444720 -0.596733
O27   O     O_R   0.464110 0.500000 0.555280 -0.599661
O28   O     O_R   0.535890 0.500000 0.444720 -0.596736
O29   O     O_R   0.035850 1.000000 0.627010 -0.586615
O30   O     O_R   0.964150 0.000000 0.372990 -0.588034
O31   O     O_R   0.535850 0.500000 0.627010 -0.586615
O32   O     O_R   0.464150 0.500000 0.372990 -0.588033
O33   O     O_R   0.499940 0.061950 0.447200 -0.557473
O34   O     O_R   0.500060 0.938050 0.552800 -0.557366
O35   O     O_R   0.500060 0.061950 0.552800 -0.557407
O36   O     O_R   0.499940 0.938050 0.447200 -0.557442
O37   O     O_R   0.999940 0.561950 0.447200 -0.557473
O38   O     O_R   0.000060 0.438050 0.552800 -0.557366
O39   O     O_R   0.000060 0.561950 0.552800 -0.557407
O40   O     O_R   0.999940 0.438050 0.447200 -0.557442
O41   O     O_R   0.561950 0.000000 0.509180 -0.555939
O42   O     O_R   0.438050 0.000000 0.490820 -0.555898
O43   O     O_R   0.061950 0.500000 0.509180 -0.555939
O44   O     O_R   0.938050 0.500000 0.490820 -0.555898
O45   O     O_R   0.561950 0.000000 0.614710 -0.558423
O46   O     O_R   0.438050 0.000000 0.385290 -0.558461
O47   O     O_R   0.061950 0.500000 0.614710 -0.558423
O48   O     O_R   0.938050 0.500000 0.385290 -0.558461
N1    N     N_3   0.966979 0.917305 0.780690 -0.578552
H9    H     H_    0.945187 0.915232 0.795708 0.225278
H10   H     H_    0.998467 0.905973 0.828384 0.251372
N2    N     N_3   0.031465 0.084025 0.217680 -0.578129
H11   H     H_    0.052898 0.086453 0.201956 0.225872
H12   H     H_    0.999709 0.094961 0.170315 0.248145
N3    N     N_3   0.985853 0.912283 0.188498 -0.609224
H13   H     H_    0.003485 0.881403 0.210497 0.206267
H14   H     H_    0.976283 0.911003 0.132829 0.240768
N4    N     N_3   0.017990 0.087475 0.817021 -0.616949
H15   H     H_    0.022727 0.093662 0.868388 0.246216
H16   H     H_    0.049329 0.083899 0.828906 0.250644
N5    N     N_3   0.466978 0.417305 0.780688 -0.578552
H17   H     H_    0.445185 0.415233 0.795707 0.225277
H18   H     H_    0.498466 0.405973 0.828382 0.251372
N6    N     N_3   0.531471 0.584023 0.217687 -0.578130
H19   H     H_    0.552903 0.586448 0.201960 0.225871
H20   H     H_    0.499715 0.594962 0.170323 0.248144
N7    N     N_3   0.485846 0.412284 0.188491 -0.609221
H21   H     H_    0.503475 0.381403 0.210485 0.206266
H22   H     H_    0.476275 0.411006 0.132821 0.240766
N8    N     N_3   0.517991 0.587475 0.817022 -0.616951
H23   H     H_    0.522728 0.593662 0.868389 0.246216
H24   H     H_    0.549330 0.583899 0.828908 0.250645
N9    N     N_3   0.918064 0.979550 0.708515 -0.604427
H25   H     H_    0.911376 0.983658 0.748214 0.218706
H26   H     H_    0.894966 0.955132 0.668604 0.225024
N10   N     N_3   0.082160 0.023515 0.292542 -0.602660
H27   H     H_    0.104295 0.048717 0.331705 0.226811
H28   H     H_    0.089280 0.019625 0.253371 0.219726
N11   N     N_3   0.062435 0.937451 0.253514 -0.605349
H29   H     H_    0.077480 0.911114 0.294692 0.222909
H30   H     H_    0.058533 0.924357 0.205433 0.230275
N12   N     N_3   0.941022 0.065273 0.749861 -0.582458
H31   H     H_    0.928468 0.093382 0.712312 0.235579
H32   H     H_    0.944624 0.077164 0.798241 0.238584
N13   N     N_3   0.418063 0.479551 0.708515 -0.604427
H33   H     H_    0.411375 0.483659 0.748213 0.218705
H34   H     H_    0.394966 0.455134 0.668603 0.225025
N14   N     N_3   0.582162 0.523509 0.292543 -0.602661
H35   H     H_    0.604299 0.548710 0.331708 0.226811
H36   H     H_    0.589281 0.519618 0.253372 0.219727
N15   N     N_3   0.562430 0.437446 0.253508 -0.605347
H37   H     H_    0.577473 0.411109 0.294685 0.222910
H38   H     H_    0.558527 0.424351 0.205427 0.230279
N16   N     N_3   0.441022 0.565273 0.749862 -0.582458
H39   H     H_    0.428470 0.593384 0.712315 0.235579
H40   H     H_    0.444624 0.577164 0.798241 0.238583
C105  C     C_R   0.977592 0.908727 0.666333 0.116005
C106  C     C_R   0.009197 0.876221 0.721761 -0.106193
C107  C     C_R   0.008172 0.830891 0.701459 -0.158663
C108  C     C_R   0.975169 0.816538 0.625656 -0.099069
C109  C     C_R   0.943635 0.847709 0.569567 -0.127806
C110  C     C_R   0.945002 0.893247 0.589201 -0.168296
H41   H     H_    0.035552 0.885365 0.780624 0.170830
H42   H     H_    0.033008 0.806782 0.744895 0.132599
H43   H     H_    0.974226 0.781320 0.610239 0.134016
H44   H     H_    0.918146 0.836646 0.510474 0.132590
H45   H     H_    0.919754 0.916214 0.543657 0.133607
C111  C     C_R   0.019893 0.092340 0.331039 0.117282
C112  C     C_R   0.987354 0.123919 0.274632 -0.107329
C113  C     C_R   0.987313 0.169376 0.293339 -0.159079
C114  C     C_R   0.020206 0.184843 0.368433 -0.098507
C115  C     C_R   0.052675 0.154639 0.425447 -0.126189
C116  C     C_R   0.052291 0.108938 0.407499 -0.169942
H46   H     H_    0.961104 0.113993 0.216187 0.170796
H47   H     H_    0.961775 0.192736 0.249169 0.132411
H48   H     H_    0.020355 0.220176 0.382580 0.133690
H49   H     H_    0.078118 0.166573 0.483991 0.133009
H50   H     H_    0.078234 0.086766 0.453784 0.132175
C117  C     C_R   0.034436 0.912857 0.361706 0.069133
C118  C     C_R   0.010237 0.871224 0.332499 -0.173306
C119  C     C_R   0.026092 0.831552 0.377720 -0.146831
C120  C     C_R   0.066311 0.832114 0.453491 -0.101761
C121  C     C_R   0.090096 0.872698 0.485116 -0.133446
C122  C     C_R   0.074573 0.912418 0.440156 -0.109212
H51   H     H_    0.978540 0.868411 0.274982 0.169357
H52   H     H_    0.006992 0.800195 0.353791 0.136711
H53   H     H_    0.078548 0.801264 0.488210 0.130541
H54   H     H_    0.121040 0.873332 0.544389 0.122693
H55   H     H_    0.095173 0.942746 0.466503 0.129841
C123  C     C_R   0.968579 0.088820 0.642917 0.063994
C124  C     C_R   0.991655 0.130805 0.674873 -0.126023
C125  C     C_R   0.976139 0.170886 0.630673 -0.149958
C126  C     C_R   0.937106 0.170554 0.553730 -0.103938
C127  C     C_R   0.914227 0.129823 0.519871 -0.134489
C128  C     C_R   0.929558 0.089615 0.563552 -0.120116
H56   H     H_    0.022259 0.133820 0.733339 0.164945
H57   H     H_    0.994466 0.202450 0.656443 0.135430
H58   H     H_    0.925032 0.201760 0.519946 0.132291
H59   H     H_    0.884097 0.129438 0.459822 0.124493
H60   H     H_    0.909391 0.059248 0.535599 0.137476
C129  C     C_R   0.477590 0.408728 0.666332 0.116004
C130  C     C_R   0.509195 0.376221 0.721759 -0.106192
C131  C     C_R   0.508169 0.330891 0.701455 -0.158663
C132  C     C_R   0.475165 0.316538 0.625652 -0.099068
C133  C     C_R   0.443633 0.347711 0.569564 -0.127807
C134  C     C_R   0.445001 0.393248 0.589198 -0.168295
H61   H     H_    0.535550 0.385365 0.780622 0.170830
H62   H     H_    0.533004 0.306781 0.744891 0.132599
H63   H     H_    0.474222 0.281321 0.610234 0.134015
H64   H     H_    0.418143 0.336648 0.510470 0.132589
H65   H     H_    0.419753 0.416216 0.543655 0.133608
C135  C     C_R   0.519900 0.592339 0.331046 0.117282
C136  C     C_R   0.487364 0.623920 0.274643 -0.107328
C137  C     C_R   0.487326 0.669377 0.293354 -0.159078
C138  C     C_R   0.520218 0.684841 0.368450 -0.098508
C139  C     C_R   0.552685 0.654633 0.425462 -0.126191
C140  C     C_R   0.552298 0.608933 0.407509 -0.169939
H66   H     H_    0.461113 0.613997 0.216197 0.170795
H67   H     H_    0.461789 0.692739 0.249186 0.132411
H68   H     H_    0.520370 0.720173 0.382601 0.133690
H69   H     H_    0.578128 0.666565 0.484008 0.133007
H70   H     H_    0.578239 0.586759 0.453792 0.132179
C141  C     C_R   0.534431 0.412855 0.361701 0.069128
C142  C     C_R   0.510231 0.371223 0.332492 -0.173303
C143  C     C_R   0.526086 0.331550 0.377710 -0.146832
C144  C     C_R   0.566306 0.332110 0.453481 -0.101759
C145  C     C_R   0.590091 0.372693 0.485109 -0.133447
C146  C     C_R   0.574568 0.412414 0.440151 -0.109218
H71   H     H_    0.478534 0.368411 0.274975 0.169354
H72   H     H_    0.506984 0.300193 0.353780 0.136710
H73   H     H_    0.578542 0.301259 0.488198 0.130541
H74   H     H_    0.621035 0.373326 0.544381 0.122694
H75   H     H_    0.595169 0.442741 0.466499 0.129843
C147  C     C_R   0.468580 0.588820 0.642918 0.063993
C148  C     C_R   0.491657 0.630806 0.674875 -0.126022
C149  C     C_R   0.476141 0.670887 0.630676 -0.149958
C150  C     C_R   0.437108 0.670555 0.553732 -0.103938
C151  C     C_R   0.414229 0.629824 0.519873 -0.134490
C152  C     C_R   0.429559 0.589616 0.563553 -0.120117
H76   H     H_    0.522260 0.633820 0.733342 0.164945
H77   H     H_    0.494468 0.702450 0.656446 0.135429
H78   H     H_    0.425034 0.701762 0.519949 0.132291
H79   H     H_    0.384099 0.629440 0.459824 0.124494
H80   H     H_    0.409392 0.559249 0.535599 0.137476
N17   N     N_3   0.064194 0.943160 0.874671 -0.642320
H81   H     H_    0.097508 0.933665 0.900428 0.209990
H82   H     H_    0.064231 0.940639 0.922313 0.229956
N18   N     N_3   0.935500 0.055145 0.125476 -0.638118
H83   H     H_    0.936654 0.059037 0.079279 0.237172
H84   H     H_    0.901404 0.062633 0.096817 0.207205
N19   N     N_3   0.918381 0.978725 0.086042 -0.622408
H85   H     H_    0.886212 0.992894 0.044236 0.200688
H86   H     H_    0.915011 0.945044 0.095783 0.245090
N20   N     N_3   0.085537 0.020131 0.911766 -0.641808
H87   H     H_    0.074640 0.029755 0.943603 0.228038
H88   H     H_    0.115903 0.002737 0.952973 0.198364
N21   N     N_3   0.564193 0.443159 0.874670 -0.642320
H89   H     H_    0.597506 0.433663 0.900426 0.209990
H90   H     H_    0.564230 0.440638 0.922312 0.229957
N22   N     N_3   0.435504 0.555150 0.125481 -0.638117
H91   H     H_    0.436657 0.559043 0.079284 0.237173
H92   H     H_    0.401409 0.562641 0.096824 0.207204
N23   N     N_3   0.418379 0.478732 0.086040 -0.622413
H93   H     H_    0.386210 0.492903 0.044235 0.200689
H94   H     H_    0.415005 0.445051 0.095778 0.245088
N24   N     N_3   0.585538 0.520130 0.911766 -0.641808
H95   H     H_    0.574640 0.529754 0.943603 0.228039
H96   H     H_    0.615903 0.502734 0.952973 0.198364
C153  C     C_R   0.089088 0.957165 0.778416 0.116731
C154  C     C_R   0.135385 0.950969 0.845254 -0.163630
C155  C     C_R   0.164515 0.919040 0.848912 -0.137705
C156  C     C_R   0.148971 0.891140 0.786256 -0.131985
C157  C     C_R   0.104050 0.894694 0.720479 -0.142331
C158  C     C_R   0.074899 0.926685 0.716707 -0.067055
H97   H     H_    0.149497 0.967970 0.898618 0.109266
H98   H     H_    0.199202 0.915480 0.901423 0.129448
H99   H     H_    0.171467 0.866263 0.789173 0.126438
H100  H     H_    0.091473 0.872405 0.671816 0.136842
H101  H     H_    0.041134 0.925582 0.663737 0.133637
C159  C     C_R   0.909572 0.039613 0.218664 0.117191
C160  C     C_R   0.922532 0.070772 0.278963 -0.065285
C161  C     C_R   0.892210 0.101762 0.273735 -0.144865
C162  C     C_R   0.847286 0.103797 0.207622 -0.132234
C163  C     C_R   0.832940 0.075468 0.146004 -0.135593
C164  C     C_R   0.863241 0.044519 0.151147 -0.160539
H102  H     H_    0.956175 0.073259 0.331928 0.135037
H103  H     H_    0.903905 0.124508 0.321506 0.135711
H104  H     H_    0.823883 0.127926 0.203543 0.126557
H105  H     H_    0.798279 0.077981 0.093090 0.129340
H106  H     H_    0.849946 0.027352 0.098236 0.109430
C165  C     C_R   0.914541 0.954232 0.214017 0.130830
C166  C     C_R   0.927662 0.925436 0.277447 -0.079942
C167  C     C_R   0.901494 0.888838 0.271213 -0.166790
C168  C     C_R   0.860163 0.878878 0.200997 -0.118915
C169  C     C_R   0.844958 0.905682 0.137046 -0.128537
C170  C     C_R   0.870937 0.942487 0.143409 -0.166716
H107  H     H_    0.958938 0.928250 0.333860 0.147509
H108  H     H_    0.913765 0.867876 0.321545 0.138434
H109  H     H_    0.840004 0.850435 0.196135 0.127054
H110  H     H_    0.812582 0.898127 0.081808 0.127459
H111  H     H_    0.855297 0.959876 0.089651 0.111324
C171  C     C_R   0.086912 0.042778 0.785779 0.107619
C172  C     C_R   0.130499 0.054112 0.856850 -0.123224
C173  C     C_R   0.156223 0.091601 0.864619 -0.146145
C174  C     C_R   0.140552 0.119932 0.802078 -0.119113
C175  C     C_R   0.098969 0.110860 0.731776 -0.164509
C176  C     C_R   0.073041 0.073572 0.723978 -0.103865
H112  H     H_    0.146891 0.035773 0.909809 0.134178
H113  H     H_    0.188771 0.098563 0.919948 0.128923
H114  H     H_    0.160523 0.148920 0.808143 0.128581
H115  H     H_    0.086286 0.133097 0.682605 0.139261
H116  H     H_    0.041623 0.071644 0.667596 0.151851
C177  C     C_R   0.589087 0.457164 0.778415 0.116732
C178  C     C_R   0.574898 0.426684 0.716706 -0.067054
C179  C     C_R   0.604048 0.394693 0.720477 -0.142330
C180  C     C_R   0.648969 0.391138 0.786254 -0.131986
C181  C     C_R   0.664513 0.419038 0.848911 -0.137704
C182  C     C_R   0.635384 0.450967 0.845253 -0.163631
H117  H     H_    0.541133 0.425581 0.663735 0.133636
H118  H     H_    0.591471 0.372404 0.671814 0.136841
H119  H     H_    0.671465 0.366261 0.789171 0.126439
H120  H     H_    0.699200 0.415477 0.901421 0.129447
H121  H     H_    0.649497 0.467968 0.898618 0.109266
C183  C     C_R   0.409575 0.539620 0.218668 0.117190
C184  C     C_R   0.422538 0.570777 0.278971 -0.065281
C185  C     C_R   0.392218 0.601769 0.273746 -0.144862
C186  C     C_R   0.347295 0.603809 0.207633 -0.132234
C187  C     C_R   0.332946 0.575481 0.146012 -0.135593
C188  C     C_R   0.363245 0.544529 0.151151 -0.160542
H122  H     H_    0.456181 0.573261 0.331936 0.135033
H123  H     H_    0.403915 0.624514 0.321519 0.135713
H124  H     H_    0.323894 0.627939 0.203556 0.126557
H125  H     H_    0.298285 0.577997 0.093098 0.129340
H126  H     H_    0.349947 0.527363 0.098239 0.109429
C189  C     C_R   0.414537 0.454238 0.214013 0.130835
C190  C     C_R   0.427658 0.425440 0.277440 -0.079941
C191  C     C_R   0.401488 0.388843 0.271203 -0.166791
C192  C     C_R   0.360155 0.378887 0.200987 -0.118915
C193  C     C_R   0.344951 0.405693 0.137039 -0.128536
C194  C     C_R   0.370933 0.442497 0.143404 -0.166716
H127  H     H_    0.458934 0.428251 0.333853 0.147509
H128  H     H_    0.413757 0.367880 0.321533 0.138433
H129  H     H_    0.339994 0.350445 0.196123 0.127053
H130  H     H_    0.312574 0.398141 0.081801 0.127458
H131  H     H_    0.355293 0.459887 0.089648 0.111324
C195  C     C_R   0.586912 0.542777 0.785780 0.107620
C196  C     C_R   0.573042 0.573572 0.723979 -0.103865
C197  C     C_R   0.598970 0.610859 0.731778 -0.164510
C198  C     C_R   0.640554 0.619930 0.802081 -0.119113
C199  C     C_R   0.656224 0.591599 0.864620 -0.146145
C200  C     C_R   0.630500 0.554111 0.856851 -0.123225
H132  H     H_    0.541624 0.571644 0.667597 0.151851
H133  H     H_    0.586288 0.633096 0.682607 0.139260
H134  H     H_    0.660525 0.648918 0.808146 0.128581
H135  H     H_    0.688773 0.598561 0.919950 0.128923
H136  H     H_    0.646891 0.535771 0.909810 0.134179

loop_
_geom_bond_atom_site_label_1
_geom_bond_atom_site_label_2
_ccdc_geom_bond_type
N8    H24   S    
C119  H52   S    
C167  C168  A    
C87   C91   S    
C127  H59   S    
C107  C108  A    
Cu3   O5    S    
C157  C158  A    
C70   C90   S    
C121  H54   S    
N11   H30   S    
C80   C123  S    
C116  H50   S    
C170  H111  S    
C81   C95   S    
C95   C99   S    
C22   C38   S    
C118  C119  A    
C74   C92   S    
N9    H26   S    
C9    C13   T    
C139  H69   S    
C39   O47   A    
C11   C15   T    
C154  H97   S    
C145  C146  A    
N22   H91   S    
Cu8   O31   S    
C129  C134  A    
C172  H112  S    
C79   C117  S    
C87   C99   S    
N17   H82   S    
C184  H122  S    
C3    O5    A    
C119  C120  A    
C146  H75   S    
C69   N1    S    
C88   N23   S    
C41   C49   T    
C173  C174  A    
C5    C101  T    
N24   H95   S    
N7    H21   S    
C86   C90   S    
C25   C41   S    
Cu1   O3    S    
N12   H31   S    
Cu11  O48   S    
C4    O6    A    
C150  C151  A    
C28   C44   S    
C35   O39   A    
Cu12  O47   S    
C81   H5    S    
C19   C23   T    
N15   H37   S    
C190  H127  S    
C46   O10   A    
C131  H62   S    
C87   N24   S    
C165  C166  A    
C27   O21   A    
Cu5   O30   S    
C8    C104  T    
C55   C57   T    
C181  C182  A    
C147  C148  A    
C1    C101  S    
C149  C150  A    
C87   N21   S    
Cu1   O9    S    
C3    C103  S    
C140  H70   S    
C159  C164  A    
C70   N10   S    
C154  C155  A    
C45   O9    A    
C156  C157  A    
Cu6   O26   S    
C36   C68   S    
C57   C61   S    
Cu9   O46   S    
C48   O14   A    
C59   C63   S    
C109  H44   S    
Cu1   O1    S    
C60   C64   S    
C177  C182  A    
C30   C94   S    
C108  H43   S    
C179  H118  S    
C123  C128  A    
C78   C94   S    
C49   C53   S    
C4    C104  S    
C75   N15   S    
C163  C164  A    
Cu5   O20   S    
C51   C55   S    
C6    C102  T    
Cu6   O19   S    
C85   C97   S    
C29   O25   A    
C155  C156  A    
C61   C65   T    
C30   O30   A    
N14   H35   S    
N10   H28   S    
N21   H89   S    
C169  C170  A    
Cu12  O44   S    
Cu9   O33   S    
C178  C179  A    
Cu7   O24   S    
C70   N2    S    
C171  C176  A    
C82   H6    S    
C180  C181  A    
C149  H77   S    
C86   N18   S    
C29   C93   S    
C136  H66   S    
C153  C158  A    
C114  H48   S    
C69   C77   S    
Cu7   Cu8   S    
C75   C83   S    
C34   C66   S    
C71   C79   S    
C191  C192  A    
C86   N19   S    
C166  H107  S    
C35   O37   A    
C133  H64   S    
C64   C68   T    
C73   N13   S    
C197  C198  A    
C78   H2    S    
C130  H61   S    
C37   O45   A    
N5    H18   S    
C2    C102  S    
C158  H101  S    
C115  C116  A    
N6    H20   S    
C126  C127  A    
C160  H102  S    
N20   H88   S    
C162  H104  S    
C32   O32   A    
C181  H120  S    
N18   H84   S    
C183  C184  A    
C47   O16   A    
Cu3   Cu4   S    
C169  H110  S    
C148  H76   S    
Cu4   O6    S    
C157  H100  S    
Cu1   O11   S    
C2    O3    A    
C44   C52   T    
N2    H12   S    
C7    C103  T    
C136  C137  A    
C81   C129  S    
C168  C169  A    
C69   C89   S    
C143  C144  A    
C120  H53   S    
N1    H10   S    
C118  H51   S    
C62   C66   T    
C12   C16   T    
C139  C140  A    
C79   C94   S    
C10   C14   T    
N23   H94   S    
C98   C159  S    
C122  H55   S    
C37   O41   A    
N20   H87   S    
C100  C189  S    
C174  H114  S    
C84   C95   S    
C115  H49   S    
Cu11  O37   S    
C75   N7    S    
C5    C9    S    
C187  H125  S    
C31   O27   A    
N16   H40   S    
C32   O28   A    
C35   C67   S    
C8    C12   S    
Cu8   O28   S    
N13   H33   S    
N4    H15   S    
C195  C196  A    
C76   N8    S    
C42   C50   T    
C199  H135  S    
C176  H116  S    
C137  H67   S    
C111  C116  A    
C93   C97   S    
C83   C141  S    
C26   C42   S    
C192  C193  A    
C124  H56   S    
C196  H132  S    
C18   C22   T    
C134  H65   S    
C175  H115  S    
C190  C191  A    
C73   N5    S    
C131  C132  A    
C152  H80   S    
C28   O22   A    
Cu8   O23   S    
C13   C17   S    
C193  H130  S    
C80   C93   S    
C72   C80   S    
Cu6   O29   S    
C71   C90   S    
C182  H121  S    
C83   C96   S    
C96   C100  S    
C56   C58   T    
C147  C152  A    
Cu3   O15   S    
N9    H25   S    
N4    H16   S    
Cu4   O8    S    
C76   C91   S    
Cu2   O10   S    
Cu7   O32   S    
C159  C160  A    
N22   H92   S    
C48   C92   S    
C137  C138  A    
Cu5   O17   S    
C125  H57   S    
C164  H106  S    
C58   C62   S    
Cu10  O45   S    
C188  H126  S    
C198  C199  A    
Cu12  O39   S    
C1    O4    A    
C108  C109  A    
C76   C84   S    
N16   H39   S    
C179  C180  A    
C15   C19   S    
C50   C54   S    
N24   H96   S    
C153  C154  A    
Cu9   O41   S    
C155  H98   S    
N12   H32   S    
C30   O26   A    
C94   C98   S    
C78   C111  S    
C117  C118  A    
Cu2   O4    S    
C144  C145  A    
C73   C81   S    
C178  H117  S    
C171  C172  A    
Cu10  O34   S    
C97   C153  S    
C46   O11   A    
C120  C121  A    
C172  C173  A    
C76   N16   S    
C79   H3    S    
C114  C115  A    
C100  C183  S    
C38   O46   A    
C45   C89   S    
C191  H128  S    
N8    H23   S    
N19   H85   S    
C133  C134  A    
C36   O38   A    
C97   C171  S    
C74   C82   S    
C33   O33   A    
C175  C176  A    
C74   N6    S    
C189  C194  A    
C28   O24   A    
C126  H58   S    
C161  H103  S    
C128  H60   S    
C162  C163  A    
C85   C89   S    
C85   N17   S    
C183  C188  A    
N17   H81   S    
C105  C110  A    
C3    O8    A    
C74   N14   S    
Cu3   O13   S    
C71   N11   S    
C112  H46   S    
N7    H22   S    
C123  C124  A    
C141  C142  A    
C142  H71   S    
C88   C100  S    
N14   H36   S    
C199  C200  A    
C113  C114  A    
C72   N12   S    
C40   O48   A    
Cu9   Cu10  S    
C38   O42   A    
C189  C190  A    
C47   C91   S    
C25   O17   A    
C187  C188  A    
C6    C10   S    
C31   O31   A    
C185  C186  A    
C46   C90   S    
Cu1   Cu2   S    
Cu2   O2    S    
C143  H72   S    
C99   C177  S    
Cu7   O21   S    
C145  H74   S    
C138  C139  A    
C195  C200  A    
Cu5   Cu6   S    
Cu4   O14   S    
C43   C51   T    
N5    H17   S    
C150  H78   S    
C31   C95   S    
C151  H79   S    
C77   C93   S    
C111  C112  A    
Cu8   O22   S    
C127  C128  A    
C86   C98   S    
C17   C21   T    
N3    H13   S    
C27   C43   S    
C21   C37   S    
C132  C133  A    
C196  C197  A    
C36   O40   A    
C200  H136  S    
C83   H7    S    
C198  H134  S    
C33   O35   A    
C34   O36   A    
N11   H29   S    
C80   H4    S    
C70   C78   S    
C14   C18   S    
C193  C194  A    
C148  C149  A    
C53   C59   T    
C33   C65   S    
C186  C187  A    
C54   C60   T    
N1    H9    S    
N18   H83   S    
C7    C11   S    
Cu12  O38   S    
C1    O1    A    
C77   H1    S    
N15   H38   S    
C173  H113  S    
C135  C140  A    
C110  H45   S    
C117  C122  A    
C71   N3    S    
Cu11  O40   S    
Cu6   O18   S    
C106  H41   S    
C24   C40   S    
C85   N20   S    
C88   C92   S    
N10   H27   S    
N21   H90   S    
C132  H63   S    
C129  C130  A    
C88   N22   S    
C16   C20   S    
C82   C135  S    
C165  C170  A    
C69   N9    S    
C2    O2    A    
C25   O19   A    
C26   O20   A    
C163  H105  S    
Cu10  O42   S    
C4    O7    A    
C84   C147  S    
C186  H124  S    
C63   C67   T    
C192  H129  S    
N19   H86   S    
C82   C96   S    
C144  H73   S    
C20   C24   T    
C73   C91   S    
Cu3   O7    S    
C98   C165  S    
Cu4   O16   S    
C107  H42   S    
C138  H68   S    
N6    H19   S    
Cu5   O25   S    
C156  H99   S    
C105  C106  A    
Cu11  Cu12  S    
C125  C126  A    
C47   O13   A    
C109  C110  A    
C168  H109  S    
C135  C136  A    
C177  C178  A    
C75   C92   S    
C34   O34   A    
C77   C105  S    
N2    H11   S    
C32   C96   S    
C197  H133  S    
Cu11  O43   S    
C124  C125  A    
C99   C195  S    
C29   O29   A    
C174  C175  A    
C112  C113  A    
C167  H108  S    
C151  C152  A    
C45   O12   A    
C48   O15   A    
C141  C146  A    
Cu7   O27   S    
C121  C122  A    
C84   H8    S    
C142  C143  A    
C72   N4    S    
N23   H93   S    
C72   C89   S    
C161  C162  A    
C184  C185  A    
C23   C39   S    
Cu2   O12   S    
C166  C167  A    
N13   H34   S    
C180  H119  S    
C113  H47   S    
Cu9   O36   S    
C39   O43   A    
C106  C107  A    
Cu10  O35   S    
C40   O44   A    
C130  C131  A    
C27   O23   A    
C194  H131  S    
C185  H123  S    
C160  C161  A    
C26   O18   A    
C52   C56   S    
N3    H14   S    
