data_mof_unit_pretest_1772.cif
_audit_creation_date              2012-12-10T18:17:38-0500
_audit_creation_method            fapswitch 2.2
_symmetry_space_group_name_H-M    P1
_symmetry_Int_Tables_number       1
_space_group_crystal_system       triclinic
_cell_length_a                    29.176035
_cell_length_b                    29.176035
_cell_length_c                    47.189274
_cell_angle_alpha                 90.000023
_cell_angle_beta                  90.000019
_cell_angle_gamma                 90.0
_cell_volume                      40169.4456536

loop_
_atom_site_label
_atom_site_type_symbol
_atom_type_description
_atom_site_fract_x
_atom_site_fract_y
_atom_site_fract_z
_atom_type_partial_charge
C1    C     C_R   0.086729 0.500000 0.000000 0.882772
C2    C     C_R   0.500000 0.086729 0.000001 0.883223
C3    C     C_R   0.913271 0.500000 0.000000 0.882773
C4    C     C_R   0.500000 0.913271 0.000001 0.883224
C5    C     C_R   0.586729 1.000000 0.500001 0.883591
C6    C     C_R   0.000000 0.586729 0.500000 0.884041
C7    C     C_R   0.413271 1.000000 0.500001 0.883592
C8    C     C_R   1.000000 0.413270 0.500000 0.884042
C9    C     C_R   0.000000 0.500000 0.086843 -0.298688
C10   C     C_R   0.500000 1.000000 0.086841 -0.294822
C11   C     C_R   1.000000 0.500000 0.913157 -0.298864
C12   C     C_R   0.500000 0.000000 0.913157 -0.298918
C13   C     C_R   0.500000 0.000000 0.586841 -0.294656
C14   C     C_R   1.000000 0.500000 0.586841 -0.294710
C15   C     C_R   0.500000 1.000000 0.413157 -0.298767
C16   C     C_R   1.000000 0.500000 0.413159 -0.294897
C17   C     C_R   1.000000 0.500000 0.146008 0.158674
C18   C     C_R   0.500000 0.000000 0.145956 0.171939
C19   C     C_R   0.000000 0.500000 0.853992 0.158582
C20   C     C_R   0.500000 1.000000 0.853992 0.158602
C21   C     C_R   0.500000 0.000000 0.645956 0.172329
C22   C     C_R   1.000000 0.500000 0.645956 0.172348
C23   C     C_R   0.500000 1.000000 0.353992 0.158844
C24   C     C_R   1.000000 0.500000 0.354044 0.172112
C25   C     C_1   0.137370 0.500000 0.000000 -0.223956
C26   C     C_1   0.500000 0.137370 0.000001 -0.223840
C27   C     C_1   0.862630 0.500000 0.000000 -0.223956
C28   C     C_1   0.500000 0.862630 0.000001 -0.223839
C29   C     C_1   0.637370 0.000000 0.500001 -0.224112
C30   C     C_1   0.000000 0.637370 0.500000 -0.223998
C31   C     C_1   0.362630 1.000000 0.500001 -0.224112
C32   C     C_1   0.000000 0.362630 0.500000 -0.223998
C33   C     C_1   0.179558 0.500000 0.000000 0.003603
C34   C     C_1   0.500000 0.179558 0.000001 0.004342
C35   C     C_1   0.820442 0.500000 0.000000 0.003603
C36   C     C_1   0.500000 0.820442 0.000001 0.004342
C37   C     C_1   0.679558 0.000000 0.500001 0.004336
C38   C     C_1   0.000000 0.679558 0.500000 0.005074
C39   C     C_1   0.320442 1.000000 0.500001 0.004336
C40   C     C_1   0.000000 0.320442 0.500000 0.005074
C41   C     C_1   0.229363 0.500000 0.000000 0.014679
C42   C     C_1   0.500000 0.229363 0.000001 0.015635
C43   C     C_1   0.770637 0.500000 0.000000 0.014679
C44   C     C_1   0.500000 0.770637 0.000001 0.015635
C45   C     C_1   0.729363 0.000000 0.500001 0.016037
C46   C     C_1   0.000000 0.729363 0.500000 0.016992
C47   C     C_1   0.270637 1.000000 0.500001 0.016037
C48   C     C_1   0.000000 0.270637 0.500000 0.016992
C49   C     C_1   0.271561 0.500000 1.000000 0.018407
C50   C     C_1   0.500000 0.271561 0.000001 0.019276
C51   C     C_1   0.728439 0.500000 0.000000 0.018407
C52   C     C_1   0.500000 0.728439 0.000001 0.019276
C53   C     C_1   0.771561 0.000000 0.500001 0.020038
C54   C     C_1   0.000000 0.771561 0.500000 0.020906
C55   C     C_1   0.228439 1.000000 0.500001 0.020038
C56   C     C_1   1.000000 0.228439 0.500000 0.020906
C57   C     C_1   0.321378 0.500000 1.000000 0.016392
C58   C     C_1   0.500000 0.321378 0.000000 0.017034
C59   C     C_1   0.678622 0.500000 0.000000 0.016392
C60   C     C_1   0.500000 0.678621 0.000000 0.017034
C61   C     C_1   0.821379 1.000000 0.500000 0.018211
C62   C     C_1   0.000000 0.821379 0.500000 0.018853
C63   C     C_1   0.178621 1.000000 0.500000 0.018211
C64   C     C_1   1.000000 0.178621 0.500000 0.018853
C65   C     C_1   0.363580 0.500000 1.000000 -0.188305
C66   C     C_1   0.500000 0.363580 0.000000 -0.187949
C67   C     C_1   0.636420 0.500000 0.000000 -0.188305
C68   C     C_1   0.500000 0.636420 0.000000 -0.187949
C69   C     C_1   0.863580 1.000000 0.500000 -0.185954
C70   C     C_1   0.000000 0.863580 0.500000 -0.185599
C71   C     C_1   0.136420 1.000000 0.500000 -0.185954
C72   C     C_1   1.000000 0.136419 0.500000 -0.185599
C73   C     C_R   0.000000 0.500000 0.055957 0.965126
C74   C     C_R   0.500000 0.000000 0.055957 0.965355
C75   C     C_R   0.000000 0.500000 0.944043 0.965118
C76   C     C_R   0.500000 0.000000 0.944043 0.965401
C77   C     C_R   0.500000 0.000000 0.555957 0.965640
C78   C     C_R   1.000000 0.500000 0.555957 0.965924
C79   C     C_R   0.500000 0.000000 0.444043 0.965728
C80   C     C_R   0.000000 0.500000 0.444043 0.965955
C81   C     C_R   0.500000 0.414249 0.000000 0.876661
C82   C     C_R   0.585751 0.500000 0.000000 0.876672
C83   C     C_R   0.500000 0.585751 0.000000 0.876660
C84   C     C_R   0.414249 0.500000 0.000000 0.876673
C85   C     C_R   0.000000 0.914249 0.500000 0.875573
C86   C     C_R   0.085751 0.000000 0.500000 0.875583
C87   C     C_R   0.000000 0.085751 0.500000 0.875572
C88   C     C_R   0.914249 1.000000 0.500000 0.875584
C89   C     C_R   0.015811 0.462360 0.309858 0.583059
C90   C     C_R   0.516848 0.037158 0.309685 0.580425
C91   C     C_R   0.984188 0.537640 0.309858 0.583059
C92   C     C_R   0.483152 0.962841 0.309685 0.580425
C93   C     C_R   0.015812 0.537640 0.690142 0.582633
C94   C     C_R   0.537640 0.984188 0.690142 0.582642
C95   C     C_R   0.984188 0.462360 0.690142 0.582633
C96   C     C_R   0.462360 0.015812 0.690142 0.582642
C97   C     C_R   0.537158 0.983152 0.809685 0.580077
C98   C     C_R   0.016849 0.537159 0.809685 0.580083
C99   C     C_R   0.462841 0.016848 0.809685 0.580078
C100  C     C_R   0.983152 0.462841 0.809685 0.580083
C101  C     C_R   0.515812 0.037640 0.190142 0.583172
C102  C     C_R   0.016848 0.462841 0.190315 0.580449
C103  C     C_R   0.484189 0.962360 0.190142 0.583171
C104  C     C_R   0.983152 0.537159 0.190315 0.580449
C105  C     C_R   0.986583 0.540086 0.280044 -0.133463
C106  C     C_R   0.486187 0.960116 0.279910 -0.135145
C107  C     C_R   0.013417 0.459914 0.280044 -0.133463
C108  C     C_R   0.513813 0.039883 0.279910 -0.135146
C109  C     C_R   0.986583 0.459914 0.719956 -0.133793
C110  C     C_R   0.459914 0.013417 0.719956 -0.133796
C111  C     C_R   0.013417 0.540086 0.719956 -0.133793
C112  C     C_R   0.540086 0.986583 0.719956 -0.133797
C113  C     C_R   0.460116 0.013813 0.779910 -0.135567
C114  C     C_R   0.986187 0.460116 0.779910 -0.135574
C115  C     C_R   0.539883 0.986187 0.779910 -0.135567
C116  C     C_R   0.013814 0.539883 0.779910 -0.135574
C117  C     C_R   0.486583 0.959914 0.219956 -0.133476
C118  C     C_R   0.986187 0.539883 0.220090 -0.135223
C119  C     C_R   0.513417 0.040086 0.219956 -0.133477
C120  C     C_R   0.013813 0.460116 0.220090 -0.135223
C121  C     C_R   1.000000 0.500000 0.265047 -0.088923
C122  C     C_R   0.500000 1.000000 0.264897 -0.088161
C123  C     C_R   0.000000 0.500000 0.734953 -0.088963
C124  C     C_R   0.500000 0.000000 0.734953 -0.088961
C125  C     C_R   0.500000 0.000000 0.764897 -0.088176
C126  C     C_R   0.000000 0.500000 0.764897 -0.088174
C127  C     C_R   0.500000 1.000000 0.234953 -0.088903
C128  C     C_R   1.000000 0.500000 0.235103 -0.088140
C129  C     C_R   0.976482 0.580959 0.264918 0.263283
C130  C     C_R   0.476271 0.919166 0.264873 0.263052
C131  C     C_R   0.023518 0.419041 0.264918 0.263284
C132  C     C_R   0.523729 0.080833 0.264873 0.263052
C133  C     C_R   0.976481 0.419041 0.735082 0.262686
C134  C     C_R   0.419041 0.023519 0.735082 0.262691
C135  C     C_R   0.023519 0.580959 0.735082 0.262686
C136  C     C_R   0.580959 0.976482 0.735082 0.262691
C137  C     C_R   0.419166 0.023729 0.764873 0.262448
C138  C     C_R   0.976271 0.419167 0.764873 0.262449
C139  C     C_R   0.580833 0.976271 0.764873 0.262448
C140  C     C_R   0.023730 0.580833 0.764873 0.262448
C141  C     C_R   0.476482 0.919041 0.235082 0.263391
C142  C     C_R   0.976271 0.580834 0.235127 0.263033
C143  C     C_R   0.523519 0.080959 0.235082 0.263391
C144  C     C_R   0.023729 0.419167 0.235127 0.263033
C145  C     C_R   0.972891 0.468479 0.131256 -0.177883
C146  C     C_R   0.531554 0.972927 0.131256 -0.181875
C147  C     C_R   0.027109 0.531521 0.131256 -0.177882
C148  C     C_R   0.468446 0.027073 0.131256 -0.181875
C149  C     C_R   0.972891 0.531521 0.868744 -0.177982
C150  C     C_R   0.531521 0.027109 0.868744 -0.178003
C151  C     C_R   0.027109 0.468479 0.868744 -0.177983
C152  C     C_R   0.468479 0.972891 0.868744 -0.178003
C153  C     C_R   0.472927 0.968446 0.631256 -0.182381
C154  C     C_R   0.031554 0.472927 0.631256 -0.182402
C155  C     C_R   0.527073 0.031554 0.631256 -0.182380
C156  C     C_R   0.968446 0.527073 0.631256 -0.182402
C157  C     C_R   0.472891 0.031521 0.368744 -0.178074
C158  C     C_R   0.031554 0.527073 0.368744 -0.182105
C159  C     C_R   0.527109 0.968479 0.368744 -0.178075
C160  C     C_R   0.968446 0.472927 0.368744 -0.182106
C161  C     C_R   0.972198 0.468673 0.101710 0.396804
C162  C     C_R   0.531335 0.972196 0.101710 0.393307
C163  C     C_R   0.027801 0.531327 0.101710 0.396804
C164  C     C_R   0.468665 0.027804 0.101710 0.393306
C165  C     C_R   0.972199 0.531327 0.898289 0.396981
C166  C     C_R   0.531327 0.027801 0.898289 0.396940
C167  C     C_R   0.027801 0.468673 0.898289 0.396982
C168  C     C_R   0.468673 0.972198 0.898289 0.396942
C169  C     C_R   0.472196 0.968665 0.601710 0.392921
C170  C     C_R   0.031335 0.472196 0.601710 0.392879
C171  C     C_R   0.527804 0.031335 0.601710 0.392921
C172  C     C_R   0.968665 0.527804 0.601710 0.392879
C173  C     C_R   0.472199 0.031327 0.398290 0.396550
C174  C     C_R   0.031335 0.527804 0.398290 0.393052
C175  C     C_R   0.527801 0.968673 0.398290 0.396551
C176  C     C_R   0.968665 0.472196 0.398290 0.393054
H1    H     H_    0.951887 0.444184 0.142774 0.179887
H2    H     H_    0.555984 0.952137 0.142812 0.175476
H3    H     H_    0.048113 0.555816 0.142774 0.179887
H4    H     H_    0.444016 0.047863 0.142812 0.175476
H5    H     H_    0.951887 0.555816 0.857226 0.179872
H6    H     H_    0.555816 0.048113 0.857226 0.179863
H7    H     H_    0.048113 0.444183 0.857226 0.179872
H8    H     H_    0.444184 0.951887 0.857226 0.179863
H9    H     H_    0.452137 0.944016 0.642812 0.175188
H10   H     H_    0.055984 0.452137 0.642812 0.175178
H11   H     H_    0.547863 0.055984 0.642812 0.175188
H12   H     H_    0.944016 0.547863 0.642812 0.175178
H13   H     H_    0.451887 0.055816 0.357226 0.179801
H14   H     H_    0.055984 0.547863 0.357188 0.175367
H15   H     H_    0.548113 0.944183 0.357226 0.179801
H16   H     H_    0.944016 0.452137 0.357188 0.175367
N1    N     N_R   1.000000 0.500000 0.323760 -0.343838
N2    N     N_R   0.500000 1.000000 0.323659 -0.344235
N3    N     N_R   0.000000 0.500000 0.676240 -0.343784
N4    N     N_R   0.500000 0.000000 0.676240 -0.343784
N5    N     N_R   0.500000 1.000000 0.823659 -0.344179
N6    N     N_R   1.000000 0.500000 0.823659 -0.344181
N7    N     N_R   0.500000 1.000000 0.176240 -0.343853
N8    N     N_R   1.000000 0.500000 0.176341 -0.344249
O1    O     O_R   0.063110 0.535610 0.000010 -0.602343
O2    O     O_R   0.464390 0.063110 0.000010 -0.602351
O3    O     O_R   0.936890 0.464390 0.000010 -0.602342
O4    O     O_R   0.535610 0.936890 0.000010 -0.602351
O5    O     O_R   0.063110 0.464390 0.999990 -0.602315
O6    O     O_R   0.464390 0.936890 0.999990 -0.602389
O7    O     O_R   0.936890 0.535610 0.999990 -0.602316
O8    O     O_R   0.535610 0.063110 0.999990 -0.602390
O9    O     O_R   0.563110 0.035610 0.500010 -0.602489
O10   O     O_R   0.964390 0.563110 0.500010 -0.602564
O11   O     O_R   0.436890 0.964390 0.500010 -0.602489
O12   O     O_R   0.035610 0.436890 0.500010 -0.602564
O13   O     O_R   0.563110 0.964390 0.499990 -0.602564
O14   O     O_R   0.964390 0.436890 0.499990 -0.602571
O15   O     O_R   0.436890 0.035610 0.499990 -0.602564
O16   O     O_R   0.035610 0.563110 0.499990 -0.602572
O17   O     O_R   0.499970 0.436830 0.023710 -0.587858
O18   O     O_R   0.563170 0.499970 0.023710 -0.588161
O19   O     O_R   0.500030 0.563170 0.023710 -0.587858
O20   O     O_R   0.436830 0.500030 0.023710 -0.588161
O21   O     O_R   0.499970 0.563170 0.976290 -0.589826
O22   O     O_R   0.563170 0.500030 0.976290 -0.589716
O23   O     O_R   0.500030 0.436830 0.976290 -0.589826
O24   O     O_R   0.436830 0.499970 0.976290 -0.589716
O25   O     O_R   0.999970 0.936830 0.523710 -0.587371
O26   O     O_R   0.063170 0.999970 0.523710 -0.587262
O27   O     O_R   0.000030 0.063170 0.523710 -0.587371
O28   O     O_R   0.936830 0.000030 0.523710 -0.587262
O29   O     O_R   0.999970 0.063170 0.476290 -0.588813
O30   O     O_R   0.063170 0.000030 0.476290 -0.589116
O31   O     O_R   0.000030 0.936830 0.476290 -0.588813
O32   O     O_R   0.936830 0.999970 0.476290 -0.589116
O33   O     O_R   0.999950 0.535620 0.041940 -0.580650
O34   O     O_R   0.464380 0.999950 0.041940 -0.581467
O35   O     O_R   0.000050 0.464380 0.041940 -0.580649
O36   O     O_R   0.535620 0.000050 0.041940 -0.581468
O37   O     O_R   0.999950 0.464380 0.958060 -0.580593
O38   O     O_R   0.464380 0.000050 0.958060 -0.580581
O39   O     O_R   0.000050 0.535620 0.958060 -0.580594
O40   O     O_R   0.535620 0.999950 0.958060 -0.580581
O41   O     O_R   0.499950 0.035620 0.541940 -0.581677
O42   O     O_R   0.964380 0.499950 0.541940 -0.581664
O43   O     O_R   0.500050 0.964380 0.541940 -0.581676
O44   O     O_R   0.035620 0.500050 0.541940 -0.581664
O45   O     O_R   0.499950 0.964380 0.458060 -0.580754
O46   O     O_R   0.964380 0.500050 0.458060 -0.581574
O47   O     O_R   0.500050 0.035620 0.458060 -0.580754
O48   O     O_R   0.035620 0.499950 0.458060 -0.581575
O49   O     O_2   0.034528 0.428225 0.325199 -0.493166
O50   O     O_2   0.537344 0.070464 0.324858 -0.484942
O51   O     O_2   0.965471 0.571775 0.325199 -0.493165
O52   O     O_2   0.462656 0.929536 0.324858 -0.484942
O53   O     O_2   0.034529 0.571775 0.674801 -0.493361
O54   O     O_2   0.571775 0.965471 0.674801 -0.493336
O55   O     O_2   0.965471 0.428225 0.674801 -0.493360
O56   O     O_2   0.428225 0.034529 0.674801 -0.493336
O57   O     O_2   0.570464 0.962656 0.824858 -0.484886
O58   O     O_2   0.037345 0.570464 0.824858 -0.484857
O59   O     O_2   0.429536 0.037344 0.824858 -0.484887
O60   O     O_2   0.962656 0.429536 0.824858 -0.484857
O61   O     O_2   0.534529 0.071775 0.174801 -0.492960
O62   O     O_2   0.037344 0.429536 0.175142 -0.484708
O63   O     O_2   0.465471 0.928225 0.174801 -0.492959
O64   O     O_2   0.962656 0.570464 0.175142 -0.484707
Zn1   Zn    Zn3+2 0.000000 0.547570 0.000000 1.032349
Zn2   Zn    Zn3+2 0.452430 0.000000 0.000000 1.030728
Zn3   Zn    Zn3+2 0.000000 0.452430 0.000000 1.032349
Zn4   Zn    Zn3+2 0.547570 0.000000 0.000000 1.030728
Zn5   Zn    Zn3+2 0.500000 0.047570 0.500000 1.028952
Zn6   Zn    Zn3+2 0.952430 0.500000 0.500000 1.027324
Zn7   Zn    Zn3+2 0.500000 0.952430 0.500000 1.028952
Zn8   Zn    Zn3+2 0.047570 0.500000 0.500000 1.027324
Zn9   Zn    Zn3+2 0.500000 0.500000 0.031630 1.004736
Zn10  Zn    Zn3+2 0.500000 0.500000 0.968370 0.997559
Zn11  Zn    Zn3+2 0.000000 0.000000 0.531630 1.010976
Zn12  Zn    Zn3+2 1.000000 1.000000 0.468370 1.004254
Br1   Br    Br    0.966611 0.639355 0.283837 -0.305866
Br2   Br    Br    0.466754 0.860924 0.284038 -0.295740
Br3   Br    Br    0.033389 0.360646 0.283837 -0.305866
Br4   Br    Br    0.533246 0.139075 0.284038 -0.295740
Br5   Br    Br    0.966610 0.360646 0.716163 -0.303222
Br6   Br    Br    0.360646 0.033389 0.716163 -0.303195
Br7   Br    Br    0.033390 0.639354 0.716163 -0.303222
Br8   Br    Br    0.639354 0.966611 0.716163 -0.303194
Br9   Br    Br    0.360924 0.033246 0.784038 -0.292237
Br10  Br    Br    0.966754 0.360924 0.784038 -0.292188
Br11  Br    Br    0.639076 0.966754 0.784038 -0.292236
Br12  Br    Br    0.033247 0.639075 0.784038 -0.292188
Br13  Br    Br    0.466611 0.860646 0.216163 -0.305709
Br14  Br    Br    0.966754 0.639076 0.215962 -0.294996
Br15  Br    Br    0.533389 0.139354 0.216163 -0.305709
Br16  Br    Br    0.033245 0.360924 0.215962 -0.294996
O65   O     O_3   0.945159 0.437346 0.087446 -0.575056
C177  C     C_3   0.901413 0.456911 0.083264 0.100678
H17   H     H_    0.903790 0.489814 0.071332 0.122215
H18   H     H_    0.884080 0.463101 0.103952 0.151788
C178  C     C_3   0.872085 0.424036 0.066043 -0.748234
H19   H     H_    0.867953 0.391175 0.077643 0.264186
H20   H     H_    0.837729 0.439303 0.062358 0.204881
H21   H     H_    0.888535 0.417222 0.045243 0.262006
O66   O     O_3   0.562636 0.945130 0.087446 -0.581695
C179  C     C_3   0.543095 0.901346 0.083375 0.109072
H22   H     H_    0.510140 0.903641 0.071492 0.122801
H23   H     H_    0.537007 0.884104 0.104105 0.165735
C180  C     C_3   0.575922 0.871967 0.066152 -0.753667
H24   H     H_    0.608837 0.867920 0.077705 0.263979
H25   H     H_    0.560670 0.837579 0.062555 0.207657
H26   H     H_    0.582629 0.888324 0.045311 0.261817
O67   O     O_3   0.054841 0.562654 0.087447 -0.575057
C181  C     C_3   0.098587 0.543089 0.083264 0.100680
H27   H     H_    0.096209 0.510186 0.071332 0.122215
H28   H     H_    0.115920 0.536899 0.103952 0.151788
C182  C     C_3   0.127915 0.575964 0.066043 -0.748236
H29   H     H_    0.132047 0.608825 0.077643 0.264186
H30   H     H_    0.162271 0.560697 0.062358 0.204881
H31   H     H_    0.111465 0.582778 0.045243 0.262006
O68   O     O_3   0.437364 0.054870 0.087446 -0.581695
C183  C     C_3   0.456905 0.098654 0.083375 0.109073
H32   H     H_    0.489860 0.096359 0.071492 0.122801
H33   H     H_    0.462993 0.115896 0.104105 0.165735
C184  C     C_3   0.424078 0.128033 0.066152 -0.753667
H34   H     H_    0.391163 0.132080 0.077705 0.263979
H35   H     H_    0.439330 0.162421 0.062555 0.207657
H36   H     H_    0.417371 0.111676 0.045311 0.261817
O69   O     O_3   0.945159 0.562654 0.912553 -0.574741
C185  C     C_3   0.901413 0.543089 0.916736 0.100588
H37   H     H_    0.903790 0.510186 0.928667 0.122141
H38   H     H_    0.884080 0.536899 0.896047 0.151260
C186  C     C_3   0.872085 0.575964 0.933957 -0.748660
H39   H     H_    0.867953 0.608825 0.922357 0.264261
H40   H     H_    0.837729 0.560697 0.937642 0.204417
H41   H     H_    0.888535 0.582778 0.954757 0.262189
O70   O     O_3   0.562654 0.054841 0.912553 -0.574788
C187  C     C_3   0.543089 0.098587 0.916736 0.100660
H42   H     H_    0.510186 0.096210 0.928667 0.122109
H43   H     H_    0.536899 0.115920 0.896047 0.151252
C188  C     C_3   0.575964 0.127915 0.933957 -0.748948
H44   H     H_    0.608825 0.132047 0.922357 0.264254
H45   H     H_    0.560697 0.162271 0.937642 0.204399
H46   H     H_    0.582778 0.111465 0.954757 0.262142
O71   O     O_3   0.054841 0.437346 0.912553 -0.574741
C189  C     C_3   0.098587 0.456911 0.916736 0.100588
H47   H     H_    0.096209 0.489814 0.928667 0.122141
H48   H     H_    0.115920 0.463101 0.896047 0.151259
C190  C     C_3   0.127915 0.424036 0.933957 -0.748660
H49   H     H_    0.132047 0.391175 0.922357 0.264261
H50   H     H_    0.162271 0.439303 0.937642 0.204417
H51   H     H_    0.111465 0.417222 0.954757 0.262189
O72   O     O_3   0.437346 0.945159 0.912553 -0.574789
C191  C     C_3   0.456911 0.901413 0.916736 0.100661
H52   H     H_    0.489814 0.903790 0.928667 0.122109
H53   H     H_    0.463101 0.884080 0.896047 0.151252
C192  C     C_3   0.424036 0.872085 0.933957 -0.748948
H54   H     H_    0.391175 0.867953 0.922357 0.264254
H55   H     H_    0.439303 0.837729 0.937642 0.204398
H56   H     H_    0.417222 0.888535 0.954757 0.262142
O73   O     O_3   0.445130 0.937363 0.587446 -0.582324
C193  C     C_3   0.401346 0.956905 0.583375 0.109451
H57   H     H_    0.403641 0.989860 0.571492 0.122842
H58   H     H_    0.384104 0.962993 0.604105 0.165992
C194  C     C_3   0.371967 0.924078 0.566152 -0.754648
H59   H     H_    0.367920 0.891163 0.577705 0.263584
H60   H     H_    0.337579 0.939330 0.562555 0.208162
H61   H     H_    0.388324 0.917371 0.545311 0.261631
O74   O     O_3   0.062637 0.445130 0.587446 -0.582372
C195  C     C_3   0.043095 0.401346 0.583375 0.109525
H62   H     H_    0.010140 0.403641 0.571492 0.122810
H63   H     H_    0.037007 0.384104 0.604105 0.165985
C196  C     C_3   0.075922 0.371967 0.566152 -0.754941
H64   H     H_    0.108837 0.367920 0.577705 0.263576
H65   H     H_    0.060670 0.337579 0.562555 0.208144
H66   H     H_    0.082629 0.388324 0.545311 0.261585
O75   O     O_3   0.554870 0.062636 0.587446 -0.582324
C197  C     C_3   0.598654 0.043095 0.583375 0.109451
H67   H     H_    0.596359 0.010140 0.571492 0.122842
H68   H     H_    0.615896 0.037007 0.604105 0.165992
C198  C     C_3   0.628033 0.075922 0.566152 -0.754650
H69   H     H_    0.632080 0.108837 0.577705 0.263584
H70   H     H_    0.662420 0.060670 0.562555 0.208162
H71   H     H_    0.611676 0.082629 0.545311 0.261631
O76   O     O_3   0.937364 0.554870 0.587446 -0.582371
C199  C     C_3   0.956905 0.598654 0.583375 0.109524
H72   H     H_    0.989861 0.596359 0.571492 0.122810
H73   H     H_    0.962993 0.615896 0.604105 0.165986
C200  C     C_3   0.924078 0.628033 0.566152 -0.754941
H74   H     H_    0.891163 0.632080 0.577705 0.263576
H75   H     H_    0.939330 0.662421 0.562555 0.208144
H76   H     H_    0.917372 0.611676 0.545311 0.261585
O77   O     O_3   0.445159 0.062654 0.412553 -0.575354
C201  C     C_3   0.401413 0.043089 0.416736 0.101084
H77   H     H_    0.403790 0.010186 0.428667 0.122161
H78   H     H_    0.384080 0.036899 0.396047 0.151713
C202  C     C_3   0.372085 0.075964 0.433957 -0.749672
H79   H     H_    0.367953 0.108825 0.422357 0.263956
H80   H     H_    0.337729 0.060697 0.437642 0.204945
H81   H     H_    0.388535 0.082778 0.454757 0.261896
O78   O     O_3   0.062637 0.554869 0.412554 -0.582001
C203  C     C_3   0.043096 0.598654 0.416625 0.109474
H82   H     H_    0.010140 0.596359 0.428508 0.122747
H83   H     H_    0.037007 0.615896 0.395894 0.165664
C204  C     C_3   0.075922 0.628033 0.433848 -0.755116
H84   H     H_    0.108838 0.632080 0.422295 0.263746
H85   H     H_    0.060670 0.662420 0.437445 0.207722
H86   H     H_    0.082629 0.611676 0.454689 0.261711
O79   O     O_3   0.554841 0.937346 0.412553 -0.575354
C205  C     C_3   0.598587 0.956911 0.416736 0.101085
H87   H     H_    0.596209 0.989814 0.428667 0.122161
H88   H     H_    0.615920 0.963101 0.396047 0.151713
C206  C     C_3   0.627915 0.924036 0.433957 -0.749672
H89   H     H_    0.632047 0.891175 0.422357 0.263956
H90   H     H_    0.662271 0.939303 0.437642 0.204945
H91   H     H_    0.611465 0.917222 0.454757 0.261895
O80   O     O_3   0.937363 0.445131 0.412554 -0.582001
C207  C     C_3   0.956904 0.401346 0.416625 0.109473
H92   H     H_    0.989860 0.403641 0.428508 0.122747
H93   H     H_    0.962992 0.384104 0.395894 0.165664
C208  C     C_3   0.924078 0.371967 0.433848 -0.755116
H94   H     H_    0.891162 0.367920 0.422295 0.263746
H95   H     H_    0.939330 0.337579 0.437444 0.207723
H96   H     H_    0.917371 0.388324 0.454689 0.261711

loop_
_geom_bond_atom_site_label_1
_geom_bond_atom_site_label_2
_ccdc_geom_bond_type
O73   C193  S    
C198  H70   S    
C119  C143  A    
C34   C42   S    
C14   C170  A    
C188  H44   S    
O70   C187  S    
C90   O50   S    
C199  H72   S    
C9    C73   S    
C94   N4    A    
O45   Zn7   S    
C112  C124  A    
C8    O14   A    
C94   O54   S    
C62   C70   T    
C193  C194  S    
C106  C130  A    
C130  C141  A    
O27   Zn11  S    
C198  H71   S    
C207  C208  S    
C204  H85   S    
C193  H57   S    
C158  C174  A    
C120  C144  A    
C163  O67   S    
C102  O62   S    
C185  H37   S    
C74   O34   A    
C168  O72   S    
C196  H66   S    
C98   O58   S    
C10   C162  A    
O11   Zn7   S    
C103  C117  A    
O1    Zn1   S    
C41   C49   T    
C192  H55   S    
C170  O74   S    
O4    Zn4   S    
C194  H61   S    
C181  H28   S    
C15   C173  A    
C109  C133  A    
C7    C31   S    
C121  C128  A    
C95   C109  A    
C189  H47   S    
C123  C126  A    
C201  H78   S    
C129  C142  A    
C27   C35   T    
C87   O29   A    
C16   C80   S    
C101  C119  A    
O22   Zn10  S    
C146  C162  A    
C5    O13   A    
O13   Zn7   S    
C185  C186  S    
C149  C165  A    
C2    C26   S    
O67   C181  S    
O15   Zn5   S    
C190  H51   S    
C69   C88   S    
C92   C106  A    
C6    C30   S    
C63   C71   T    
O76   C199  S    
C113  C137  A    
C172  O76   S    
C36   C44   S    
C2    O8    A    
O26   Zn11  S    
C37   C45   S    
C188  H46   S    
C39   C47   S    
C40   C48   S    
C19   N6    S    
C183  C184  S    
O20   Zn9   S    
O44   Zn8   S    
C68   C83   S    
O46   Zn6   S    
C189  C190  S    
C82   O22   A    
C202  H79   S    
C92   N2    A    
O37   Zn3   S    
C3    O7    A    
C155  H11   S    
O79   C205  S    
C187  C188  S    
C145  C161  A    
C151  C167  A    
C23   N2    S    
C189  H48   S    
C21   N4    S    
C191  H52   S    
C136  Br8   S    
C167  O71   S    
C83   O21   A    
C147  H3    S    
C184  H34   S    
C11   C165  A    
C21   C153  A    
C104  O64   S    
C206  H89   S    
O74   C195  S    
C200  H75   S    
C100  N6    A    
O29   Zn12  S    
O72   C191  S    
O40   Zn4   S    
C85   O31   A    
C43   C51   T    
C204  H84   S    
O17   Zn9   S    
C154  H10   S    
C154  C170  A    
C77   O41   A    
C174  O78   S    
C158  H14   S    
C114  C126  A    
C182  H30   S    
C141  Br13  S    
C150  C166  A    
O19   Zn9   S    
C14   C78   S    
C49   C57   S    
C146  H2    S    
C122  C127  A    
C197  H67   S    
C183  H33   S    
C52   C60   S    
C59   C67   T    
C53   C61   S    
C15   C79   S    
O5    Zn3   S    
C180  H25   S    
C55   C63   S    
C19   C151  A    
C56   C64   S    
C35   C43   S    
C110  C124  A    
C44   C52   T    
C13   C169  A    
C45   C53   T    
C178  H20   S    
C112  C136  A    
C208  H95   S    
C197  H68   S    
C92   O52   S    
O35   Zn3   S    
C132  Br4   S    
C202  H81   S    
C179  H23   S    
C148  C164  A    
C97   N5    A    
O38   Zn2   S    
C100  C114  A    
C96   O56   S    
C187  H42   S    
C109  C123  A    
C65   C84   S    
C156  C172  A    
C197  C198  S    
C79   O47   A    
C193  H58   S    
O65   C177  S    
C71   C86   S    
C83   O19   A    
C176  O80   S    
C99   O59   S    
O10   Zn6   S    
C184  H36   S    
C81   O17   A    
C106  C122  A    
C21   C155  A    
C206  H91   S    
C9    C161  A    
O2    Zn2   S    
C195  C196  S    
C60   C68   T    
C42   C50   T    
O18   Zn9   S    
C80   O46   A    
C22   N3    S    
C110  C134  A    
C85   O25   A    
C29   C37   T    
C204  H86   S    
C16   C174  A    
O30   Zn12  S    
C77   O43   A    
C73   O33   A    
C7    O11   A    
C101  N7    A    
C151  H7    S    
C5    O9    A    
C97   C115  A    
C3    C27   S    
C90   C108  A    
C11   C75   S    
O78   C203  S    
C88   O28   A    
C23   C157  A    
C94   C112  A    
C19   C149  A    
C20   C150  A    
O31   Zn12  S    
C203  H83   S    
C114  C138  A    
C38   C46   S    
O33   Zn1   S    
C164  O68   S    
C13   C171  A    
C6    O16   A    
C185  H38   S    
C8    O12   A    
C70   C85   S    
C175  O79   S    
C25   C33   T    
C196  H65   S    
C119  C127  A    
C142  Br14  S    
C11   C167  A    
O80   C207  S    
C166  O70   S    
C3    O3    A    
O32   Zn12  S    
C75   O39   A    
C1    O1    A    
C72   C87   S    
C134  C137  A    
C192  H54   S    
C150  H6    S    
C91   O51   S    
C144  Br16  S    
C194  H60   S    
C134  Br6   S    
C89   O49   S    
C79   O45   A    
C177  H17   S    
C93   O53   S    
O12   Zn8   S    
C76   O38   A    
C186  H39   S    
C9    C163  A    
C91   C105  A    
C195  H62   S    
C152  C168  A    
C199  H73   S    
C80   O48   A    
C190  H50   S    
C157  H13   S    
C131  Br3   S    
C16   C176  A    
C132  C143  A    
C133  C138  A    
C148  H4    S    
C149  H5    S    
C136  C139  A    
C188  H45   S    
C104  C118  A    
C156  H12   S    
C135  C140  A    
C111  C123  A    
C50   C58   S    
C159  H15   S    
C135  Br7   S    
C160  H16   S    
C177  C178  S    
C84   O24   A    
C108  C122  A    
C54   C62   S    
C199  C200  S    
C118  C142  A    
O8    Zn4   S    
C96   C110  A    
C78   O44   A    
C20   C152  A    
C86   O30   A    
C206  H90   S    
C17   C145  A    
C102  N8    A    
C173  O77   S    
O48   Zn8   S    
C46   C54   T    
C139  Br11  S    
O21   Zn10  S    
C140  Br12  S    
C191  H53   S    
C117  C127  A    
C93   C111  A    
C87   O27   A    
C12   C76   S    
C207  H92   S    
C75   O37   A    
C107  C121  A    
C192  H56   S    
C102  C120  A    
C200  H74   S    
C181  H27   S    
C95   N3    A    
O66   C179  S    
C57   C65   T    
C99   C113  A    
C120  C128  A    
C201  H77   S    
C191  C192  S    
C76   O40   A    
C33   C41   S    
C161  O65   S    
O3    Zn3   S    
C66   C81   S    
C111  C135  A    
C182  H29   S    
O23   Zn10  S    
C171  O75   S    
C91   N1    A    
C187  H43   S    
O69   C185  S    
O43   Zn7   S    
C20   N5    S    
C73   O35   A    
O34   Zn2   S    
C96   N4    A    
C28   C36   T    
C180  H24   S    
C153  C169  A    
O36   Zn4   S    
C205  H87   S    
C147  C163  A    
C7    O15   A    
C131  C144  A    
C157  C173  A    
C181  C182  S    
C100  O60   S    
C101  O61   S    
C178  H19   S    
C117  C141  A    
C207  H93   S    
C201  C202  S    
C208  H94   S    
C97   O57   S    
C22   C156  A    
O71   C189  S    
C202  H80   S    
C179  C180  S    
O14   Zn6   S    
C78   O42   A    
O42   Zn6   S    
C17   C147  A    
C169  O73   S    
C18   C148  A    
C12   C166  A    
O47   Zn5   S    
C24   C158  A    
C4    O4    A    
C113  C125  A    
O28   Zn11  S    
O6    Zn2   S    
O39   Zn1   S    
C17   N8    S    
C58   C66   T    
O41   Zn5   S    
C184  H35   S    
C205  C206  S    
C90   N2    A    
C129  Br1   S    
C165  O69   S    
C152  H8    S    
C84   O20   A    
C200  H76   S    
C32   C40   T    
C89   N1    A    
C159  C175  A    
C1    C25   S    
C160  C176  A    
C203  C204  S    
C89   C107  A    
C93   N3    A    
C118  C128  A    
C4    C28   S    
C26   C34   T    
C5    C29   S    
C81   O23   A    
C13   C77   S    
C108  C132  A    
C98   N6    A    
C8    C32   S    
C14   C172  A    
C104  N8    A    
O24   Zn10  S    
C182  H31   S    
C105  C129  A    
C178  H21   S    
O7    Zn1   S    
O25   Zn11  S    
C23   C159  A    
C130  Br2   S    
C183  H32   S    
C98   C116  A    
C82   O18   A    
C137  Br9   S    
C180  H26   S    
C99   N5    A    
C186  H40   S    
C105  C121  A    
C103  N7    A    
C198  H69   S    
C143  Br15  S    
C86   O26   A    
C186  H41   S    
C51   C59   S    
C74   O36   A    
C95   O55   S    
C208  H96   S    
C1    O5    A    
C47   C55   T    
C196  H64   S    
C22   C154  A    
C61   C69   T    
C48   C56   T    
C179  H22   S    
C10   C164  A    
C88   O32   A    
C115  C139  A    
C18   C146  A    
C12   C168  A    
C24   C160  A    
C4    O6    A    
C6    O10   A    
C194  H59   S    
C138  Br10  S    
C115  C125  A    
C15   C175  A    
C107  C131  A    
C162  O66   S    
O75   C197  S    
C177  H18   S    
C10   C74   S    
O77   C201  S    
C153  H9    S    
C24   N1    S    
C133  Br5   S    
O9    Zn5   S    
C2    O2    A    
C31   C39   T    
C205  H88   S    
C64   C72   T    
O68   C183  S    
C195  H63   S    
C155  C171  A    
C67   C82   S    
C145  H1    S    
C18   N7    S    
C103  O63   S    
C203  H82   S    
C116  C126  A    
C30   C38   T    
C190  H49   S    
O16   Zn8   S    
C124  C125  A    
C116  C140  A    
