data_mof_unit_pretest_1440.cif
_audit_creation_date              2012-12-10T20:27:14-0500
_audit_creation_method            fapswitch 2.2
_symmetry_space_group_name_H-M    P1
_symmetry_Int_Tables_number       1
_space_group_crystal_system       triclinic
_cell_length_a                    10.485875
_cell_length_b                    10.726588
_cell_length_c                    9.896169
_cell_angle_alpha                 88.758247
_cell_angle_beta                  101.118044
_cell_angle_gamma                 91.591673
_cell_volume                      1091.63484687

loop_
_atom_site_label
_atom_site_type_symbol
_atom_type_description
_atom_site_fract_x
_atom_site_fract_y
_atom_site_fract_z
_atom_type_partial_charge
C1    C     C_R   0.511721 0.261243 0.503818 0.908648
C2    C     C_R   0.607593 0.538923 0.090810 -0.007725
C3    C     C_R   0.608061 0.533490 0.947704 -0.129683
C4    C     C_R   0.257950 0.495247 0.445283 0.908193
C5    C     C_R   0.386671 0.485006 0.905844 0.168707
C6    C     C_3   0.288958 0.381243 0.876984 -0.480404
C7    C     C_3   0.292133 0.372616 0.031927 -0.297081
C8    C     C_R   0.496296 0.740255 0.496856 0.938692
C9    C     C_R   0.742310 0.495098 0.554801 0.919483
C10   C     C_2   0.118245 0.479340 0.420166 -0.399756
C11   C     C_2   0.059443 0.390135 0.485456 -0.096623
C12   C     C_R   0.522924 0.129330 0.508224 -0.256146
C13   C     C_2   0.879748 0.467991 0.577944 -0.310662
C14   C     C_2   0.921968 0.402971 0.481884 -0.153077
C15   C     C_R   0.467798 0.062901 0.605322 0.181847
C16   C     C_2   0.722382 0.599853 0.175467 0.939843
C17   C     C_2   0.345275 0.251255 0.094999 1.034483
C18   C     C_2   0.123766 0.277445 0.554758 0.973187
C19   C     C_2   0.519588 0.891131 0.236582 1.072999
C20   C     C_R   0.557258 0.068325 0.395954 0.351413
C21   C     C_R   0.521876 0.943083 0.375418 -0.120716
C22   C     C_R   0.487660 0.873393 0.487796 -0.261342
C23   C     C_R   0.456070 0.936067 0.598272 0.115520
C24   C     C_3   0.498406 0.917863 0.750333 -0.433493
C25   C     C_3   0.511396 0.058550 0.758500 -0.381412
C26   C     C_R   0.387376 0.480742 0.047688 0.138869
H1    H     H_    0.855910 0.367949 0.391530 0.182042
H2    H     H_    0.593246 0.870860 0.779360 0.220244
H3    H     H_    0.439525 0.100018 0.812402 0.235679
H4    H     H_    0.913427 0.640925 0.196216 0.343276
H5    H     H_    0.314108 0.096827 0.204996 0.349122
H6    H     H_    0.231739 0.250537 0.410048 0.326526
H7    H     H_    0.681426 0.194238 0.355975 0.333286
H8    H     H_    0.418975 0.794543 0.076103 0.322887
H9    H     H_    0.613328 0.093108 0.792390 0.218508
H10   H     H_    0.694174 0.561425 0.908551 0.186610
H11   H     H_    0.194904 0.415277 0.818133 0.210466
H12   H     H_    0.327260 0.299603 0.831544 0.233488
H13   H     H_    0.198092 0.396753 0.059735 0.179871
H14   H     H_    0.945390 0.499645 0.670213 0.163877
H15   H     H_    0.062292 0.552015 0.360627 0.182586
H16   H     H_    0.419079 0.878257 0.799444 0.213186
N1    N     N_R   0.499160 0.499140 0.142600 -0.131958
N2    N     N_R   0.499160 0.499180 0.856960 -0.109100
O1    O     O_R   0.500020 0.316790 0.614700 -0.598236
O2    O     O_R   0.845534 0.580142 0.146743 -0.828318
O3    O     O_2   0.449937 0.215038 0.076113 -0.579043
O4    O     O_R   0.271347 0.178182 0.171166 -0.799633
O5    O     O_2   0.086181 0.231523 0.654509 -0.586173
O6    O     O_R   0.220350 0.217346 0.503485 -0.780827
O7    O     O_3   0.624019 0.128808 0.305190 -0.661991
O8    O     O_2   0.610147 0.912327 0.177199 -0.539212
O9    O     O_R   0.409819 0.823955 0.170385 -0.802637
O10   O     O_R   0.500000 0.316760 0.385350 -0.601385
O11   O     O_R   0.317820 0.500020 0.571850 -0.603599
O12   O     O_R   0.317800 0.499980 0.342510 -0.602772
O13   O     O_R   0.500000 0.683240 0.614650 -0.623744
O14   O     O_R   0.499980 0.683210 0.385300 -0.561135
O15   O     O_R   0.682200 0.500020 0.657490 -0.619593
O16   O     O_R   0.682180 0.499980 0.428150 -0.601730
O17   O     O_2   0.709299 0.677030 0.260127 -0.579120
Zn1   Zn    Zn3+2 0.500010 0.500020 0.653140 0.967268
Zn2   Zn    Zn3+2 0.499990 0.499980 0.346860 1.017520

loop_
_geom_bond_atom_site_label_1
_geom_bond_atom_site_label_2
_ccdc_geom_bond_type
C8    C22   S    
C23   C24   S    
C17   O4    S    
C11   C18   S    
C6    C7    S    
C14   H1    S    
H7    O7    S    
C2    C16   S    
C19   O9    S    
C12   C15   A    
C2    N1    A    
C1    O10   A    
C9    O16   A    
H6    O6    S    
C12   C20   A    
C15   C23   A    
C2    C3    A    
O12   Zn2   S    
N1    Zn2   S    
O13   Zn1   S    
C13   C14   D    
C20   C21   A    
C10   H15   S    
C1    C12   S    
C1    O1    A    
C7    C26   S    
C3    H10   S    
C25   H9    S    
O16   Zn2   S    
C19   C21   S    
C5    N2    A    
N2    Zn1   S    
C26   N1    A    
C20   O7    S    
H5    O4    S    
C4    O11   A    
C25   H3    S    
C5    C6    S    
C8    O13   A    
C11   C14   S    
C3    N2    A    
C15   C25   S    
O10   Zn2   S    
C4    C10   S    
C5    C26   A    
O11   Zn1   S    
C17   O3    D    
O1    Zn1   S    
O14   Zn2   S    
C24   H16   S    
C24   C25   S    
C18   O6    S    
H8    O9    S    
C16   O17   D    
C16   O2    S    
C10   C11   D    
C7    H13   S    
C22   C23   A    
C13   H14   S    
C9    C13   S    
C8    O14   A    
C6    H12   S    
C21   C22   A    
C9    O15   A    
C19   O8    D    
H4    O2    S    
C4    O12   A    
C24   H2    S    
C18   O5    D    
C6    H11   S    
O15   Zn1   S    
C7    C17   S    
