data_mof_unit_pretest_1227.cif
_audit_creation_date              2013-03-05T15:58:57-0500
_audit_creation_method            fapswitch 2.2
_symmetry_space_group_name_H-M    P1
_symmetry_Int_Tables_number       1
_space_group_crystal_system       triclinic
_cell_length_a                    10.62543
_cell_length_b                    12.593847
_cell_length_c                    13.198191
_cell_angle_alpha                 82.508251
_cell_angle_beta                  90.473794
_cell_angle_gamma                 102.404824
_cell_volume                      1709.80544099

loop_
_atom_site_label
_atom_site_type_symbol
_atom_site_description
_atom_site_fract_x
_atom_site_fract_y
_atom_site_fract_z
_atom_type_partial_charge
O1    O     O_R   0.468120 0.366740 0.627160 -0.615528
O2    O     O_R   0.510770 0.544830 0.662520 -0.613616
C1    C     C_R   0.482713 0.439076 0.691104 0.861504
O3    O     O_R   0.663880 0.410950 0.482330 -0.620472
O4    O     O_R   0.706530 0.589040 0.517700 -0.624313
C2    C     C_R   0.741951 0.500615 0.500233 0.838376
Zn1   Zn    Zn3+2 0.471520 0.381090 0.476390 0.945627
Zn2   Zn    Zn3+2 0.528480 0.618910 0.523610 0.925511
O5    O     O_R   0.489230 0.455170 0.337480 -0.613708
O6    O     O_R   0.531880 0.633260 0.372840 -0.630801
O7    O     O_R   0.293470 0.410960 0.482300 -0.621861
O8    O     O_R   0.336120 0.589050 0.517670 -0.650037
C3    C     C_R   0.514138 0.561009 0.309157 0.868075
C4    C     C_R   0.258032 0.499796 0.499935 0.811297
C5    C     C_3   0.905669 0.410928 0.583932 -0.399626
H1    H     H_    0.849736 0.328906 0.569772 0.179715
H2    H     H_    0.875183 0.425675 0.660467 0.167459
C6    C     C_3   0.050066 0.410382 0.583755 -0.390365
H3    H     H_    0.090166 0.425173 0.660124 0.159643
H4    H     H_    0.063225 0.328186 0.569552 0.186124
H5    H     H_    0.865389 0.399353 0.375641 0.205803
H6    H     H_    0.078678 0.397804 0.376120 0.187889
C7    C     C_3   0.921190 0.479662 0.394260 -0.355769
C8    C     C_3   0.957655 0.614349 0.523135 -0.390659
C9    C     C_3   0.878782 0.501545 0.500418 0.146069
H7    H     H_    0.939572 0.681121 0.464432 0.184675
H8    H     H_    0.928914 0.632066 0.599122 0.181837
C10   C     C_3   0.121362 0.500430 0.500097 0.164152
C11   C     C_3   0.065470 0.478679 0.394224 -0.398973
C12   C     C_3   0.100418 0.613894 0.522651 -0.380297
H9    H     H_    0.140560 0.632154 0.598274 0.183127
H10   H     H_    0.150684 0.680335 0.463427 0.179194
H11   H     H_    0.902229 0.544278 0.333700 0.180386
H12   H     H_    0.116905 0.542668 0.333503 0.163330
C13   C     C_R   0.446851 0.713497 0.060345 -0.184368
H13   H     H_    0.461429 0.752406 0.213693 0.156099
H14   H     H_    0.348268 0.704161 0.875541 0.149703
H15   H     H_    0.406978 0.784111 0.033232 0.143401
C14   C     C_R   0.514936 0.598126 0.200725 -0.072831
C15   C     C_R   0.541908 0.313529 0.832102 -0.267927
C16   C     C_R   0.602342 0.306832 0.925456 -0.198453
C17   C     C_R   0.608813 0.389620 0.987702 0.303610
C18   C     C_R   0.531773 0.469905 0.964432 -0.043358
C19   C     C_R   0.469556 0.475203 0.869482 0.057920
C20   C     C_R   0.514053 0.545432 0.031045 0.100928
C21   C     C_R   0.456949 0.635377 0.995932 0.169733
C22   C     C_R   0.399206 0.639942 0.901207 -0.232147
C23   C     C_R   0.397112 0.556356 0.842416 -0.165616
C24   C     C_R   0.535820 0.525897 0.134926 -0.170647
C25   C     C_R   0.477769 0.695593 0.162875 -0.197854
C26   C     C_R   0.486568 0.403141 0.800284 -0.107593
H16   H     H_    0.556971 0.448754 0.167539 0.186035
H17   H     H_    0.553268 0.256520 0.779801 0.171289
H18   H     H_    0.657240 0.243871 0.943530 0.188179
H19   H     H_    0.340275 0.557166 0.773927 0.153653
C27   C     C_R   0.322558 0.087857 0.346625 -0.290268
H20   H     H_    0.301258 0.254692 0.330214 0.134570
H21   H     H_    0.293308 0.880922 0.315678 0.152899
H22   H     H_    0.254855 0.065787 0.287047 0.150558
N1    N     N_R   0.433240 0.222190 0.444680 -0.103416
C28   C     C_R   0.650827 0.799087 0.630659 -0.033191
C29   C     C_R   0.681206 0.903552 0.660044 -0.028972
C30   C     C_R   0.623888 0.985359 0.610553 -0.246512
C31   C     C_R   0.535745 0.962543 0.531254 0.000962
C32   C     C_R   0.508265 0.854702 0.504545 0.237081
C33   C     C_R   0.473587 0.041799 0.477844 0.001371
C34   C     C_R   0.385170 0.011344 0.399798 0.198287
C35   C     C_R   0.360265 0.904961 0.375238 -0.296769
C36   C     C_R   0.421353 0.828101 0.426695 -0.218151
C37   C     C_R   0.495404 0.150839 0.498164 -0.042061
C38   C     C_R   0.348287 0.194069 0.370639 0.023893
N2    N     N_R   0.566070 0.776970 0.554790 -0.137384
H23   H     H_    0.561123 0.182061 0.555141 0.121022
H24   H     H_    0.694076 0.734498 0.668440 0.147937
H25   H     H_    0.649580 0.065140 0.635760 0.136622
H26   H     H_    0.398463 0.748176 0.403834 0.207808
N3    N     N_R   0.707461 0.399433 0.063236 0.181206
O9    O     O_R   0.784473 0.493963 0.068606 -0.401943
O10   O     O_R   0.733274 0.312001 0.115656 -0.409687
C39   C     C_1   0.770373 0.926550 0.741163 0.151330
N4    N     N_1   0.841993 0.945014 0.806372 -0.190715

loop_
_geom_bond_atom_site_label_1
_geom_bond_atom_site_label_2
_geom_bond_distance
_ccdc_geom_bond_type
C5    C6    1.535793 S    
H6    C11   1.113378 S    
C23   H19   1.083102 S    
C16   C17   1.399401 A    
C8    H8    1.114232 S    
N3    O9    1.301685 A    
Zn1   O7    2.010615 S    
O4    C2    1.297449 A    
C7    C11   1.535751 S    
C29   C39   1.440126 S    
C10   C11   1.548048 S    
C8    H7    1.114177 S    
C12   H9    1.114296 S    
O7    C4    1.303067 A    
C5    C9    1.551047 S    
C2    C9    1.451403 S    
C5    H1    1.113519 S    
C36   H26   1.065918 S    
C5    H2    1.113528 S    
C6    H3    1.113522 S    
O5    C3    1.306373 A    
C35   C36   1.382278 A    
C7    H11   1.113463 S    
N1    C37   1.350516 A    
H14   C22   1.084145 S    
C27   C38   1.384347 A    
C33   C34   1.422313 A    
C37   H23   1.076187 S    
O3    Zn1   1.999983 S    
N3    O10   1.301652 A    
Zn2   N2    2.039757 S    
C34   C35   1.389097 A    
C13   H15   1.083877 S    
C6    C10   1.548316 S    
C8    C9    1.551081 S    
O3    C2    1.297307 A    
C1    C26   1.455977 S    
N1    C38   1.354054 A    
C20   C21   1.421186 A    
C11   H12   1.113543 S    
O1    C1    1.305307 A    
C31   C33   1.421765 A    
C18   C19   1.412573 A    
C32   N2    1.362958 A    
C29   C30   1.395184 A    
C22   C23   1.383236 A    
C20   C24   1.387458 A    
Zn2   O8    1.999983 S    
C24   H16   1.078327 S    
C13   C25   1.390997 A    
H20   C38   1.081920 S    
C18   C20   1.418057 A    
C28   N2    1.356960 A    
H21   C35   1.084442 S    
C15   C16   1.385857 A    
C14   C24   1.388069 A    
O8    C4    1.292835 A    
H5    C7    1.113384 S    
C17   C18   1.434279 A    
C15   C26   1.397561 A    
Zn1   N1    2.052102 S    
H13   C25   1.082751 S    
C19   C26   1.407024 A    
Zn1   O5    1.936821 S    
C21   C22   1.387972 A    
O1    Zn1   1.974398 S    
O2    Zn2   1.936821 S    
C39   N4    1.157243 T    
O6    C3    1.301170 A    
O4    Zn2   2.010616 S    
C28   H24   1.082836 S    
C27   C34   1.398200 A    
C27   H22   1.083883 S    
C31   C32   1.416623 A    
C10   C12   1.558420 S    
O2    C1    1.305854 A    
C12   H10   1.113885 S    
C33   C37   1.403448 A    
C30   H25   1.078222 S    
C32   C36   1.400678 A    
C6    H4    1.113324 S    
C7    C9    1.551294 S    
C28   C29   1.390669 A    
C8    C12   1.518229 S    
C16   H18   1.083053 S    
C3    C14   1.445925 S    
C30   C31   1.414803 A    
C14   C25   1.399046 A    
C17   N3    1.437699 S    
Zn2   O6    1.974395 S    
C15   H17   1.083692 S    
C4    C10   1.453931 S    
C13   C21   1.402542 A    
C19   C23   1.415249 A    
