data_mof_unit_pretest_901.cif
_audit_creation_date              2012-12-10T17:44:35-0500
_audit_creation_method            fapswitch 2.2
_symmetry_space_group_name_H-M    P1
_symmetry_Int_Tables_number       1
_space_group_crystal_system       triclinic
_cell_length_a                    9.923804
_cell_length_b                    10.797265
_cell_length_c                    15.48363
_cell_angle_alpha                 91.516424
_cell_angle_beta                  67.758263
_cell_angle_gamma                 89.420036
_cell_volume                      1534.72564906

loop_
_atom_site_label
_atom_site_type_symbol
_atom_type_description
_atom_site_fract_x
_atom_site_fract_y
_atom_site_fract_z
_atom_type_partial_charge
C1    C     C_R   0.503113 0.738987 0.491919 0.879169
C2    C     C_R   0.716658 0.392738 0.038074 0.114465
C3    C     C_R   0.576119 0.444352 0.090499 0.081433
C4    C     C_R   0.408778 0.498522 0.675855 0.854737
C5    C     C_R   0.819246 0.382351 0.080750 -0.213664
C6    C     C_R   0.783231 0.422417 0.173328 -0.208023
C7    C     C_R   0.548832 0.494777 0.179478 -0.247057
C8    C     C_R   0.260395 0.888681 0.471350 -0.168644
C9    C     C_R   0.124373 0.948462 0.503412 0.257076
C10   C     C_R   0.104595 0.060074 0.554770 -0.138269
C11   C     C_R   0.224024 0.117222 0.564133 -0.193668
C12   C     C_R   0.405856 0.448477 0.914509 0.106270
C13   C     C_R   0.365366 0.062411 0.522747 0.079761
C14   C     C_R   0.376966 0.939096 0.490969 0.053509
C15   C     C_R   0.504594 0.871222 0.481146 -0.127693
C16   C     C_R   0.497533 0.259950 0.505395 0.878319
C17   C     C_R   0.630165 0.931622 0.475678 -0.272566
C18   C     C_R   0.629276 0.058212 0.485701 -0.005509
C19   C     C_R   0.496097 0.125786 0.509729 -0.171810
C20   C     C_R   0.785086 0.657600 0.627351 -0.160954
C21   C     C_R   0.817378 0.731055 0.691920 -0.199895
C22   C     C_R   0.956396 0.728414 0.692709 -0.176671
C23   C     C_R   0.259956 0.482903 0.970888 0.174228
C24   C     C_R   0.064060 0.652562 0.628742 -0.159607
C25   C     C_R   0.034197 0.574484 0.564185 0.144620
C26   C     C_R   0.889828 0.575515 0.563847 0.163243
C27   C     C_R   0.966831 0.431801 0.436566 -0.105911
C28   C     C_R   0.591273 0.498056 0.324041 0.868070
C29   C     C_R   0.109449 0.430790 0.437157 -0.114438
C30   C     C_R   0.352083 0.488689 0.777032 -0.059203
C31   C     C_R   0.646640 0.477527 0.223026 -0.054316
C32   C     C_R   0.160488 0.513373 0.929638 -0.205232
C33   C     C_R   0.206260 0.515674 0.832813 -0.180434
C34   C     C_R   0.507156 0.420469 0.956150 0.047596
C35   C     C_R   0.449309 0.453357 0.817870 -0.263166
C36   C     C_3   0.001954 0.892455 0.482846 -0.913679
C37   C     C_1   0.767841 0.113639 0.470757 0.196500
C38   C     C_1   0.890116 0.297121 0.888155 0.139935
C39   C     C_R   0.467117 0.447316 0.052382 0.069617
C40   C     C_R   0.318784 0.474512 0.107819 -0.222790
C41   C     C_R   0.216655 0.490145 0.067479 -0.246596
C42   C     C_R   0.647023 0.367837 0.904772 -0.272049
C43   C     C_R   0.749930 0.352258 0.945098 -0.018568
H1    H     H_    0.104751 0.513088 0.111853 0.148022
H2    H     H_    0.449539 0.546820 0.217384 0.150112
H3    H     H_    0.982040 0.787743 0.741619 0.151959
H4    H     H_    0.170162 0.659574 0.630174 0.204663
H5    H     H_    0.193874 0.373879 0.385868 0.156915
H6    H     H_    0.859873 0.406818 0.206689 0.151129
H7    H     H_    0.048879 0.539670 0.972195 0.147455
H8    H     H_    0.129371 0.542398 0.801928 0.158342
H9    H     H_    0.561486 0.436601 0.772934 0.166624
H10   H     H_    0.277920 0.481308 0.183091 0.144867
H11   H     H_    0.677276 0.333482 0.833656 0.152445
H12   H     H_    0.925872 0.340204 0.043946 0.157471
H13   H     H_    0.019667 0.791254 0.468370 0.237304
H14   H     H_    0.897354 0.908332 0.543077 0.247276
H15   H     H_    0.996425 0.934090 0.419607 0.245366
H16   H     H_    0.730196 0.879582 0.462732 0.179823
H17   H     H_    0.274837 0.805168 0.428431 0.169692
H18   H     H_    0.998131 0.104761 0.585181 0.159418
H19   H     H_    0.203842 0.203182 0.604873 0.180993
H20   H     H_    0.944882 0.377305 0.383953 0.152937
H21   H     H_    0.678513 0.671132 0.627736 0.207442
H22   H     H_    0.734806 0.792833 0.740063 0.153640
N1    N     N_R   0.856800 0.501200 0.500850 -0.120107
N2    N     N_R   0.142390 0.501280 0.500880 -0.126397
N3    N     N_1   0.878787 0.158105 0.458557 -0.231811
N4    N     N_1   0.002179 0.253039 0.842463 -0.212775
O1    O     O_R   0.385310 0.683220 0.500000 -0.649154
O2    O     O_R   0.614640 0.683250 0.500010 -0.637004
O3    O     O_R   0.319840 0.499980 0.632240 -0.634285
O4    O     O_R   0.549160 0.500000 0.632250 -0.634237
O5    O     O_R   0.385360 0.316750 0.499990 -0.613853
O6    O     O_R   0.614690 0.316780 0.500000 -0.599378
O7    O     O_R   0.450840 0.500000 0.367750 -0.619513
O8    O     O_R   0.680160 0.500020 0.367760 -0.615841
Zn1   Zn    Zn3+2 0.346880 0.499980 0.499990 0.924570
Zn2   Zn    Zn3+2 0.653120 0.500020 0.500010 0.937754

loop_
_geom_bond_atom_site_label_1
_geom_bond_atom_site_label_2
_ccdc_geom_bond_type
O1    Zn1   S    
C16   O6    A    
C25   N2    A    
C11   H19   S    
O2    Zn2   S    
N1    Zn2   S    
C12   C23   A    
C1    O2    A    
C30   C35   A    
C16   O5    A    
C7    H2    S    
C18   C37   S    
O7    Zn1   S    
C36   H15   S    
C5    C6    A    
C27   C29   A    
C37   N3    T    
C18   C19   A    
O3    Zn1   S    
C29   N2    A    
C8    C9    A    
C34   C42   A    
C9    C36   S    
C1    C15   S    
C9    C10   A    
C6    C31   A    
C38   N4    T    
C3    C39   A    
C13   C14   A    
N2    Zn1   S    
O8    Zn2   S    
C7    C31   A    
C13   C19   A    
C29   H5    S    
C34   C39   A    
C26   N1    A    
C24   C25   A    
C36   H14   S    
C39   C40   A    
C25   C26   A    
C20   H21   S    
C36   H13   S    
C2    C43   A    
C17   C18   A    
O4    Zn2   S    
C12   C35   A    
C28   O8    A    
C32   H7    S    
C4    O4    A    
C27   H20   S    
C17   H16   S    
C40   C41   A    
C22   H3    S    
C41   H1    S    
C22   C24   A    
C10   H18   S    
C42   C43   A    
C12   C34   A    
C28   O7    A    
C4    O3    A    
C15   C17   A    
C8    C14   A    
C30   C33   A    
C21   H22   S    
C24   H4    S    
C5    H12   S    
C28   C31   S    
C23   C32   A    
C33   H8    S    
C3    C7    A    
C1    O1    A    
C23   C41   A    
C32   C33   A    
C2    C3    A    
C38   C43   S    
C27   N1    A    
C42   H11   S    
C11   C13   A    
C20   C26   A    
C16   C19   S    
C6    H6    S    
C4    C30   S    
C10   C11   A    
C2    C5    A    
C20   C21   A    
C40   H10   S    
O5    Zn1   S    
C35   H9    S    
C14   C15   A    
C21   C22   A    
O6    Zn2   S    
C8    H17   S    
