data_mof_unit_pretest_1888.cif
_audit_creation_date              2012-12-10T17:59:07-0500
_audit_creation_method            fapswitch 2.2
_symmetry_space_group_name_H-M    P1
_symmetry_Int_Tables_number       1
_space_group_crystal_system       triclinic
_cell_length_a                    18.788928
_cell_length_b                    18.707379
_cell_length_c                    18.755713
_cell_angle_alpha                 109.036225
_cell_angle_beta                  109.824961
_cell_angle_gamma                 109.233522
_cell_volume                      5094.57184972

loop_
_atom_site_label
_atom_site_type_symbol
_atom_type_description
_atom_site_fract_x
_atom_site_fract_y
_atom_site_fract_z
_atom_type_partial_charge
C1    C     C_R   0.618444 0.618725 0.499842 0.778356
C2    C     C_R   0.834367 0.766679 0.539158 0.116986
C3    C     C_3   0.878500 0.715232 0.521117 -0.458645
C4    C     C_R   0.380453 0.499856 0.380514 0.791586
C5    C     C_3   0.806655 0.641202 0.515689 -0.235351
C6    C     C_R   0.688079 0.426323 0.680588 0.122023
C7    C     C_R   0.687865 0.502198 0.687128 -0.094653
C8    C     C_R   0.756365 0.581272 0.762758 -0.211848
C9    C     C_R   0.822309 0.581310 0.827642 -0.208415
C10   C     C_R   0.818582 0.502066 0.818641 -0.082321
C11   C     C_R   0.749406 0.426127 0.744044 0.123719
C12   C     C_3   0.229161 0.438759 0.174468 0.064003
C13   C     C_3   0.710768 0.329918 0.696505 -0.491013
C14   C     C_3   0.640019 0.330008 0.624479 -0.453408
C15   C     C_R   0.231477 0.262813 0.428861 0.090015
C16   C     C_R   0.381612 0.381424 0.500395 0.793064
C17   C     C_R   0.314861 0.316279 0.501373 -0.063060
C18   C     C_R   0.329989 0.313715 0.578893 -0.207820
C19   C     C_R   0.265448 0.249479 0.579112 -0.200266
C20   C     C_R   0.184602 0.189270 0.502371 -0.087134
C21   C     C_R   0.167107 0.200709 0.429526 0.136448
C22   C     C_3   0.131368 0.136431 0.336837 -0.456013
C23   C     C_3   0.220992 0.420568 0.246532 -0.213273
C24   C     C_3   0.202430 0.204855 0.336355 -0.462713
C25   C     C_R   0.003387 0.619162 0.122200 0.797334
C26   C     C_R   0.123204 0.499885 0.123375 0.848659
C27   C     C_R   0.004604 0.381310 0.885705 0.857331
C28   C     C_R   0.619856 0.500410 0.619684 0.791241
C29   C     C_R   0.884578 0.500255 0.884313 0.793328
C30   C     C_R   0.999204 0.118596 0.617767 0.800454
C31   C     C_R   0.881319 0.881774 0.500900 0.792590
C32   C     C_R   0.000686 0.881342 0.382259 0.776834
C33   C     C_R   0.118690 0.119201 0.500062 0.774398
C34   C     C_3   0.312362 0.499566 0.312540 0.011968
C35   C     C_R   0.930010 0.670535 0.197945 0.122065
C36   C     C_R   0.002083 0.687541 0.186376 -0.146248
C37   C     C_R   0.071422 0.773810 0.233577 -0.178203
C38   C     C_R   0.073013 0.839682 0.298800 -0.030416
C39   C     C_R   0.002873 0.817800 0.315243 -0.156893
C40   C     C_3   0.274542 0.560519 0.330060 -0.146029
C41   C     C_R   0.930167 0.734794 0.260721 0.111127
C42   C     C_3   0.883512 0.672905 0.284204 -0.472106
C43   C     C_3   0.883232 0.602154 0.215022 -0.422266
C44   C     C_R   0.930342 0.235446 0.757296 0.115245
C45   C     C_R   0.769739 0.700298 0.534988 0.057387
C46   C     C_R   0.004761 0.315474 0.818695 -0.078293
C47   C     C_R   0.080425 0.330984 0.811831 -0.149081
C48   C     C_R   0.079040 0.266130 0.745643 -0.217280
C49   C     C_R   0.001312 0.186453 0.684112 -0.077647
C50   C     C_R   0.928279 0.174704 0.692064 0.118762
C51   C     C_3   0.835754 0.110626 0.655636 -0.489219
C52   C     C_3   0.182133 0.481661 0.262904 -0.179458
C53   C     C_3   0.837672 0.180235 0.729570 -0.452477
C54   C     C_3   0.190836 0.498955 0.190754 0.011103
C55   C     C_3   0.282510 0.577746 0.257100 -0.181282
C56   C     C_R   0.684884 0.686280 0.501019 -0.027286
C57   C     C_3   0.321521 0.516879 0.240679 -0.219266
C58   C     C_2   0.749332 0.561423 0.426525 0.451295
C59   C     C_2   0.148336 0.929548 0.349898 0.351598
C60   C     C_2   0.205457 0.369829 0.088445 0.319889
C61   C     C_R   0.667980 0.746374 0.479491 -0.192974
C62   C     C_R   0.732633 0.811637 0.480325 -0.201809
C63   C     C_R   0.815451 0.818893 0.505742 -0.072897
Cu1   Cu    Cu3+1 0.500490 0.438210 0.438660 0.952949
Cu2   Cu    Cu3+1 0.499510 0.561790 0.561340 0.949069
Cu3   Cu    Cu3+1 0.942090 0.438240 0.003860 0.956597
Cu4   Cu    Cu3+1 0.065700 0.561800 0.003830 0.962450
Cu5   Cu    Cu3+1 0.937720 0.000020 0.437750 0.951344
Cu6   Cu    Cu3+1 0.062280 0.000080 0.562350 0.951739
H1    H     H_    0.124137 0.467394 0.271157 0.144062
H2    H     H_    0.392713 0.358568 0.637782 0.145659
H3    H     H_    0.294271 0.610870 0.395300 0.148265
H4    H     H_    0.279375 0.245668 0.638309 0.160604
H5    H     H_    0.138817 0.078381 0.329702 0.205267
H6    H     H_    0.064870 0.121882 0.293783 0.200828
H7    H     H_    0.251300 0.186610 0.329280 0.223240
H8    H     H_    0.176858 0.229692 0.293030 0.186898
H9    H     H_    0.125968 0.789059 0.222158 0.203470
H10   H     H_    0.924445 0.687445 0.351416 0.192966
H11   H     H_    0.817458 0.664062 0.267933 0.221224
H12   H     H_    0.943424 0.743506 0.578288 0.181956
H13   H     H_    0.923661 0.575521 0.242177 0.199797
H14   H     H_    0.306812 0.642265 0.260716 0.151208
H15   H     H_    0.816967 0.552571 0.158601 0.203306
H16   H     H_    0.140546 0.392093 0.858082 0.170258
H17   H     H_    0.137961 0.278293 0.742199 0.147285
H18   H     H_    0.792936 0.097444 0.589628 0.204608
H19   H     H_    0.828702 0.052103 0.662261 0.198807
H20   H     H_    0.796185 0.207445 0.706282 0.187898
H21   H     H_    0.831069 0.161488 0.778408 0.211868
H22   H     H_    0.379546 0.530983 0.232469 0.141819
H23   H     H_    0.830719 0.626537 0.569088 0.116869
H24   H     H_    0.197058 0.356124 0.243128 0.126455
H25   H     H_    0.603971 0.740324 0.458307 0.139608
H26   H     H_    0.717282 0.854708 0.459206 0.158666
H27   H     H_    0.878592 0.702276 0.458967 0.203982
H28   H     H_    0.735986 0.498050 0.420327 0.050866
H29   H     H_    0.150646 0.980794 0.400582 0.067014
H30   H     H_    0.238358 0.331853 0.086511 0.077873
H31   H     H_    0.759597 0.642541 0.771032 0.158524
H32   H     H_    0.874954 0.642509 0.884867 0.155623
H33   H     H_    0.753627 0.310493 0.676274 0.188275
H34   H     H_    0.686117 0.298579 0.730642 0.208940
H35   H     H_    0.641575 0.309688 0.562586 0.206566
H36   H     H_    0.574571 0.299479 0.617556 0.198975
O1    O     O_R   0.590590 0.537990 0.448210 -0.573518
O2    O     O_R   0.051820 0.090220 0.642110 -0.581275
O3    O     O_R   0.857230 0.909860 0.447430 -0.586049
O4    O     O_R   0.589760 0.642350 0.551800 -0.590224
O5    O     O_R   0.962420 0.909900 0.552660 -0.584209
O6    O     O_R   0.948170 0.909880 0.357990 -0.577663
O7    O     O_R   0.053360 0.909920 0.463210 -0.588536
O8    O     O_R   0.037580 0.090200 0.447440 -0.583661
O9    O     O_R   0.142770 0.090240 0.552670 -0.590104
O10   O     O_R   0.409550 0.447830 0.357350 -0.588409
O11   O     O_R   0.408710 0.552190 0.460940 -0.590922
O12   O     O_R   0.055390 0.642370 0.093330 -0.593319
O13   O     O_R   0.410240 0.357650 0.448200 -0.585450
O14   O     O_R   0.409410 0.462010 0.551790 -0.583363
O15   O     O_R   0.591290 0.447810 0.539060 -0.591179
O16   O     O_R   0.590450 0.552170 0.642650 -0.585811
O17   O     O_R   0.951010 0.538020 0.093350 -0.589249
O18   O     O_2   0.717497 0.566855 0.361205 -0.537386
O19   O     O_2   0.208969 0.947725 0.335788 -0.548830
O20   O     O_2   0.149566 0.355944 0.020607 -0.560623
O21   O     O_R   0.042570 0.447840 0.094710 -0.584538
O22   O     O_R   0.146960 0.552180 0.094690 -0.588087
O23   O     O_R   0.952400 0.357670 0.914360 -0.578145
O24   O     O_R   0.056780 0.462020 0.914330 -0.592086
O25   O     O_R   0.860840 0.447860 0.913000 -0.588712
O26   O     O_R   0.965220 0.552200 0.912980 -0.587692
O27   O     O_R   0.946640 0.090180 0.536890 -0.586385

loop_
_geom_bond_atom_site_label_1
_geom_bond_atom_site_label_2
_ccdc_geom_bond_type
C41   C42   S    
C42   H11   S    
C32   O6    A    
C30   O2    A    
C31   O3    A    
C4    O10   A    
C35   C36   A    
C60   H30   S    
Cu6   O2    S    
C7    C8    A    
C39   C41   A    
C12   C23   S    
C33   O9    A    
C62   C63   A    
C5    C58   S    
C34   C40   S    
C47   H16   S    
C21   C22   S    
C36   C37   A    
C1    C56   S    
C16   O13   A    
C38   C39   A    
Cu6   O7    S    
C59   O19   D    
Cu1   O13   S    
C18   C19   A    
C26   O21   A    
C32   C39   S    
Cu5   O27   S    
C1    O4    A    
Cu5   Cu6   S    
C44   C53   S    
C14   H36   S    
C29   O25   A    
C45   C56   A    
C52   C54   S    
C16   C17   S    
C3    H12   S    
C34   C57   S    
Cu3   O17   S    
C3    H27   S    
Cu2   O16   S    
C13   H34   S    
C35   C43   S    
C25   O17   A    
Cu5   O8    S    
C24   H7    S    
C23   C34   S    
Cu3   Cu4   S    
C42   H10   S    
Cu1   O10   S    
C40   H3    S    
C13   C14   S    
C43   H15   S    
Cu4   O24   S    
C58   H28   S    
C22   H6    S    
C26   C54   S    
C44   C46   A    
C50   C51   S    
C2    C45   A    
Cu2   O14   S    
C4    C34   S    
Cu6   O9    S    
C31   C63   S    
C19   H4    S    
C28   O15   A    
C16   O14   A    
C51   H18   S    
C6    C11   A    
C28   O16   A    
C8    C9    A    
C60   O20   D    
C40   C52   S    
C5    C45   S    
C7    C28   S    
C23   H24   S    
C51   C53   S    
Cu5   O6    S    
C37   C38   A    
Cu4   O22   S    
C6    C14   S    
Cu6   O5    S    
C14   H35   S    
C47   C48   A    
C40   C55   S    
C17   C18   A    
C58   O18   D    
C46   C47   A    
Cu4   O12   S    
C27   O23   A    
Cu2   O4    S    
C57   H22   S    
C12   C57   S    
C27   C46   S    
C15   C24   S    
C30   C49   S    
C55   C57   S    
C53   H20   S    
C27   O24   A    
Cu2   O11   S    
C48   H17   S    
C42   C43   S    
C20   C33   S    
C55   H14   S    
C59   H29   S    
C2    C63   A    
C9    C10   A    
C44   C50   A    
C18   H2    S    
C15   C17   A    
C54   C55   S    
C48   C49   A    
C32   O7    A    
C61   H25   S    
C4    O11   A    
Cu4   O26   S    
C3    C5    S    
C25   O12   A    
C51   H19   S    
Cu1   O1    S    
C6    C7    A    
C37   H9    S    
C1    O1    A    
C33   O8    A    
Cu1   O15   S    
Cu1   Cu2   S    
C19   C20   A    
C2    C3    S    
C8    H31   S    
C11   C13   S    
C10   C29   S    
C23   C52   S    
C29   O26   A    
C30   O27   A    
C31   O5    A    
Cu3   O23   S    
C22   C24   S    
C26   O22   A    
C61   C62   A    
C35   C41   A    
C5    H23   S    
C52   H1    S    
C10   C11   A    
C25   C36   S    
C38   C59   S    
C12   C60   S    
Cu3   O21   S    
C24   H8    S    
C15   C21   A    
C20   C21   A    
C9    H32   S    
C49   C50   A    
C53   H21   S    
C43   H13   S    
C22   H5    S    
C56   C61   A    
Cu5   O3    S    
C13   H33   S    
C62   H26   S    
C12   C54   S    
Cu3   O25   S    
