data_mof_unit_pretest_508.cif
_audit_creation_date              2012-12-10T17:50:10-0500
_audit_creation_method            fapswitch 2.2
_symmetry_space_group_name_H-M    P1
_symmetry_Int_Tables_number       1
_space_group_crystal_system       triclinic
_cell_length_a                    10.617203
_cell_length_b                    14.694521
_cell_length_c                    14.552485
_cell_angle_alpha                 65.178995
_cell_angle_beta                  103.397261
_cell_angle_gamma                 102.593444
_cell_volume                      1985.75280264

loop_
_atom_site_label
_atom_site_type_symbol
_atom_type_description
_atom_site_fract_x
_atom_site_fract_y
_atom_site_fract_z
_atom_type_partial_charge
C1    C     C_R   0.484981 0.119212 0.311642 0.833230
C2    C     C_R   0.516946 0.880724 0.688636 0.836310
C3    C     C_R   0.475341 0.287065 0.172407 -0.149032
C4    C     C_R   0.526409 0.712279 0.826949 -0.148971
C5    C     C_R   0.490742 0.359422 0.073899 0.103954
C6    C     C_R   0.513739 0.640097 0.925933 0.104586
C7    C     C_R   0.540220 0.330453 0.009602 0.057585
C8    C     C_R   0.468332 0.669361 0.991824 0.057912
C9    C     C_R   0.473443 0.462279 0.042605 -0.048076
C10   C     C_R   0.529906 0.537221 0.956511 -0.049160
C11   C     C_R   0.600710 0.506136 0.905095 0.355234
C12   C     C_R   0.403125 0.493823 0.094035 0.354561
C13   C     C_R   0.593403 0.404118 0.925285 -0.210851
C14   C     C_R   0.413722 0.595812 0.075500 -0.212087
C15   C     C_R   0.722152 0.282817 0.671571 0.031304
C16   C     C_R   0.269650 0.712874 0.335261 0.027916
C17   C     C_R   0.683922 0.201458 0.639708 0.084659
C18   C     C_R   0.309612 0.795133 0.365666 0.091221
C19   C     C_R   0.519081 0.285337 0.509673 0.005249
C20   C     C_R   0.484185 0.716347 0.487603 0.003799
C21   C     C_R   0.550673 0.371181 0.536106 -0.037465
C22   C     C_R   0.450580 0.629414 0.462905 -0.036346
C23   C     C_R   0.259771 0.000772 0.499745 0.916530
C24   C     C_R   0.740238 0.999269 0.500174 0.924489
C25   C     C_R   0.655322 0.369291 0.617855 0.083836
C26   C     C_R   0.342116 0.629313 0.384340 0.083297
C27   C     C_R   0.481745 0.457963 0.484642 0.077610
C28   C     C_R   0.520282 0.543010 0.513739 0.077383
C29   C     C_R   0.626487 0.538413 0.593499 -0.184885
C30   C     C_R   0.374806 0.462146 0.405513 -0.186113
C31   C     C_R   0.691140 0.453944 0.644414 -0.180312
C32   C     C_R   0.307512 0.545254 0.356803 -0.181828
C33   C     C_3   0.015356 0.008758 0.408230 0.360113
C34   C     C_3   0.984750 0.991145 0.591951 0.357040
C35   C     C_3   0.960957 0.085979 0.428676 0.367948
C36   C     C_3   0.039162 0.913927 0.571505 0.360497
C37   C     C_3   0.876343 0.998412 0.499974 -0.250040
C38   C     C_3   0.123746 0.001497 0.500187 -0.256579
C39   C     C_3   0.929205 0.920175 0.479274 -0.317803
C40   C     C_3   0.070911 0.079726 0.520910 -0.322933
C41   C     C_R   0.491227 0.185768 0.202876 -0.075654
C42   C     C_R   0.514633 0.814164 0.798036 -0.068417
C43   C     C_R   0.550932 0.228813 0.036634 -0.160841
C44   C     C_R   0.463704 0.771562 0.967078 -0.166565
C45   C     C_R   0.526176 0.155166 0.132488 0.160703
C46   C     C_R   0.489484 0.845620 0.871577 0.163104
Cu1   Cu    Cu3+1 0.465750 0.918270 0.475680 0.981468
Cu2   Cu    Cu3+1 0.534250 0.081730 0.524320 0.979790
H1    H     H_    0.565649 0.723892 0.544755 0.147384
H2    H     H_    0.441800 0.280004 0.448965 0.147802
H3    H     H_    0.258499 0.860405 0.331220 0.170463
H4    H     H_    0.731046 0.134104 0.677306 0.169629
H5    H     H_    0.662577 0.599120 0.619618 0.186994
H6    H     H_    0.338579 0.401390 0.379465 0.185875
H7    H     H_    0.869858 0.855182 0.462362 0.202706
H8    H     H_    0.130367 0.144633 0.537924 0.203897
H9    H     H_    0.643336 0.382290 0.882080 0.164624
H10   H     H_    0.365427 0.618005 0.119409 0.167081
H11   H     H_    0.534857 0.688052 0.768479 0.194516
H12   H     H_    0.462160 0.310650 0.229952 0.194642
H13   H     H_    0.585750 0.207657 0.984828 0.131382
H14   H     H_    0.432643 0.793050 0.020313 0.133564
H15   H     H_    0.770725 0.456705 0.705291 0.182290
H16   H     H_    0.226741 0.541811 0.296941 0.181950
N1    N     N_R   0.585750 0.204560 0.560800 -0.205408
N2    N     N_R   0.414250 0.795440 0.439200 -0.205251
O1    O     O_R   0.454850 0.022100 0.338110 -0.590457
O2    O     O_R   0.545150 0.977900 0.661890 -0.595755
O3    O     O_R   0.512700 0.160150 0.379180 -0.576629
O4    O     O_R   0.487300 0.839850 0.620820 -0.575656
O5    O     O_R   0.287930 0.931000 0.479440 -0.547136
O6    O     O_R   0.712070 0.069000 0.520560 -0.546032
O7    O     O_R   0.345780 0.069050 0.520520 -0.600598
O8    O     O_R   0.654220 0.930950 0.479480 -0.601566
Cl1   Cl    Cl    0.905385 0.199739 0.332973 -0.528494
Cl2   Cl    Cl    0.094548 0.800072 0.667143 -0.534226
C47   C     C_3   0.831511 0.278498 0.761956 -0.442244
C48   C     C_3   0.893281 0.180535 0.816331 -0.755735
H17   H     H_    0.818549 0.114941 0.848073 0.243825
H18   H     H_    0.940784 0.168214 0.762821 0.277714
H19   H     H_    0.969523 0.186351 0.881036 0.265896
H20   H     H_    0.910944 0.341618 0.734463 0.233172
H21   H     H_    0.791996 0.289524 0.820394 0.215750
C49   C     C_3   0.151261 0.712455 0.252302 -0.444361
C50   C     C_3   0.076296 0.803493 0.208481 -0.748113
H22   H     H_    0.038787 0.810307 0.270199 0.274232
H23   H     H_    0.139412 0.874165 0.169052 0.253275
H24   H     H_    0.991310 0.792775 0.151213 0.260798
H25   H     H_    0.184107 0.707732 0.187423 0.220311
H26   H     H_    0.080507 0.643981 0.284744 0.232400
Cl3   Cl    Cl    0.038812 0.021419 0.285837 -0.594672
Cl4   Cl    Cl    0.961423 0.978568 0.714336 -0.604017
C51   C     C_3   0.476035 0.953697 0.849926 -0.446611
C52   C     C_3   0.341453 0.980439 0.790299 -0.669717
H27   H     H_    0.337148 0.061426 0.770739 0.230043
H28   H     H_    0.320716 0.967164 0.718437 0.260912
H29   H     H_    0.264646 0.933436 0.837741 0.278910
H30   H     H_    0.488235 0.964029 0.923120 0.192425
H31   H     H_    0.555337 0.008024 0.810098 0.221625
C53   C     C_3   0.551017 0.048649 0.158640 -0.358653
C54   C     C_3   0.424566 0.983181 0.136549 -0.810669
H32   H     H_    0.442664 0.903687 0.163519 0.235723
H33   H     H_    0.348156 0.985142 0.176017 0.270105
H34   H     H_    0.388307 0.011301 0.052765 0.247467
H35   H     H_    0.621210 0.049873 0.111893 0.203699
H36   H     H_    0.598963 0.013707 0.239201 0.228866
Cl5   Cl    Cl    0.723493 0.586620 0.832608 -0.614600
Cl6   Cl    Cl    0.277690 0.414762 0.164306 -0.612717

loop_
_geom_bond_atom_site_label_1
_geom_bond_atom_site_label_2
_ccdc_geom_bond_type
C25   C31   A    
C38   C40   S    
C26   C32   A    
C51   C52   S    
C34   C37   S    
C19   H2    S    
Cu2   O3    S    
C47   C48   S    
C30   H6    S    
C43   H13   S    
C53   H35   S    
C33   C39   S    
C4    C42   A    
C34   C40   S    
C20   N2    A    
C28   C29   A    
C19   C21   A    
C23   O7    A    
C2    O2    A    
C33   Cl3   S    
C48   H18   S    
C15   C25   A    
C13   H9    S    
C47   H21   S    
C16   C49   S    
C42   C46   A    
C36   Cl2   S    
C33   C35   S    
C39   H7    S    
C40   H8    S    
C7    C43   A    
Cu2   N1    S    
C9    C10   A    
C51   H31   S    
Cu1   N2    S    
C3    H12   S    
C21   C27   A    
C54   H33   S    
C22   C28   A    
C27   C30   A    
C49   H26   S    
Cu2   O6    S    
C17   H4    S    
Cu1   O1    S    
C44   C46   A    
C18   H3    S    
C50   H23   S    
C16   C26   A    
C14   H10   S    
C54   H32   S    
C31   H15   S    
C49   C50   S    
C32   H16   S    
C4    C6    A    
C12   Cl6   S    
C48   H17   S    
C6    C8    A    
C52   H29   S    
C44   H14   S    
C50   H22   S    
C1    O3    A    
Cu1   O4    S    
C5    C9    A    
C20   H1    S    
C23   O5    A    
Cu1   Cu2   S    
C35   Cl1   S    
C24   C37   S    
C16   C18   A    
Cu2   O2    S    
C52   H28   S    
C43   C45   A    
Cu1   O5    S    
C1    C41   S    
C12   C14   A    
C54   H34   S    
C11   Cl5   S    
C49   H25   S    
C24   O6    A    
C5    C7    A    
C50   H24   S    
C15   C17   A    
C21   C25   A    
C3    C41   A    
C8    C14   A    
C35   C37   S    
C17   N1    A    
Cu2   O7    S    
C36   C39   S    
C8    C44   A    
Cu1   O8    S    
C20   C22   A    
C3    C5    A    
C45   C53   S    
C6    C10   A    
C18   N2    A    
C23   C38   S    
C53   H36   S    
C33   C38   S    
C36   C38   S    
C35   C40   S    
C37   C39   S    
C30   C32   A    
C11   C13   A    
C48   H19   S    
C24   O8    A    
C15   C47   S    
C46   C51   S    
C29   H5    S    
C47   H20   S    
C2    C42   S    
C4    H11   S    
C53   C54   S    
C1    O1    A    
C19   N1    A    
C34   C36   S    
C52   H27   S    
C9    C12   A    
C34   Cl4   S    
C10   C11   A    
C7    C13   A    
C29   C31   A    
C22   C26   A    
C27   C28   A    
C41   C45   A    
C2    O4    A    
C51   H30   S    
