data_mof_unit_pretest_1209.cif
_audit_creation_date              2012-12-10T17:12:44-0500
_audit_creation_method            fapswitch 2.2
_symmetry_space_group_name_H-M    P1
_symmetry_Int_Tables_number       1
_space_group_crystal_system       triclinic
_cell_length_a                    23.465955
_cell_length_b                    10.645756
_cell_length_c                    10.003947
_cell_angle_alpha                 89.096238
_cell_angle_beta                  90.239436
_cell_angle_gamma                 89.976295
_cell_volume                      2498.78132476

loop_
_atom_site_label
_atom_site_type_symbol
_atom_type_description
_atom_site_fract_x
_atom_site_fract_y
_atom_site_fract_z
_atom_type_partial_charge
C1    C     C_R   0.495121 0.262744 0.500946 0.946603
C2    C     C_R   0.120654 0.626631 0.513006 0.521429
C3    C     C_R   0.240879 0.555980 0.372563 0.228121
C4    C     C_R   0.389253 0.498703 0.499887 0.883899
C5    C     C_R   0.299992 0.548710 0.381427 -0.235164
C6    C     C_R   0.326815 0.501343 0.497664 -0.099961
C7    C     C_R   0.293428 0.457684 0.606722 0.152136
C8    C     C_R   0.234227 0.465518 0.596825 -0.140928
C9    C     C_R   0.208289 0.514534 0.481621 0.276474
C10   C     C_R   0.761747 0.586488 0.413298 -0.084884
C11   C     C_R   0.702366 0.584634 0.410043 0.139726
C12   C     C_R   0.970981 0.299004 0.420296 -0.014633
C13   C     C_R   0.672819 0.504833 0.501095 -0.098435
C14   C     C_R   0.703606 0.430523 0.595172 -0.082323
C15   C     C_R   0.762756 0.435887 0.597432 -0.135327
C16   C     C_R   0.499074 0.737672 0.498666 0.938015
C17   C     C_R   0.791639 0.512803 0.506318 0.252502
C18   C     C_2   0.457706 0.930886 0.414324 -0.021246
C19   C     C_2   0.496040 0.870686 0.492963 -0.380242
C20   C     C_2   0.461027 0.067363 0.401405 -0.019340
C21   C     C_2   0.480928 0.132085 0.506113 -0.408051
C22   C     C_2   0.532455 0.573386 0.924343 0.010250
C23   C     C_R   0.029983 0.303135 0.414114 -0.210570
C24   C     C_2   0.528123 0.581120 0.074197 -0.168363
C25   C     C_R   0.610545 0.501088 0.500181 0.888598
C26   C     C_R   0.880233 0.621165 0.539350 0.528052
C27   C     C_R   0.880316 0.408424 0.466597 0.504926
C28   C     C_R   0.940081 0.407160 0.459440 -0.040077
C29   C     C_R   0.970039 0.518925 0.492339 -0.068059
C30   C     C_R   0.940317 0.626733 0.536186 -0.072731
C31   C     C_1   0.944608 0.180687 0.386744 0.262799
C32   C     C_3   0.671961 0.670529 0.311599 -0.843912
C33   C     C_1   0.675820 0.344775 0.687538 0.217507
C34   C     C_R   0.059621 0.412455 0.445573 -0.005322
C35   C     C_1   0.414330 0.864503 0.339046 0.225129
C36   C     C_1   0.444057 0.126359 0.275464 0.249889
C37   C     C_1   0.573509 0.653867 0.859245 0.270299
C38   C     C_3   0.058643 0.871939 0.534058 -0.766414
C39   C     C_3   0.943765 0.842377 0.648493 -0.757196
C40   C     C_3   0.212819 0.606992 0.247463 -0.850731
C41   C     C_3   0.318998 0.399522 0.731781 -0.828879
C42   C     C_R   0.030008 0.521498 0.484016 -0.056505
C43   C     C_R   0.060498 0.632730 0.512409 -0.078452
C44   C     C_R   0.030217 0.743911 0.543296 0.175001
C45   C     C_R   0.971365 0.736558 0.571672 0.170588
C46   C     C_R   0.118907 0.414204 0.440731 0.510341
H1    H     H_    0.786778 0.378957 0.668703 0.157179
H2    H     H_    0.785281 0.645176 0.343351 0.152114
H3    H     H_    0.650891 0.614306 0.233129 0.253113
H4    H     H_    0.639786 0.727979 0.364163 0.236169
H5    H     H_    0.701913 0.736233 0.260751 0.237537
H6    H     H_    0.088139 0.876372 0.447612 0.260414
H7    H     H_    0.027421 0.948297 0.513682 0.215456
H8    H     H_    0.081814 0.892073 0.628288 0.267442
H9    H     H_    0.917330 0.901848 0.580436 0.276766
H10   H     H_    0.917682 0.803278 0.731596 0.260999
H11   H     H_    0.975375 0.903293 0.698634 0.215658
H12   H     H_    0.528831 0.918933 0.549075 0.148627
H13   H     H_    0.244652 0.634204 0.170421 0.238771
H14   H     H_    0.187245 0.691409 0.271320 0.254136
H15   H     H_    0.184380 0.534537 0.204592 0.247452
H16   H     H_    0.348179 0.321742 0.705158 0.242754
H17   H     H_    0.342437 0.471732 0.788912 0.253808
H18   H     H_    0.285780 0.359624 0.798885 0.231436
H19   H     H_    0.485350 0.087480 0.604071 0.164967
H20   H     H_    0.468687 0.451435 0.898520 0.158044
H21   H     H_    0.550838 0.656215 0.123631 0.165231
H22   H     H_    0.052900 0.219418 0.384878 0.189587
H23   H     H_    0.482694 0.424831 0.102848 0.179298
H24   H     H_    0.325211 0.581084 0.297257 0.188365
H25   H     H_    0.207603 0.433057 0.678622 0.146536
N1    N     N_R   0.852433 0.513773 0.505590 -0.346896
N2    N     N_R   0.147726 0.519407 0.475964 -0.347379
N3    N     N_2   0.500610 0.501330 0.852150 -0.210654
N4    N     N_2   0.500630 0.501360 0.147810 -0.190551
N5    N     N_1   0.923812 0.085778 0.359737 -0.171318
N6    N     N_1   0.653578 0.276145 0.761456 -0.180392
N7    N     N_1   0.379784 0.812047 0.278834 -0.207105
N8    N     N_1   0.430434 0.173051 0.175052 -0.215039
N9    N     N_1   0.606566 0.718693 0.807385 -0.204089
O1    O     O_R   0.499990 0.319060 0.613040 -0.611537
O2    O     O_R   0.583840 0.500020 0.613040 -0.606010
O3    O     O_R   0.583850 0.500060 0.386900 -0.605872
O4    O     O_2   0.849024 0.722394 0.572152 -0.558699
O5    O     O_2   0.849598 0.306545 0.432768 -0.546385
O6    O     O_2   0.147912 0.311088 0.403093 -0.556235
O7    O     O_2   0.152302 0.724082 0.555331 -0.556726
O8    O     O_R   0.500010 0.319100 0.386900 -0.600732
O9    O     O_R   0.416150 0.499940 0.613100 -0.617060
O10   O     O_R   0.416160 0.499980 0.386960 -0.615491
O11   O     O_R   0.499990 0.680900 0.613100 -0.605624
O12   O     O_R   0.500010 0.680940 0.386960 -0.607256
Zn1   Zn    Zn3+2 0.499990 0.499970 0.650990 0.967537
Zn2   Zn    Zn3+2 0.500010 0.500030 0.349010 0.967117

loop_
_geom_bond_atom_site_label_1
_geom_bond_atom_site_label_2
_ccdc_geom_bond_type
C1    C21   S    
C40   H14   S    
C29   C42   A    
C26   N1    A    
C30   C45   A    
C34   C42   A    
C15   H1    S    
C14   C33   S    
C7    C8    A    
C12   C23   A    
C5    H24   S    
C12   C28   A    
C28   C29   A    
C5    C6    A    
C38   H6    S    
C10   C17   A    
C1    O1    A    
C39   H11   S    
C11   C13   A    
C18   C19   D    
C27   O5    S    
C24   H21   S    
C39   H9    S    
C8    C9    A    
C34   C46   A    
C18   C35   S    
C39   C45   S    
C1    O8    A    
C40   H13   S    
C13   C14   A    
N3    Zn1   S    
C13   C25   S    
C9    N2    S    
C41   H16   S    
O10   Zn2   S    
C4    O10   A    
C19   H12   S    
C37   N9    T    
O8    Zn2   S    
C4    C6    S    
O3    Zn2   S    
C40   H15   S    
C23   H22   S    
C43   C44   A    
C32   H5    S    
C38   C44   S    
C29   C30   A    
C3    C9    A    
O11   Zn1   S    
O1    Zn1   S    
C39   H10   S    
C38   H8    S    
C2    C43   A    
C23   C34   A    
O12   Zn2   S    
C2    O7    S    
C32   H4    S    
C2    N2    A    
C16   O11   A    
C3    C40   S    
C16   O12   A    
C12   C31   S    
C10   H2    S    
C25   O2    A    
C22   C24   S    
C42   C43   A    
C41   H17   S    
C44   C45   A    
C25   O3    A    
C4    O9    A    
C15   C17   A    
C8    H25   S    
C26   O4    S    
C21   H19   S    
C3    C5    A    
C36   N8    T    
C11   C32   S    
C24   N4    D    
C26   C30   A    
C6    C7    A    
C35   N7    T    
C22   C37   S    
C33   N6    T    
C31   N5    T    
C38   H7    S    
C16   C19   S    
H23   N4    S    
C18   C20   S    
C7    C41   S    
O9    Zn1   S    
C32   H3    S    
C10   C11   A    
C20   C36   S    
C20   C21   D    
C17   N1    S    
C27   C28   A    
O2    Zn1   S    
C22   N3    D    
C14   C15   A    
C41   H18   S    
C46   N2    A    
C27   N1    A    
N4    Zn2   S    
C46   O6    S    
H20   N3    S    
