data_mof_unit_pretest_1843.cif
_audit_creation_date              2013-03-05T15:55:19-0500
_audit_creation_method            fapswitch 2.2
_symmetry_space_group_name_H-M    P1
_symmetry_Int_Tables_number       1
_space_group_crystal_system       triclinic
_cell_length_a                    35.944898
_cell_length_b                    34.480111
_cell_length_c                    24.934677
_cell_angle_alpha                 90.001841
_cell_angle_beta                  136.25045
_cell_angle_gamma                 90.004492
_cell_volume                      21370.0960221

loop_
_atom_site_label
_atom_site_type_symbol
_atom_site_description
_atom_site_fract_x
_atom_site_fract_y
_atom_site_fract_z
_atom_type_partial_charge
Zn1   Zn    Zn3+2 0.063530 0.717220 0.065500 1.052948
Zn2   Zn    Zn3+2 0.936470 0.282780 0.934500 1.052952
Zn3   Zn    Zn3+2 0.936470 0.717220 0.934500 1.057261
Zn4   Zn    Zn3+2 0.063530 0.282780 0.065500 1.057265
Zn5   Zn    Zn3+2 0.563530 0.217220 0.065500 1.053511
Zn6   Zn    Zn3+2 0.436470 0.782780 0.934500 1.057068
Zn7   Zn    Zn3+2 0.436470 0.217220 0.934500 1.053533
Zn8   Zn    Zn3+2 0.563530 0.782780 0.065500 1.057086
Zn9   Zn    Zn3+2 0.001960 0.782720 0.065530 0.975543
Zn10  Zn    Zn3+2 0.998040 0.217280 0.934470 0.975436
Zn11  Zn    Zn3+2 0.998040 0.782720 0.934470 0.974886
Zn12  Zn    Zn3+2 0.001960 0.217280 0.065530 0.974778
Zn13  Zn    Zn3+2 0.501960 0.282720 0.065530 0.975368
Zn14  Zn    Zn3+2 0.498040 0.717280 0.934470 0.974958
Zn15  Zn    Zn3+2 0.498040 0.282720 0.934470 0.975291
Zn16  Zn    Zn3+2 0.501960 0.717280 0.065530 0.974880
O1    O     O_3   1.000000 0.749970 0.000000 -0.509326
O2    O     O_3   0.000000 0.250030 0.000000 -0.509297
O3    O     O_3   0.500000 0.249970 0.000000 -0.508775
O4    O     O_3   0.500000 0.750030 0.000000 -0.509959
O5    O     O_R   0.894890 0.727050 0.954170 -0.624629
O6    O     O_R   0.105110 0.272950 0.045830 -0.624596
O7    O     O_R   0.105110 0.727050 0.045830 -0.627481
O8    O     O_R   0.894890 0.272950 0.954170 -0.627448
O9    O     O_R   0.394890 0.227050 0.954170 -0.627282
O10   O     O_R   0.605110 0.772950 0.045830 -0.624687
O11   O     O_R   0.605110 0.227050 0.045830 -0.627253
O12   O     O_R   0.394890 0.772950 0.954170 -0.624656
O13   O     O_R   0.065880 0.772890 0.174890 -0.651802
O14   O     O_R   0.934120 0.227110 0.825110 -0.651852
O15   O     O_R   0.934120 0.772890 0.825110 -0.652251
O16   O     O_R   0.065880 0.227110 0.174890 -0.652300
O17   O     O_R   0.565880 0.272890 0.174890 -0.651935
O18   O     O_R   0.434120 0.727110 0.825110 -0.652236
O19   O     O_R   0.434120 0.272890 0.825110 -0.651934
O20   O     O_R   0.565880 0.727110 0.174890 -0.652232
O21   O     O_R   0.001370 0.837410 0.045880 -0.650349
O22   O     O_R   0.998630 0.162590 0.954120 -0.650363
O23   O     O_R   0.998630 0.837410 0.954120 -0.650276
O24   O     O_R   0.001370 0.162590 0.045880 -0.650289
O25   O     O_R   0.501370 0.337410 0.045880 -0.650288
O26   O     O_R   0.498630 0.662590 0.954120 -0.650334
O27   O     O_R   0.498630 0.337410 0.954120 -0.650311
O28   O     O_R   0.501370 0.662590 0.045880 -0.650356
O29   O     O_R   0.955530 0.662540 0.954140 -0.618350
O30   O     O_R   0.044470 0.337460 0.045860 -0.618351
O31   O     O_R   0.044470 0.662540 0.045860 -0.621636
O32   O     O_R   0.955530 0.337460 0.954140 -0.621637
O33   O     O_R   0.455530 0.162540 0.954140 -0.621169
O34   O     O_R   0.544470 0.837460 0.045860 -0.618831
O35   O     O_R   0.544470 0.162540 0.045860 -0.621147
O36   O     O_R   0.455530 0.837460 0.954140 -0.618805
O37   O     O_R   0.108980 0.727040 0.174870 -0.590886
O38   O     O_R   0.891020 0.272960 0.825130 -0.590853
O39   O     O_R   0.891020 0.727040 0.825130 -0.590242
O40   O     O_R   0.108980 0.272960 0.174870 -0.590208
O41   O     O_R   0.608980 0.227040 0.174870 -0.590762
O42   O     O_R   0.391020 0.772960 0.825130 -0.590088
O43   O     O_R   0.391020 0.227040 0.825130 -0.590791
O44   O     O_R   0.608980 0.772960 0.174870 -0.590116
O45   O     O_R   0.940740 0.772900 0.045880 -0.637496
O46   O     O_R   0.059260 0.227100 0.954120 -0.637577
O47   O     O_R   0.059260 0.772900 0.954120 -0.636899
O48   O     O_R   0.940740 0.227100 0.045880 -0.636980
O49   O     O_R   0.440740 0.272900 0.045880 -0.636925
O50   O     O_R   0.559260 0.727100 0.954120 -0.637583
O51   O     O_R   0.559260 0.272900 0.954120 -0.636980
O52   O     O_R   0.440740 0.727100 0.045880 -0.637638
C1    C     C_R   0.900287 0.749952 0.999986 0.819738
C2    C     C_R   0.099713 0.250048 0.000014 0.819739
C3    C     C_R   0.099710 0.749954 0.000011 0.819072
C4    C     C_R   0.900290 0.250046 0.999989 0.819071
C5    C     C_R   0.400287 0.249952 0.999986 0.819429
C6    C     C_R   0.599713 0.750048 0.000014 0.819416
C7    C     C_R   0.599710 0.249953 0.000011 0.819351
C8    C     C_R   0.400290 0.750047 0.999989 0.819336
C9    C     C_R   0.105461 0.749409 0.211767 0.865576
C10   C     C_R   0.894538 0.250590 0.788233 0.865560
C11   C     C_R   0.894532 0.749411 0.788231 0.865505
C12   C     C_R   0.105469 0.250588 0.211770 0.865486
C13   C     C_R   0.605464 0.249411 0.211768 0.865345
C14   C     C_R   0.394534 0.750586 0.788232 0.865707
C15   C     C_R   0.394533 0.249409 0.788231 0.865385
C16   C     C_R   0.605469 0.750588 0.211769 0.865746
C17   C     C_R   1.000000 0.855922 0.000000 0.812935
C18   C     C_R   0.000000 0.144078 0.999999 0.812956
C19   C     C_R   0.500000 0.355922 0.000000 0.812985
C20   C     C_R   0.500000 0.644078 0.999999 0.812931
C21   C     C_R   0.999988 0.644043 0.000027 0.842665
C22   C     C_R   0.000012 0.355957 0.999973 0.842626
C23   C     C_R   0.499997 0.144042 0.999998 0.843724
C24   C     C_R   0.500003 0.855953 0.000002 0.842058
C25   C     C_R   0.047941 0.418622 0.058243 -0.122973
C26   C     C_R   0.952059 0.581378 0.941758 -0.122961
C27   C     C_R   0.952350 0.418615 0.940342 -0.124719
C28   C     C_R   0.047650 0.581385 0.059658 -0.124708
C29   C     C_R   0.452166 0.918601 0.941227 -0.122260
C30   C     C_R   0.548011 0.081377 0.057959 -0.125414
C31   C     C_R   0.547844 0.918613 0.058776 -0.122303
C32   C     C_R   0.451979 0.081365 0.942041 -0.125457
C33   C     C_R   0.000092 0.398400 0.999487 -0.098677
C34   C     C_R   0.999907 0.601600 0.000513 -0.098675
C35   C     C_R   0.500006 0.898391 0.000002 -0.099268
C36   C     C_R   0.499994 0.101595 0.999998 -0.096640
C37   C     C_R   0.951700 0.459214 0.938813 -0.034086
C38   C     C_R   0.048300 0.540786 0.061187 -0.034084
C39   C     C_R   0.048826 0.459219 0.058944 -0.035161
C40   C     C_R   0.951174 0.540781 0.941057 -0.035158
C41   C     C_R   0.548786 0.959205 0.059123 -0.035587
C42   C     C_R   0.451369 0.040776 0.940198 -0.034607
C43   C     C_R   0.451219 0.959193 0.940879 -0.035614
C44   C     C_R   0.548625 0.040789 0.059803 -0.034629
C45   C     C_R   0.000149 0.479637 0.999370 -0.000101
C46   C     C_R   0.999851 0.520363 0.000631 -0.000102
C47   C     C_R   0.500001 0.979622 0.000001 -0.000316
C48   C     C_R   0.499998 0.020359 0.000001 0.000855
C49   C     C_R   0.903334 0.479638 0.879140 0.197800
C50   C     C_R   0.096665 0.520362 0.120861 0.197801
C51   C     C_R   0.097061 0.479639 0.119198 0.202913
C52   C     C_R   0.902939 0.520361 0.880803 0.202915
C53   C     C_R   0.597264 0.979635 0.118333 0.203285
C54   C     C_R   0.402948 0.020349 0.880719 0.198307
C55   C     C_R   0.402738 0.979610 0.881669 0.203279
C56   C     C_R   0.597049 0.020374 0.119283 0.198296
H1    H     H_    0.084213 0.402359 0.104308 0.223917
H2    H     H_    0.915787 0.597641 0.895692 0.223914
H3    H     H_    0.915662 0.402348 0.895919 0.221651
H4    H     H_    0.084338 0.597652 0.104081 0.221646
H5    H     H_    0.415826 0.902335 0.895370 0.224095
H6    H     H_    0.584844 0.097629 0.101690 0.220999
H7    H     H_    0.584184 0.902355 0.104632 0.224075
H8    H     H_    0.415145 0.097609 0.898309 0.220982
C57   C     C_3   0.752415 0.214637 0.980042 -0.158031
C58   C     C_3   0.248196 0.785187 0.021175 -0.157749
C59   C     C_3   0.247340 0.214576 0.019483 -0.158405
C60   C     C_3   0.752034 0.785248 0.979270 -0.158114
C61   C     C_3   0.251805 0.714817 0.978826 -0.158628
C62   C     C_3   0.747584 0.285361 0.019957 -0.158212
C63   C     C_3   0.747966 0.714752 0.020730 -0.158065
C64   C     C_3   0.252661 0.285426 0.980519 -0.157627
C65   C     C_3   0.201758 0.741548 0.928486 -0.156099
C66   C     C_3   0.798090 0.259070 0.071213 -0.155953
C67   C     C_3   0.798187 0.741328 0.071406 -0.155837
C68   C     C_3   0.201973 0.259302 0.928912 -0.155670
C69   C     C_3   0.701909 0.240929 0.928786 -0.155783
C70   C     C_3   0.298243 0.758457 0.071516 -0.155652
C71   C     C_3   0.298028 0.240699 0.071089 -0.156177
C72   C     C_3   0.701813 0.758672 0.928595 -0.156032
H9    H     H_    0.161590 0.734599 0.869729 0.149598
H10   H     H_    0.838133 0.266524 0.129721 0.149264
H11   H     H_    0.838310 0.734200 0.130072 0.149956
H12   H     H_    0.161982 0.266947 0.870506 0.149633
H13   H     H_    0.661866 0.233474 0.870277 0.149373
H14   H     H_    0.338411 0.765406 0.130272 0.149555
H15   H     H_    0.338019 0.233055 0.129495 0.149599
H16   H     H_    0.661690 0.765800 0.869929 0.149787
H17   H     H_    0.754930 0.185583 0.963642 0.147590
H18   H     H_    0.246183 0.814095 0.038576 0.147954
H19   H     H_    0.244624 0.185470 0.035493 0.147707
H20   H     H_    0.754236 0.814207 0.962234 0.148073
H21   H     H_    0.253818 0.685910 0.961425 0.147574
H22   H     H_    0.745070 0.314415 0.036357 0.147498
H23   H     H_    0.745764 0.685793 0.037766 0.148079
H24   H     H_    0.255377 0.314531 0.964509 0.148012
H25   H     H_    0.726183 0.297970 0.906527 0.154883
H26   H     H_    0.272981 0.701233 0.091804 0.154956
H27   H     H_    0.274152 0.297669 0.094118 0.156340
H28   H     H_    0.726698 0.701508 0.907579 0.156437
H29   H     H_    0.227020 0.798772 0.908197 0.156504
H30   H     H_    0.773816 0.202029 0.093472 0.155010
H31   H     H_    0.773302 0.798492 0.092422 0.156570
H32   H     H_    0.225848 0.202332 0.905883 0.155083
C73   C     C_1   0.139500 0.749920 0.000091 -0.117798
C74   C     C_1   0.860500 0.250080 0.999910 -0.117884
C75   C     C_1   0.860495 0.749915 0.999903 -0.115888
C76   C     C_1   0.139504 0.250085 0.000097 -0.115974
C77   C     C_1   0.639500 0.249919 0.000089 -0.117748
C78   C     C_1   0.360501 0.750081 0.999911 -0.115895
C79   C     C_1   0.360496 0.249916 0.999903 -0.117733
C80   C     C_1   0.639505 0.750085 0.000097 -0.115882
C81   C     C_3   0.262908 0.723230 0.050398 -0.148504
C82   C     C_3   0.736633 0.276333 0.948686 -0.148431
C83   C     C_3   0.736915 0.723380 0.949264 -0.147038
C84   C     C_3   0.263551 0.276169 0.051669 -0.146973
C85   C     C_3   0.763366 0.223665 0.051313 -0.148251
C86   C     C_3   0.237093 0.776775 0.949603 -0.146784
C87   C     C_3   0.236449 0.223832 0.948333 -0.148413
C88   C     C_3   0.763085 0.776620 0.050737 -0.146941
C89   C     C_3   0.213518 0.749960 0.000058 0.182914
C90   C     C_3   0.786482 0.250041 0.999942 0.183346
C91   C     C_3   0.786480 0.749955 0.999939 0.182327
C92   C     C_3   0.213520 0.250045 0.000062 0.182762
C93   C     C_3   0.713517 0.249957 0.000057 0.183345
C94   C     C_3   0.286483 0.750045 0.999943 0.182801
C95   C     C_3   0.286481 0.249956 0.999940 0.182859
C96   C     C_3   0.713520 0.750045 0.000062 0.182320
C97   C     C_1   0.172939 0.749925 0.000099 -0.061489
C98   C     C_1   0.827061 0.250076 0.999901 -0.061770
C99   C     C_1   0.827057 0.749919 0.999894 -0.059943
C100  C     C_1   0.172943 0.250081 0.000107 -0.060224
C101  C     C_1   0.672939 0.249923 0.000098 -0.061597
C102  C     C_1   0.327062 0.750078 0.999902 -0.060301
C103  C     C_1   0.327057 0.249920 0.999895 -0.061316
C104  C     C_1   0.672944 0.750081 0.000107 -0.060020
C105  C     C_R   0.659251 0.717369 0.336587 -0.292041
C106  C     C_R   0.340771 0.282618 0.663413 -0.291255
C107  C     C_R   0.340726 0.717359 0.663396 -0.291885
C108  C     C_R   0.659252 0.282628 0.336603 -0.291099
C109  C     C_R   0.159244 0.217369 0.336587 -0.291973
C110  C     C_R   0.840749 0.782629 0.663413 -0.292016
C111  C     C_R   0.840753 0.217377 0.663397 -0.291121
C112  C     C_R   0.159254 0.782621 0.336603 -0.291164
C113  C     C_R   0.647213 0.751688 0.296659 -0.151937
C114  C     C_R   0.352792 0.248304 0.703342 -0.152198
C115  C     C_R   0.352791 0.751682 0.703341 -0.151916
C116  C     C_R   0.647203 0.248310 0.296658 -0.152177
C117  C     C_R   0.147217 0.251686 0.296660 -0.151962
C118  C     C_R   0.852787 0.748311 0.703341 -0.151930
C119  C     C_R   0.852802 0.251694 0.703344 -0.152225
C120  C     C_R   0.147194 0.748303 0.296655 -0.152194
C121  C     C_R   0.675884 0.786171 0.337843 0.258607
C122  C     C_R   0.324108 0.213824 0.662158 0.254218
C123  C     C_R   0.324142 0.786166 0.662174 0.258638
C124  C     C_R   0.675866 0.213829 0.337825 0.254244
C125  C     C_R   0.175902 0.286164 0.337846 0.258500
C126  C     C_R   0.824117 0.713828 0.662157 0.258504
C127  C     C_R   0.824145 0.286178 0.662178 0.254309
C128  C     C_R   0.175837 0.713815 0.337818 0.254310
C129  C     C_R   0.717255 0.785589 0.419570 -0.016020
C130  C     C_R   0.282740 0.214405 0.580430 -0.015709
C131  C     C_R   0.282763 0.785582 0.580447 -0.015993
C132  C     C_R   0.717241 0.214412 0.419553 -0.015682
C133  C     C_R   0.217276 0.285580 0.419572 -0.016079
C134  C     C_R   0.782745 0.714410 0.580430 -0.016089
C135  C     C_R   0.782770 0.285595 0.580450 -0.015746
C136  C     C_R   0.217209 0.714395 0.419547 -0.015756
C137  C     C_R   0.729387 0.750513 0.459152 0.046841
C138  C     C_R   0.270623 0.249478 0.540849 0.047212
C139  C     C_R   0.270602 0.750502 0.540846 0.046664
C140  C     C_R   0.729388 0.249489 0.459153 0.047036
C141  C     C_R   0.229396 0.250506 0.459153 0.046651
C142  C     C_R   0.770613 0.749486 0.540848 0.046842
C143  C     C_R   0.770622 0.250518 0.540849 0.047020
C144  C     C_R   0.229369 0.749475 0.459150 0.047212
C145  C     C_R   0.700229 0.716452 0.417256 0.120520
C146  C     C_R   0.299795 0.283535 0.582745 0.120523
C147  C     C_R   0.299739 0.716440 0.582725 0.120418
C148  C     C_R   0.700237 0.283547 0.417273 0.120421
C149  C     C_R   0.200224 0.216450 0.417256 0.120453
C150  C     C_R   0.799771 0.783546 0.582744 0.120534
C151  C     C_R   0.799770 0.216459 0.582728 0.120516
C152  C     C_R   0.200234 0.783537 0.417272 0.120596
C153  C     C_R   0.746279 0.819352 0.462795 -0.130892
C154  C     C_R   0.253703 0.180646 0.537204 -0.130350
C155  C     C_R   0.253760 0.819346 0.537239 -0.130845
C156  C     C_R   0.746257 0.180651 0.462762 -0.130304
C157  C     C_R   0.246315 0.319339 0.462799 -0.130824
C158  C     C_R   0.753722 0.680647 0.537205 -0.130832
C159  C     C_R   0.753755 0.319356 0.537241 -0.129996
C160  C     C_R   0.246209 0.680630 0.462756 -0.130004
C161  C     C_R   0.787278 0.818232 0.543459 -0.200436
C162  C     C_R   0.212705 0.181766 0.456540 -0.200756
C163  C     C_R   0.212755 0.818226 0.456575 -0.200633
C164  C     C_R   0.787262 0.181773 0.543426 -0.200953
C165  C     C_R   0.287315 0.318218 0.543462 -0.200709
C166  C     C_R   0.712723 0.681767 0.456541 -0.200447
C167  C     C_R   0.712748 0.318234 0.456576 -0.200904
C168  C     C_R   0.287214 0.681751 0.543421 -0.200641
H33   H     H_    0.637288 0.690994 0.304543 0.176171
H34   H     H_    0.362744 0.308991 0.695455 0.176033
H35   H     H_    0.362673 0.690983 0.695428 0.176172
H36   H     H_    0.637296 0.309002 0.304573 0.176033
H37   H     H_    0.137270 0.190997 0.304542 0.176188
H38   H     H_    0.862712 0.809005 0.695456 0.176181
H39   H     H_    0.862707 0.191002 0.695427 0.176000
H40   H     H_    0.137310 0.808999 0.304575 0.175994
H41   H     H_    0.737563 0.846894 0.434865 0.208557
H42   H     H_    0.262409 0.153106 0.565134 0.210025
H43   H     H_    0.262499 0.846891 0.565182 0.208566
H44   H     H_    0.737529 0.153108 0.434819 0.210036
H45   H     H_    0.237609 0.346879 0.434870 0.208726
H46   H     H_    0.762438 0.653105 0.565135 0.208717
H47   H     H_    0.762485 0.346900 0.565183 0.210304
H48   H     H_    0.237469 0.653085 0.434812 0.210296
H49   H     H_    0.809154 0.844642 0.575218 0.158029
H50   H     H_    0.190818 0.155359 0.424779 0.158208
H51   H     H_    0.190896 0.844637 0.424830 0.158048
H52   H     H_    0.809131 0.155364 0.575172 0.158227
H53   H     H_    0.309203 0.344625 0.575222 0.158084
H54   H     H_    0.690847 0.655357 0.424782 0.158070
H55   H     H_    0.690878 0.344643 0.424829 0.158323
H56   H     H_    0.309073 0.655339 0.575167 0.158309
C169  C     C_R   0.997903 0.081184 0.949096 -0.246672
C170  C     C_R   0.002097 0.918816 0.050904 -0.246636
C171  C     C_R   0.002098 0.081187 0.050902 -0.246636
C172  C     C_R   0.997903 0.918813 0.949098 -0.246600
C173  C     C_R   0.497902 0.581183 0.949096 -0.246597
C174  C     C_R   0.502098 0.418816 0.050904 -0.246607
C175  C     C_R   0.502098 0.581187 0.050903 -0.246654
C176  C     C_R   0.497902 0.418813 0.949097 -0.246665
C177  C     C_R   0.000000 0.101552 0.999999 -0.044778
C178  C     C_R   1.000000 0.898448 0.000001 -0.044798
C179  C     C_R   0.500000 0.601552 0.999999 -0.044747
C180  C     C_R   0.500000 0.398448 0.000001 -0.044814
C181  C     C_R   0.002118 0.040709 0.051261 0.107566
C182  C     C_R   0.997882 0.959291 0.948739 0.107550
C183  C     C_R   0.997882 0.040705 0.948739 0.107581
C184  C     C_R   0.002118 0.959295 0.051262 0.107564
C185  C     C_R   0.502118 0.540709 0.051261 0.107576
C186  C     C_R   0.497882 0.459291 0.948739 0.107586
C187  C     C_R   0.497882 0.540705 0.948738 0.107567
C188  C     C_R   0.502118 0.459295 0.051262 0.107577
C189  C     C_R   0.000000 0.020366 1.000000 0.064307
C190  C     C_R   1.000000 0.979634 0.000000 0.064298
C191  C     C_R   0.500000 0.520366 1.000000 0.064303
C192  C     C_R   0.500000 0.479634 0.000000 0.064307
C193  C     C_R   0.004221 0.020237 0.101990 -0.202738
C194  C     C_R   0.995779 0.979763 0.898010 -0.202691
C195  C     C_R   0.995779 0.020231 0.898009 -0.202738
C196  C     C_R   0.004221 0.979769 0.101990 -0.202690
C197  C     C_R   0.504222 0.520237 0.101991 -0.202743
C198  C     C_R   0.495778 0.479763 0.898009 -0.202753
C199  C     C_R   0.495778 0.520231 0.898008 -0.202672
C200  C     C_R   0.504222 0.479769 0.101992 -0.202683
H57   H     H_    0.996263 0.096787 0.909672 0.169341
H58   H     H_    0.003737 0.903213 0.090328 0.169383
H59   H     H_    0.003738 0.096792 0.090326 0.169355
H60   H     H_    0.996262 0.903208 0.909674 0.169397
H61   H     H_    0.496262 0.596787 0.909671 0.169381
H62   H     H_    0.503738 0.403213 0.090329 0.169369
H63   H     H_    0.503739 0.596792 0.090327 0.169352
H64   H     H_    0.496261 0.403208 0.909673 0.169340
H65   H     H_    0.005864 0.035524 0.141638 0.156293
H66   H     H_    0.994136 0.964476 0.858362 0.156340
H67   H     H_    0.994136 0.035515 0.858362 0.156294
H68   H     H_    0.005864 0.964485 0.141638 0.156341
H69   H     H_    0.505865 0.535524 0.141639 0.156277
H70   H     H_    0.494135 0.464476 0.858361 0.156275
H71   H     H_    0.494135 0.535515 0.858360 0.156318
H72   H     H_    0.505865 0.464485 0.141640 0.156316
N1    N     N_R   0.854151 0.459222 0.817078 0.228492
O53   O     O_R   0.812259 0.464507 0.803870 -0.301687
O54   O     O_R   0.849669 0.438233 0.769271 -0.308879
N2    N     N_R   0.145849 0.540778 0.182924 0.228490
O55   O     O_R   0.187742 0.535492 0.196134 -0.301692
O56   O     O_R   0.150329 0.561767 0.230730 -0.308865
N3    N     N_R   0.146569 0.459209 0.179859 0.236247
O57   O     O_R   0.173034 0.464239 0.251896 -0.286530
O58   O     O_R   0.167729 0.438438 0.163777 -0.337168
N4    N     N_R   0.853430 0.540790 0.820142 0.236249
O59   O     O_R   0.826965 0.535761 0.748105 -0.286522
O60   O     O_R   0.832271 0.561562 0.836225 -0.337183
N5    N     N_R   0.646868 0.959214 0.178600 0.236179
O61   O     O_R   0.674142 0.964642 0.250900 -0.286181
O62   O     O_R   0.667333 0.938097 0.161780 -0.337837
N6    N     N_R   0.353533 0.040768 0.819581 0.228146
O63   O     O_R   0.312200 0.035174 0.807604 -0.302176
O64   O     O_R   0.348217 0.062034 0.771264 -0.308672
N7    N     N_R   0.353136 0.959175 0.821402 0.236185
O65   O     O_R   0.325864 0.964595 0.749103 -0.286172
O66   O     O_R   0.332672 0.938053 0.838222 -0.337838
N8    N     N_R   0.646461 0.040806 0.180422 0.228146
O67   O     O_R   0.687796 0.035225 0.192401 -0.302181
O68   O     O_R   0.651773 0.062074 0.228738 -0.308645
N9    N     N_R   0.661932 0.821771 0.296877 0.209678
O69   O     O_R   0.614550 0.836992 0.254511 -0.385932
O70   O     O_R   0.695474 0.837837 0.298471 -0.342917
N10   N     N_R   0.338029 0.178228 0.703122 0.212630
O71   O     O_R   0.385393 0.162978 0.745476 -0.374830
O72   O     O_R   0.304465 0.162186 0.701506 -0.338469
N11   N     N_R   0.338123 0.821770 0.703156 0.209658
O73   O     O_R   0.385518 0.836978 0.745531 -0.385990
O74   O     O_R   0.304596 0.837848 0.701578 -0.342854
N12   N     N_R   0.661916 0.178229 0.296844 0.212616
O75   O     O_R   0.614538 0.162991 0.254481 -0.374895
O76   O     O_R   0.695464 0.162174 0.298446 -0.338387
N13   N     N_R   0.161961 0.321764 0.296884 0.209828
O77   O     O_R   0.114589 0.336998 0.254537 -0.386419
O78   O     O_R   0.195504 0.337817 0.298467 -0.342672
N14   N     N_R   0.838069 0.678227 0.703124 0.209827
O79   O     O_R   0.885450 0.663007 0.745488 -0.386384
O80   O     O_R   0.804525 0.662161 0.701527 -0.342684
N15   N     N_R   0.838101 0.321778 0.703162 0.212708
O81   O     O_R   0.885484 0.337008 0.745536 -0.373914
O82   O     O_R   0.804553 0.337841 0.701553 -0.338863
N16   N     N_R   0.161870 0.678214 0.296831 0.212709
O83   O     O_R   0.114478 0.662997 0.254439 -0.373884
O84   O     O_R   0.195419 0.662138 0.298453 -0.338863

loop_
_geom_bond_atom_site_label_1
_geom_bond_atom_site_label_2
_geom_bond_distance
_ccdc_geom_bond_type
C31   C35   1.396303 A    
C28   C34   1.396275 A    
Zn8   O10   1.910067 S    
C40   C52   1.412581 A    
C186  C192  1.410981 A    
C51   N3    1.436098 S    
C20   C179  1.466305 S    
C137  C142  1.409121 A    
C44   C56   1.412587 A    
C105  C145  1.391443 A    
O42   C14   1.274927 A    
C169  C183  1.395718 A    
C13   C116  1.464497 S    
C95   C103  1.459322 S    
C153  C161  1.391544 A    
C32   C36   1.396438 A    
C93   C101  1.459338 S    
O46   C2    1.282849 A    
O24   C18   1.279532 A    
Zn6   O42   1.945220 S    
C39   C45   1.417350 A    
C50   N2    1.436305 S    
C114  C122  1.414601 A    
C152  C163  1.398626 A    
C174  C188  1.395718 A    
C175  C185  1.395712 A    
C168  H56   1.083909 S    
C146  C165  1.398628 A    
C71   H15   1.110106 S    
Zn16  O28   1.944571 S    
Zn4   O2    1.941259 S    
C106  C114  1.398713 A    
C67   H11   1.110104 S    
Zn4   O40   1.945295 S    
C165  H53   1.083911 S    
O33   C23   1.276240 A    
O11   C7    1.283078 A    
Zn7   O43   1.945295 S    
N10   O71   1.301104 A    
N5    O62   1.301160 A    
C161  H49   1.083911 S    
O25   C19   1.279543 A    
C174  H62   1.084234 S    
C163  H51   1.083912 S    
C182  C190  1.410981 A    
C157  C165  1.391534 A    
C184  C196  1.402093 A    
C25   C33   1.396414 A    
C125  N13   1.435895 S    
C112  C120  1.398703 A    
C130  C154  1.407307 A    
Zn12  O24   1.944571 S    
C193  C196  1.395338 A    
N16   O84   1.301065 A    
C116  C124  1.414600 A    
Zn13  O17   1.943748 S    
C10   C119  1.464484 S    
O16   C12   1.278742 A    
Zn10  O14   1.943748 S    
C70   H14   1.110105 S    
Zn16  O4    1.945195 S    
C137  C145  1.409573 A    
C62   H22   1.110108 S    
C135  C143  1.416117 A    
C29   C35   1.396319 A    
O30   C22   1.276018 A    
C155  C163  1.391535 A    
Zn7   O3    1.941263 S    
C156  C164  1.391543 A    
C124  C132  1.409410 A    
C57   C69   1.548946 S    
C70   C94   1.535517 S    
O23   C17   1.279532 A    
C129  C137  1.416107 A    
N15   O81   1.301104 A    
C42   C48   1.417426 A    
C195  H67   1.083639 S    
C55   N7    1.436093 S    
C62   C93   1.535517 S    
C89   C97   1.459336 S    
C134  C158  1.407305 A    
C70   C81   1.548952 S    
C107  C147  1.391474 A    
C187  C199  1.402095 A    
C32   H8    1.081683 S    
Zn10  O22   1.944605 S    
C54   N6    1.436250 S    
C109  C117  1.398724 A    
N9    O69   1.301102 A    
C61   H21   1.110106 S    
C41   C53   1.412549 A    
Zn10  O2    1.945128 S    
H30   C85   1.110106 S    
Zn3   O1    1.941263 S    
Zn8   O34   1.944055 S    
C92   C100  1.459321 S    
N4    O59   1.301043 A    
C62   C82   1.548951 S    
C59   C92   1.535518 S    
C14   C115  1.464499 S    
C3    C73   1.428820 S    
C170  C184  1.395718 A    
C26   C34   1.396414 A    
C187  C191  1.410983 A    
N7    O65   1.301043 A    
C67   C91   1.535514 S    
Zn5   O35   1.943920 S    
C1    C75   1.428809 S    
Zn6   O36   1.943921 S    
C2    C76   1.428806 S    
C118  C126  1.414575 A    
Zn8   O44   1.945295 S    
N14   O79   1.301103 A    
C31   C41   1.399923 A    
C186  C198  1.402100 A    
C169  H57   1.084234 S    
C58   C86   1.548950 S    
C185  C191  1.410983 A    
C22   C33   1.463520 S    
C172  C178  1.404133 A    
C120  C128  1.414613 A    
O22   C18   1.279543 A    
Zn9   O45   1.907688 S    
C122  N10   1.435910 S    
Zn11  O47   1.907761 S    
Zn12  O48   1.907755 S    
C61   C81   1.548951 S    
N8    O67   1.301042 A    
C40   C46   1.417349 A    
C47   C48   1.404637 A    
O50   C6    1.282849 A    
Zn1   O37   1.945220 S    
N12   O75   1.301100 A    
Zn5   O11   1.910031 S    
C63   C67   1.548943 S    
C107  H35   1.085000 S    
C108  H36   1.085000 S    
C160  C168  1.391564 A    
C57   C85   1.548951 S    
O35   C23   1.276205 A    
H28   C83   1.110106 S    
O32   C22   1.276383 A    
C60   C88   1.548951 S    
C126  N14   1.435894 S    
C113  C121  1.414573 A    
C7    C77   1.428822 S    
C59   C87   1.548949 S    
N12   O76   1.301062 A    
N1    O54   1.301219 A    
C136  C160  1.407310 A    
C143  C151  1.409571 A    
C73   C97   1.201807 T    
C164  H52   1.083911 S    
C115  C123  1.414575 A    
C12   C117  1.464486 S    
C52   N4    1.436099 S    
O5    C1    1.282978 A    
C108  C148  1.391457 A    
C198  H70   1.083638 S    
Zn4   O6    1.910067 S    
H27   C84   1.110107 S    
C197  C200  1.395338 A    
Zn15  O51   1.907761 S    
C66   C90   1.535518 S    
N6    O64   1.301222 A    
C26   H2    1.081757 S    
C166  H54   1.083910 S    
C75   C99   1.201794 T    
C60   C72   1.548943 S    
C153  H41   1.081604 S    
C134  C142  1.416108 A    
C58   H18   1.110106 S    
C79   C103  1.201796 T    
C59   C71   1.548944 S    
C182  C194  1.402100 A    
C77   C101  1.201801 T    
O51   C7    1.282955 A    
C169  C177  1.404125 A    
C158  C166  1.391544 A    
C44   C48   1.417408 A    
C15   C114  1.464474 S    
C131  C155  1.407304 A    
C16   C113  1.464477 S    
O8    C4    1.283080 A    
Zn9   O1    1.945128 S    
C66   C85   1.548954 S    
C61   C94   1.535519 S    
C162  H50   1.083910 S    
C86   C94   1.535478 S    
Zn14  O18   1.943748 S    
Zn13  O25   1.944605 S    
C64   H24   1.110106 S    
C111  C119  1.398714 A    
Zn1   O1    1.941528 S    
C126  C134  1.409406 A    
C30   C44   1.399888 A    
C63   H23   1.110108 S    
Zn15  O27   1.944571 S    
C68   H12   1.110108 S    
Zn16  O20   1.943655 S    
C72   C83   1.548955 S    
C110  H38   1.085001 S    
C17   C178  1.466305 S    
O9    C5    1.282980 A    
C64   C95   1.535520 S    
C128  N16   1.435930 S    
N13   O78   1.301068 A    
C130  C138  1.416112 A    
C60   H20   1.110105 S    
O13   C9    1.278824 A    
N2    O55   1.301041 A    
C154  C162  1.391550 A    
C171  H59   1.084232 S    
C65   C86   1.548954 S    
O18   C14   1.278806 A    
O6    C2    1.282977 A    
C38   C50   1.412550 A    
C27   C33   1.396274 A    
C117  C125  1.414572 A    
C68   C87   1.548951 S    
C71   C84   1.548956 S    
C32   C42   1.399909 A    
C67   C88   1.548953 S    
C56   N8    1.436250 S    
N10   O72   1.301061 A    
N5    O61   1.301044 A    
C148  C167  1.398638 A    
Zn15  O3    1.945195 S    
C138  C141  1.409121 A    
C64   C84   1.548949 S    
H31   C88   1.110108 S    
H25   C82   1.110105 S    
C58   C89   1.535522 S    
C106  C146  1.391425 A    
O43   C15   1.274851 A    
H29   C86   1.110107 S    
C8    C78   1.428819 S    
C29   C43   1.399905 A    
H32   C87   1.110108 S    
N11   O73   1.301102 A    
C94   C102  1.459334 S    
C181  C189  1.410981 A    
C28   H4    1.081701 S    
C139  C147  1.409573 A    
C39   C51   1.412581 A    
C160  H48   1.081613 S    
C81   C89   1.535478 S    
C121  N9    1.435893 S    
C84   C92   1.535477 S    
C183  C189  1.410983 A    
C4    C74   1.428820 S    
C149  C162  1.398640 A    
C112  C152  1.391434 A    
O29   C21   1.276018 A    
C69   C93   1.535514 S    
C171  C177  1.404131 A    
C155  H43   1.081604 S    
C198  C199  1.395338 A    
C105  C113  1.398715 A    
C191  C192  1.404434 A    
C37   C49   1.412550 A    
Zn10  O46   1.907694 S    
C76   C100  1.201794 T    
C58   C70   1.548945 S    
C124  N12   1.435919 S    
C123  C131  1.409401 A    
C57   C90   1.535517 S    
C175  H63   1.084232 S    
Zn13  O3    1.945128 S    
C60   C91   1.535520 S    
C43   C55   1.412554 A    
C142  C150  1.409572 A    
Zn14  O4    1.945128 S    
C65   C89   1.535517 S    
C62   C66   1.548944 S    
C49   C52   1.405123 A    
C85   C93   1.535480 S    
N3    O57   1.301041 A    
O19   C15   1.278754 A    
Zn1   O31   1.943920 S    
Zn4   O30   1.944055 S    
C68   C92   1.535514 S    
Zn2   O32   1.943921 S    
C188  C200  1.402095 A    
Zn3   O29   1.944056 S    
C140  C143  1.409135 A    
C123  N11   1.435897 S    
C200  H72   1.083637 S    
C157  H45   1.081606 S    
O37   C9    1.274901 A    
O7    C3    1.283080 A    
O39   C11   1.274868 A    
C138  C146  1.409566 A    
C107  C115  1.398725 A    
C173  C179  1.404125 A    
C141  C149  1.409570 A    
C158  H46   1.081605 S    
N4    O60   1.301137 A    
C184  C190  1.410986 A    
C171  C181  1.395712 A    
O31   C21   1.276383 A    
Zn2   O38   1.945220 S    
O36   C24   1.276121 A    
O52   C8    1.282957 A    
O12   C8    1.283076 A    
C63   C96   1.535518 S    
C90   C98   1.459336 S    
N14   O80   1.301068 A    
C45   C46   1.404806 A    
C37   C45   1.417501 A    
C61   C65   1.548945 S    
Zn11  O1    1.945195 S    
C127  N15   1.435928 S    
C172  H60   1.084230 S    
C194  H66   1.083636 S    
C64   C68   1.548944 S    
C80   C104  1.201796 T    
O40   C12   1.274871 A    
Zn5   O3    1.941528 S    
Zn6   O4    1.941532 S    
Zn7   O9    1.910067 S    
Zn5   O41   1.945220 S    
C125  C133  1.409397 A    
C66   H10   1.110105 S    
C167  H55   1.083908 S    
N16   O83   1.301103 A    
C42   C54   1.412580 A    
C49   N1    1.436304 S    
C154  H42   1.081608 S    
C189  C190  1.404434 A    
N8    O68   1.301225 A    
C159  H47   1.081610 S    
C25   H1    1.081757 S    
C170  C178  1.404127 A    
C159  C167  1.391554 A    
C173  H61   1.084234 S    
C27   H3    1.081703 S    
C135  C159  1.407309 A    
C121  C129  1.409404 A    
C140  C148  1.409571 A    
C72   H16   1.110105 S    
C119  C127  1.414609 A    
C175  C179  1.404131 A    
C176  C180  1.404129 A    
C109  C149  1.391449 A    
O38   C10   1.274902 A    
C170  H58   1.084232 S    
C199  H71   1.083639 S    
C21   C34   1.463517 S    
Zn2   O2    1.941532 S    
C145  C166  1.398631 A    
C132  C156  1.407307 A    
C23   C36   1.463577 S    
C65   H9    1.110104 S    
Zn13  O49   1.907688 S    
N1    O53   1.301044 A    
C26   C40   1.399997 A    
Zn8   O4    1.941259 S    
C38   C46   1.417501 A    
C183  C195  1.402095 A    
C111  H39   1.085002 S    
O21   C17   1.279543 A    
C91   C99   1.459321 S    
N9    O70   1.301065 A    
C172  C182  1.395712 A    
O49   C5    1.282849 A    
C131  C139  1.416110 A    
C176  H64   1.084232 S    
C50   C51   1.405124 A    
C173  C187  1.395718 A    
C53   C56   1.405017 A    
C27   C37   1.400119 A    
C24   C35   1.463267 S    
C72   C96   1.535514 S    
C193  H65   1.083638 S    
N11   O74   1.301067 A    
C71   C95   1.535512 S    
C139  C144  1.409135 A    
Zn16  O52   1.907755 S    
C185  C197  1.402097 A    
C57   H17   1.110106 S    
Zn9   O13   1.943748 S    
C151  C164  1.398631 A    
Zn14  O26   1.944605 S    
C69   H13   1.110105 S    
Zn11  O15   1.943655 S    
C108  C116  1.398722 A    
Zn12  O16   1.943655 S    
C19   C180  1.466305 S    
C196  H68   1.083639 S    
C30   H6    1.081683 S    
H26   C81   1.110107 S    
Zn3   O39   1.945295 S    
Zn15  O19   1.943655 S    
C82   C90   1.535480 S    
C112  H40   1.085003 S    
Zn6   O12   1.910031 S    
C74   C98   1.201805 T    
C181  C193  1.402100 A    
C53   N5    1.436094 S    
Zn7   O33   1.944056 S    
C11   C118  1.464476 S    
C133  C157  1.407301 A    
C69   C82   1.548956 S    
C188  C192  1.410983 A    
C5    C79   1.428808 S    
N15   O82   1.301064 A    
C150  C161  1.398630 A    
C194  C195  1.395338 A    
N3    O58   1.301138 A    
C59   H19   1.110108 S    
C96   C104  1.459321 S    
C197  H69   1.083636 S    
C18   C177  1.466305 S    
Zn9   O21   1.944605 S    
Zn14  O50   1.907694 S    
N7    O66   1.301159 A    
C174  C180  1.404127 A    
Zn11  O23   1.944571 S    
C122  C130  1.409413 A    
N13   O77   1.301102 A    
C147  C168  1.398644 A    
C133  C141  1.416106 A    
N2    O56   1.301221 A    
Zn1   O7    1.910031 S    
C109  H37   1.084999 S    
C78   C102  1.201805 T    
Zn2   O8    1.910031 S    
O41   C13   1.274909 A    
Zn3   O5    1.910067 S    
O26   C20   1.279543 A    
C63   C83   1.548948 S    
O45   C1    1.282851 A    
C28   C38   1.400123 A    
O34   C24   1.276155 A    
C144  C152  1.409576 A    
C87   C95   1.535475 S    
C156  H44   1.081611 S    
O47   C3    1.282954 A    
C83   C91   1.535475 S    
C129  C153  1.407304 A    
C9    C120  1.464476 S    
O15   C11   1.278737 A    
C127  C135  1.409423 A    
C110  C118  1.398715 A    
C31   H7    1.081774 S    
O27   C19   1.279532 A    
C136  C144  1.416116 A    
C106  H34   1.085002 S    
C29   H5    1.081773 S    
C25   C39   1.399997 A    
O44   C16   1.274872 A    
O20   C16   1.278736 A    
C30   C36   1.396454 A    
N6    O63   1.301043 A    
O10   C6    1.282979 A    
C110  C150  1.391442 A    
O48   C4    1.282954 A    
C105  H33   1.085000 S    
C128  C136  1.409433 A    
C41   C47   1.417476 A    
O14   C10   1.278823 A    
C176  C186  1.395712 A    
C6    C80   1.428806 S    
C88   C96   1.535473 S    
Zn12  O2    1.945195 S    
C132  C140  1.416114 A    
C43   C47   1.417454 A    
C111  C151  1.391442 A    
C54   C55   1.405018 A    
O28   C20   1.279532 A    
O17   C13   1.278827 A    
