data_mof_unit_pretest_1487.cif
_audit_creation_date              2012-10-26T20:38:56-0400
_audit_creation_method            fapswitch 2.2
_symmetry_space_group_name_H-M    P1
_symmetry_Int_Tables_number       1
_space_group_crystal_system       triclinic
_cell_length_a                    23.491586
_cell_length_b                    12.999061
_cell_length_c                    11.768392
_cell_angle_alpha                 101.355315
_cell_angle_beta                  94.900883
_cell_angle_gamma                 91.849005
_cell_volume                      3506.0340126

loop_
_atom_site_label
_atom_site_type_symbol
_atom_type_description
_atom_site_fract_x
_atom_site_fract_y
_atom_site_fract_z
_atom_type_partial_charge
Br1   Br    Br    0.921129 0.381325 0.137057 -0.248900
Br2   Br    Br    0.078862 0.618256 0.862707 -0.254213
Br3   Br    Br    0.350474 0.711980 0.455824 -0.309513
Br4   Br    Br    0.649552 0.288408 0.545560 -0.297551
Br5   Br    Br    0.462454 0.826207 0.773298 -0.232695
Br6   Br    Br    0.539996 0.175094 0.228793 -0.297942
C1    C     C_R   0.500678 0.298707 0.476843 0.616650
C2    C     C_R   0.706121 0.583476 0.484471 0.198196
C3    C     C_R   0.234910 0.425056 0.513124 -0.076630
C4    C     C_R   0.765098 0.574561 0.486272 -0.071350
C5    C     C_R   0.209267 0.516712 0.496290 0.137617
C6    C     C_R   0.790723 0.482992 0.503459 0.138181
C7    C     C_R   0.498738 0.816139 0.538950 -0.001439
C8    C     C_R   0.501773 0.183956 0.461060 0.009113
C9    C     C_R   0.504620 0.008436 0.342782 0.234281
C10   C     C_R   0.496881 0.991834 0.657165 0.268708
C11   C     C_R   0.510941 0.118128 0.353993 0.178573
C12   C     C_R   0.499440 0.701325 0.523169 0.613399
C13   C     C_R   0.490349 0.882260 0.646351 0.199404
C14   C     C_R   0.493468 0.140232 0.557851 -0.087032
C15   C     C_R   0.507020 0.859692 0.441956 -0.088099
C16   C     C_R   0.390942 0.496881 0.498864 0.637391
C17   C     C_R   0.609062 0.503106 0.501137 0.635807
C18   C     C_R   0.498296 0.033472 0.554478 -0.031260
C19   C     C_R   0.502658 0.966585 0.445306 -0.026272
C20   C     C_R   0.439366 0.416270 0.015642 -0.071495
C21   C     C_R   0.560724 0.583540 0.984276 -0.088094
C22   C     C_R   0.444642 0.420798 0.136836 0.401734
C23   C     C_R   0.242836 0.603401 0.479115 0.308302
C24   C     C_R   0.555317 0.579297 0.863123 0.358894
C25   C     C_R   0.527872 0.533651 0.158448 0.051852
C26   C     C_R   0.472212 0.466150 0.841510 0.056123
C27   C     C_R   0.522329 0.529506 0.035991 -0.026424
C28   C     C_R   0.477777 0.470271 0.963953 -0.035090
C29   C     C_R   0.885170 0.515850 0.604721 0.459814
C30   C     C_R   0.114821 0.483767 0.395037 0.458848
C31   C     C_R   0.874720 0.453136 0.398842 0.468753
C32   C     C_R   0.125270 0.546486 0.600916 0.468563
C33   C     C_R   0.934710 0.459212 0.394013 0.043472
C34   C     C_R   0.757150 0.396501 0.521115 0.306966
C35   C     C_R   0.065281 0.540389 0.605747 0.043241
C36   C     C_R   0.969846 0.495408 0.499685 -0.056552
C37   C     C_R   0.030145 0.504189 0.500075 -0.056512
C38   C     C_R   0.944796 0.523277 0.605280 0.007006
C39   C     C_R   0.055196 0.476320 0.394480 0.007509
C40   C     C_R   0.961117 0.431781 0.288728 0.181876
C41   C     C_R   0.038874 0.567809 0.711034 0.181478
C42   C     C_R   0.020492 0.440636 0.290464 -0.061301
C43   C     C_R   0.979500 0.558952 0.709297 -0.060162
C44   C     C_R   0.302763 0.595226 0.479209 0.119354
C45   C     C_R   0.697236 0.404813 0.521217 0.119074
C46   C     C_R   0.328451 0.502085 0.497752 -0.009148
C47   C     C_R   0.671556 0.497845 0.502247 -0.010525
C48   C     C_R   0.293896 0.416252 0.515033 0.198601
Cu1   Cu    Cu3+1 0.504210 0.507730 0.615930 1.163143
Cu2   Cu    Cu3+1 0.495790 0.492270 0.384070 1.167109
H1    H     H_    0.437471 0.419460 0.787711 0.170406
H2    H     H_    0.483019 0.190811 0.636681 0.200936
H3    H     H_    0.613545 0.793609 0.945523 0.384014
H4    H     H_    0.321578 0.232814 0.095219 0.399584
H5    H     H_    0.214414 0.817258 0.327281 0.392752
H6    H     H_    0.785952 0.183600 0.674216 0.395470
H7    H     H_    0.386039 0.249448 0.651051 0.369730
H8    H     H_    0.613981 0.749881 0.348009 0.370068
H9    H     H_    0.429377 0.012149 0.127061 0.379263
H10   H     H_    0.549356 0.062545 0.966907 0.417616
H11   H     H_    0.562641 0.580267 0.212222 0.172034
H12   H     H_    0.404023 0.372061 0.960418 0.185402
H13   H     H_    0.596113 0.627705 0.039418 0.171163
H14   H     H_    0.039527 0.419072 0.208963 0.208240
H15   H     H_    0.960465 0.580510 0.790800 0.209741
H16   H     H_    0.207784 0.359464 0.524246 0.192900
H17   H     H_    0.792233 0.640019 0.474825 0.194213
H18   H     H_    0.517152 0.808824 0.363112 0.204298
N1    N     N_R   0.851723 0.481090 0.502822 -0.384479
N2    N     N_R   0.148268 0.518547 0.496933 -0.383483
N3    N     N_R   0.510550 0.519360 0.790130 -0.248783
N4    N     N_R   0.489450 0.480640 0.209870 -0.254037
O1    O     O_R   0.502990 0.354470 0.582000 -0.496953
O2    O     O_2   0.139429 0.456071 0.294641 -0.414955
O3    O     O_2   0.839155 0.420316 0.301507 -0.375409
O4    O     O_2   0.160835 0.579311 0.698251 -0.377689
O5    O     O_2   0.659253 0.572265 0.785072 -0.200023
O6    O     O_2   0.598520 0.703137 0.721080 -0.210524
O7    O     O_3   0.642994 0.740822 0.931588 -0.452488
O8    O     O_2   0.401769 0.296390 0.277640 -0.218337
O9    O     O_2   0.340987 0.429141 0.216310 -0.244995
O10   O     O_3   0.356487 0.260775 0.067756 -0.494555
O11   O     O_2   0.147372 0.716842 0.459787 -0.238371
O12   O     O_R   0.497010 0.645530 0.418000 -0.496506
O13   O     O_2   0.236381 0.810615 0.552570 -0.184680
O14   O     O_3   0.227015 0.745443 0.328381 -0.423271
O15   O     O_2   0.763302 0.189083 0.448682 -0.180894
O16   O     O_2   0.852551 0.282830 0.540065 -0.238730
O17   O     O_3   0.773282 0.255307 0.672727 -0.419416
O18   O     O_2   0.279669 0.238441 0.594537 -0.237946
O19   O     O_2   0.324895 0.226498 0.413646 -0.187731
O20   O     O_3   0.385091 0.307275 0.607388 -0.550020
O21   O     O_2   0.675496 0.773631 0.585421 -0.159049
O22   O     O_2   0.720326 0.760771 0.403984 -0.234440
O23   O     O_R   0.495870 0.341410 0.386200 -0.439875
O24   O     O_3   0.614862 0.692527 0.392344 -0.552207
O25   O     O_2   0.552519 0.888493 0.167130 -0.232049
O26   O     O_2   0.455741 0.832194 0.198870 -0.256804
O27   O     O_3   0.466993 0.990828 0.100860 -0.391347
O28   O     O_2   0.547245 0.167688 0.797658 -0.265176
O29   O     O_2   0.451338 0.111642 0.836589 -0.226967
O30   O     O_3   0.538310 0.008406 0.895900 -0.400079
O31   O     O_R   0.504130 0.658590 0.613800 -0.445860
O32   O     O_R   0.421440 0.506500 0.597920 -0.487070
O33   O     O_R   0.578560 0.493500 0.402080 -0.485544
O34   O     O_R   0.414320 0.493440 0.402120 -0.431044
O35   O     O_R   0.585680 0.506560 0.597880 -0.435144
O36   O     O_2   0.860563 0.543557 0.705115 -0.405982
S1    S     S_3+6 0.613886 0.648354 0.818935 0.119003
S2    S     S_3+6 0.385871 0.352349 0.181036 0.094434
S3    S     S_3+6 0.211252 0.721792 0.457898 0.142529
S4    S     S_3+6 0.788710 0.278190 0.542700 0.145210
S5    S     S_3+6 0.320567 0.293403 0.531788 0.064528
S6    S     S_3+6 0.679520 0.706298 0.467390 0.074349
S7    S     S_3+6 0.495300 0.925945 0.200753 0.075076
S8    S     S_3+6 0.507952 0.074304 0.798921 0.089118

loop_
_geom_bond_atom_site_label_1
_geom_bond_atom_site_label_2
_ccdc_geom_bond_type
C38   C43   A    
C34   S4    S    
Cu1   Cu2   S    
O10   S2    S    
O18   S5    D    
C12   O31   A    
H4    O10   S    
O20   S5    S    
C41   C43   A    
C32   N2    A    
C21   C27   A    
H8    O24   S    
C29   N1    A    
C7    C12   S    
C1    O1    A    
Cu2   O23   S    
H7    O20   S    
C5    N2    S    
Cu1   N3    S    
C4    H17   S    
Br1   C40   S    
C9    C19   A    
Cu2   N4    S    
C29   O36   S    
O8    S2    D    
C10   S8    S    
C22   S2    S    
O21   S6    D    
C24   N3    A    
C20   C28   A    
C1    C8    S    
C14   C18   A    
C16   O32   A    
C30   N2    A    
C44   C46   A    
C3    H16   S    
C42   H14   S    
O22   S6    D    
C22   N4    A    
C36   C37   A    
Cu2   O33   S    
C21   H13   S    
H5    O14   S    
C23   C44   A    
Cu2   O12   S    
C26   N3    A    
C10   C18   A    
C48   S5    S    
Cu1   O31   S    
C21   C24   A    
C35   C37   A    
C8    C11   A    
C31   O3    S    
C36   C38   A    
C26   H1    S    
H9    O27   S    
Br3   C44   S    
C46   C48   A    
C17   C47   S    
C33   C36   A    
C24   S1    S    
O17   S4    S    
C40   C42   A    
C25   C27   A    
C7    C13   A    
Br4   C45   S    
O27   S7    S    
C12   O12   A    
O5    S1    D    
O7    S1    S    
C18   C19   A    
C32   C35   A    
C30   O2    S    
O30   S8    S    
O26   S7    D    
Cu1   O35   S    
C23   S3    S    
C15   H18   S    
C45   C47   A    
C26   C28   A    
C6    C34   A    
C25   H11   S    
O14   S3    S    
H3    O7    S    
C8    C14   A    
C17   O35   A    
Cu1   O1    S    
O28   S8    D    
O13   S3    D    
C27   C28   A    
C35   C41   A    
C7    C15   A    
C30   C39   A    
C29   C38   A    
C3    C5    A    
O9    S2    D    
C4    C6    A    
C33   C40   A    
O11   S3    D    
O6    S1    D    
C16   O34   A    
Cu1   O32   S    
C1    O23   A    
O15   S4    D    
C14   H2    S    
O25   S7    D    
O24   S6    S    
C2    S6    S    
C25   N4    A    
C16   C46   S    
C39   C42   A    
C9    C11   A    
Br6   C11   S    
C15   C19   A    
C9    S7    S    
H10   O30   S    
C2    C47   A    
Br5   C13   S    
Br2   C41   S    
C34   C45   A    
C17   O33   A    
C20   C22   A    
C20   H12   S    
C31   C33   A    
O16   S4    D    
C10   C13   A    
O19   S5    D    
C31   N1    A    
C5    C23   A    
C2    C4    A    
C43   H15   S    
C6    N1    S    
C3    C48   A    
O29   S8    D    
H6    O17   S    
C37   C39   A    
Cu2   O34   S    
C32   O4    S    
