data_mof_unit_pretest_1282.cif
_audit_creation_date              2013-03-05T15:46:20-0500
_audit_creation_method            fapswitch 2.2
_symmetry_space_group_name_H-M    P1
_symmetry_Int_Tables_number       1
_space_group_crystal_system       triclinic
_cell_length_a                    10.16958
_cell_length_b                    10.814184
_cell_length_c                    11.198487
_cell_angle_alpha                 93.442211
_cell_angle_beta                  92.611269
_cell_angle_gamma                 83.215598
_cell_volume                      1219.81186512

loop_
_atom_site_label
_atom_site_type_symbol
_atom_site_description
_atom_site_fract_x
_atom_site_fract_y
_atom_site_fract_z
_atom_type_partial_charge
O1    O     O_R   0.568950 0.489660 0.307530 -0.650006
O2    O     O_R   0.348880 0.522640 0.340350 -0.515875
C1    C     C_R   0.448918 0.513102 0.270265 0.958437
O3    O     O_R   0.610060 0.300270 0.483590 -0.555821
O4    O     O_R   0.389990 0.333260 0.516410 -0.604688
C2    C     C_R   0.495154 0.260599 0.493308 0.958907
Zn1   Zn    Zn3+2 0.646940 0.477980 0.478090 1.080858
Zn2   Zn    Zn3+2 0.353060 0.522020 0.521910 1.128357
O5    O     O_R   0.651120 0.477360 0.659650 -0.579913
O6    O     O_R   0.431050 0.510340 0.692470 -0.634396
O7    O     O_R   0.610010 0.666740 0.483590 -0.606288
O8    O     O_R   0.389940 0.699730 0.516410 -0.521470
C3    C     C_R   0.552858 0.506896 0.730168 0.830245
C4    C     C_R   0.503266 0.740172 0.499820 0.928879
C5    C     C_R   0.518162 0.086596 0.267347 0.298141
C6    C     C_R   0.566500 0.000188 0.176061 0.302300
C7    C     C_R   0.648967 0.893277 0.206206 0.310656
C8    C     C_R   0.657594 0.858673 0.324839 0.302156
C9    C     C_R   0.573732 0.926783 0.409321 -0.128521
C10   C     C_R   0.531150 0.051839 0.388003 -0.079498
C11   C     C_R   0.481004 0.129339 0.484777 -0.093983
C12   C     C_R   0.420285 0.078234 0.577269 -0.126108
C13   C     C_R   0.432689 0.949758 0.582789 0.380506
C14   C     C_R   0.511913 0.873242 0.501986 -0.121693
C15   C     C_2   0.432992 0.561817 0.153588 0.163462
C16   C     C_2   0.517061 0.519770 0.063983 -0.054440
C17   C     C_2   0.581470 0.536762 0.856443 0.194694
C18   C     C_2   0.485799 0.555914 0.939195 -0.062276
H1    H     H_    0.886838 0.597074 0.554379 0.186702
N1    N     N_2   0.157290 0.551390 0.551110 0.002205
C19   C     C_2   0.074543 0.490170 0.487638 0.473662
N2    N     N_2   0.842740 0.448550 0.448960 0.032855
C20   C     C_2   0.927262 0.515296 0.501814 0.024709
C21   C     C_R   0.327596 0.153535 0.659190 0.132647
C22   C     C_R   0.195648 0.186110 0.619507 0.002724
C23   C     C_R   0.098651 0.228309 0.701676 -0.111242
C24   C     C_R   0.131647 0.232716 0.824080 -0.154184
C25   C     C_R   0.262481 0.199322 0.864032 -0.105146
C26   C     C_R   0.361137 0.164561 0.781672 -0.093322
H2    H     H_    0.167100 0.172789 0.525759 0.210672
H3    H     H_    0.997009 0.252806 0.671004 0.187299
H4    H     H_    0.055809 0.261326 0.887959 0.146954
H5    H     H_    0.287385 0.201206 0.959049 0.209959
H6    H     H_    0.461901 0.137062 0.812789 0.179850
Cl1   Cl    Cl    0.328830 0.705130 0.155933 -0.576042
Cl2   Cl    Cl    0.140576 0.383369 0.374597 -0.522677
Cl3   Cl    Cl    0.887152 0.289738 0.420806 -0.497140
Cl4   Cl    Cl    0.100511 0.696016 0.616037 -0.479816
Cl5   Cl    Cl    0.415545 0.221432 0.226213 -0.595234
Cl6   Cl    Cl    0.516905 0.018713 0.025211 -0.597588
Cl7   Cl    Cl    0.741279 0.803268 0.095572 -0.483559
Cl8   Cl    Cl    0.802722 0.765866 0.371382 -0.506691
Cl9   Cl    Cl    0.343823 0.886923 0.690947 -0.594493
C27   C     C_R   0.343787 0.593901 0.906589 0.106087
C28   C     C_R   0.248611 0.513001 0.921377 -0.134810
C29   C     C_R   0.113569 0.556522 0.917382 -0.078997
C30   C     C_R   0.072678 0.682786 0.902709 0.003337
C31   C     C_R   0.166938 0.764921 0.891059 0.010627
C32   C     C_R   0.301857 0.720173 0.892066 0.067397
H7    H     H_    0.280482 0.419355 0.945589 0.134910
H8    H     H_    0.041177 0.493533 0.930852 0.175944
H9    H     H_    0.968476 0.717538 0.902452 0.218996
H10   H     H_    0.135780 0.863539 0.883998 0.179347
H11   H     H_    0.374859 0.785480 0.896638 0.217845
C33   C     C_R   0.630455 0.419018 0.080825 0.109963
C34   C     C_R   0.627951 0.302260 0.019291 -0.096398
C35   C     C_R   0.742172 0.216216 0.015940 -0.080245
C36   C     C_R   0.859603 0.245587 0.074201 -0.105851
C37   C     C_R   0.863991 0.361996 0.133986 -0.066053
C38   C     C_R   0.750459 0.448233 0.137651 0.054392
H12   H     H_    0.538787 0.280338 0.970304 0.147237
H13   H     H_    0.740947 0.127707 0.965776 0.197690
H14   H     H_    0.947983 0.179207 0.070732 0.172419
H15   H     H_    0.956174 0.386717 0.175047 0.207132
H16   H     H_    0.757495 0.540169 0.179697 0.203934
Cl10  Cl    Cl    0.749455 0.554677 0.892796 -0.620626

loop_
_geom_bond_atom_site_label_1
_geom_bond_atom_site_label_2
_geom_bond_distance
_ccdc_geom_bond_type
C28   C29   1.397761 A    
C22   C23   1.397821 A    
C7    Cl7   1.763241 S    
C8    Cl8   1.760658 S    
C30   H9    1.081641 S    
Zn1   O7    2.029180 S    
C32   H11   1.081027 S    
N1    Cl4   1.731044 S    
C23   C24   1.395635 A    
C6    Cl6   1.757089 S    
C21   C22   1.405330 A    
N1    C19   1.293155 D    
O7    C4    1.280245 A    
C6    C7    1.394985 A    
C5    C6    1.407975 A    
H1    C20   1.082235 S    
C29   C30   1.396745 A    
C35   H13   1.081436 S    
C4    C14   1.450755 S    
C24   H4    1.081471 S    
O5    C3    1.300164 A    
C9    C10   1.401575 A    
C36   C37   1.394383 A    
C19   Cl2   1.762393 S    
C13   C14   1.404127 A    
C19   C20   1.504241 S    
C34   C35   1.400322 A    
O1    Zn1   2.039711 S    
C11   C12   1.402555 A    
C23   H3    1.081896 S    
O3    Zn1   2.006077 S    
C15   C16   1.369720 D    
C13   Cl9   1.757604 S    
C27   C32   1.398479 A    
C5    C10   1.420339 A    
C12   C21   1.483564 S    
C35   C36   1.395156 A    
C1    C15   1.433247 S    
C25   C26   1.397188 A    
O3    C2    1.302698 A    
C18   C27   1.489163 S    
C8    C9    1.416453 A    
C31   C32   1.399731 A    
C2    C11   1.440645 S    
C21   C26   1.399725 A    
O1    C1    1.273439 A    
C24   C25   1.397326 A    
C34   H12   1.081295 S    
Zn2   O8    2.006077 S    
C7    C8    1.397850 A    
C37   H15   1.080246 S    
O8    C4    1.304737 A    
N2    Cl3   1.737127 S    
C17   Cl10  1.768343 S    
C15   Cl1   1.770436 S    
C38   H16   1.082955 S    
C31   H10   1.082596 S    
Zn1   O5    2.032101 S    
C27   C28   1.400614 A    
Zn1   N2    2.017322 S    
C12   C13   1.385017 A    
C16   C33   1.503494 S    
C9    C14   1.422992 A    
O2    Zn2   2.032101 S    
O6    C3    1.287405 A    
O4    Zn2   2.029179 S    
C26   H6    1.080669 S    
C16   C18   1.484057 S    
Zn2   N1    2.017159 S    
N2    C20   1.288060 D    
O2    C1    1.303781 A    
C36   H14   1.082600 S    
C25   H5    1.082036 S    
C30   C31   1.396904 A    
O4    C2    1.276865 A    
C22   H2    1.082188 S    
C5    Cl5   1.762028 S    
C37   C38   1.396342 A    
C10   C11   1.406145 A    
Zn2   O6    2.039711 S    
C33   C34   1.404017 A    
C17   C18   1.363731 D    
C29   H8    1.081512 S    
C3    C17   1.455497 S    
C28   H7    1.073104 S    
C33   C38   1.410778 A    
