data_mof_unit_pretest_1013.cif
_audit_creation_date              2012-12-10T17:42:41-0500
_audit_creation_method            fapswitch 2.2
_symmetry_space_group_name_H-M    P1
_symmetry_Int_Tables_number       1
_space_group_crystal_system       triclinic
_cell_length_a                    9.918264
_cell_length_b                    10.723051
_cell_length_c                    13.107911
_cell_angle_alpha                 91.590142
_cell_angle_beta                  69.215564
_cell_angle_gamma                 87.689618
_cell_volume                      1300.9758446

loop_
_atom_site_label
_atom_site_type_symbol
_atom_type_description
_atom_site_fract_x
_atom_site_fract_y
_atom_site_fract_z
_atom_type_partial_charge
C1    C     C_R   0.499098 0.740185 0.494027 0.869443
C2    C     C_R   0.440311 0.479965 0.982206 0.086690
C3    C     C_R   0.467787 0.440664 0.872892 0.076822
C4    C     C_R   0.552326 0.465037 0.024583 0.085887
C5    C     C_R   0.680105 0.391961 0.965388 0.179324
C6    C     C_R   0.698609 0.341076 0.862046 -0.254058
C7    C     C_R   0.594545 0.365780 0.815944 -0.168063
C8    C     C_R   0.538514 0.518161 0.126154 -0.243532
C9    C     C_R   0.760033 0.409897 0.119594 -0.187471
C10   C     C_R   0.365865 0.474136 0.823971 -0.197550
C11   C     C_R   0.228398 0.906120 0.518680 -0.248888
C12   C     C_R   0.419156 0.490919 0.704586 0.844189
C13   C     C_R   0.099475 0.980213 0.567425 0.016837
C14   C     C_R   0.102319 0.090636 0.625434 -0.193991
C15   C     C_R   0.233866 0.135665 0.619817 -0.178686
C16   C     C_R   0.364486 0.070856 0.555663 0.093508
C17   C     C_R   0.361582 0.947262 0.520907 0.087554
C18   C     C_R   0.494071 0.874084 0.486222 -0.123248
C19   C     C_R   0.625751 0.931299 0.458610 -0.221159
C20   C     C_R   0.627373 0.058623 0.470686 -0.202425
C21   C     C_R   0.497377 0.128462 0.518758 -0.120079
C22   C     C_R   0.785058 0.659882 0.650232 -0.119309
C23   C     C_R   0.498768 0.260870 0.507871 0.866524
C24   C     C_R   0.817569 0.732935 0.726935 -0.162660
C25   C     C_R   0.957910 0.733032 0.725154 -0.106407
C26   C     C_R   0.065896 0.657663 0.648435 -0.165702
C27   C     C_R   0.035235 0.577916 0.573476 0.155002
C28   C     C_R   0.890523 0.578295 0.573817 0.205058
C29   C     C_R   0.964787 0.424861 0.429678 -0.128327
C30   C     C_R   0.107824 0.424852 0.429744 -0.096705
C31   C     C_R   0.581115 0.498971 0.295446 0.871271
C32   C     C_R   0.784592 0.366889 0.012697 -0.137419
C33   C     C_R   0.633794 0.482396 0.177189 -0.057412
C34   C     C_R   0.221245 0.508220 0.892588 -0.025605
C35   C     C_R   0.191267 0.535362 0.003513 -0.197699
C36   C     C_R   0.299667 0.526668 0.046901 -0.221562
H1    H     H_    0.834969 0.381190 0.158809 0.143832
H2    H     H_    0.223705 0.821834 0.473547 0.204557
H3    H     H_    0.004152 0.146491 0.669103 0.181169
H4    H     H_    0.233479 0.223969 0.661707 0.208012
H5    H     H_    0.730075 0.102286 0.441616 0.184802
H6    H     H_    0.940621 0.363479 0.372259 0.139035
H7    H     H_    0.677121 0.672827 0.652492 0.198088
H8    H     H_    0.734317 0.793611 0.785398 0.161049
H9    H     H_    0.983899 0.793452 0.782360 0.170092
H10   H     H_    0.172341 0.663669 0.649810 0.200935
H11   H     H_    0.793247 0.281653 0.816905 0.154510
H12   H     H_    0.191021 0.363321 0.372354 0.153592
H13   H     H_    0.881286 0.309065 0.969203 0.147395
H14   H     H_    0.449394 0.582918 0.170471 0.148491
H15   H     H_    0.266809 0.547558 0.133536 0.149298
H16   H     H_    0.082233 0.562028 0.057861 0.179274
H17   H     H_    0.611431 0.321072 0.737012 0.181907
H18   H     H_    0.727921 0.877496 0.426627 0.214871
N1    N     N_R   0.856860 0.501200 0.500990 -0.117439
N2    N     N_R   0.142450 0.501280 0.501020 -0.115977
O1    O     O_R   0.385310 0.683220 0.500000 -0.650513
O2    O     O_R   0.614640 0.683250 0.500010 -0.620645
O3    O     O_R   0.328400 0.499950 0.653610 -0.594138
O4    O     O_R   0.557730 0.499970 0.653620 -0.636580
O5    O     O_R   0.385360 0.316750 0.499990 -0.606316
O6    O     O_R   0.614690 0.316780 0.500000 -0.622445
O7    O     O_R   0.442270 0.500030 0.346380 -0.612788
O8    O     O_R   0.671600 0.500050 0.346390 -0.608721
Zn1   Zn    Zn3+2 0.346880 0.499980 0.499990 0.945074
Zn2   Zn    Zn3+2 0.653120 0.500020 0.500010 0.940283
C37   C     C_2   0.962034 0.944017 0.557837 0.888150
O9    O     O_2   0.962061 0.863698 0.489752 -0.659793
O10   O     O_R   0.831516 0.001503 0.627650 -0.834690
H19   H     H_    0.744284 0.962518 0.619763 0.345754
C38   C     C_2   0.096345 0.506573 0.855811 0.896299
O11   O     O_2   0.993143 0.580988 0.897396 -0.645180
O12   O     O_R   0.090095 0.413284 0.781333 -0.823356
H20   H     H_    0.998134 0.420890 0.764409 0.331957

loop_
_geom_bond_atom_site_label_1
_geom_bond_atom_site_label_2
_ccdc_geom_bond_type
O7    Zn1   S    
C16   C21   A    
C25   H9    S    
C29   H6    S    
O12   H20   S    
C35   C36   A    
C4    C8    A    
C20   H5    S    
C26   C27   A    
C30   H12   S    
C18   C19   A    
C3    C7    A    
C5    C6    A    
C15   C16   A    
C34   C35   A    
C9    C32   A    
C14   H3    S    
C12   O3    A    
O2    Zn2   S    
C23   O6    A    
C19   C20   A    
C16   C17   A    
C31   C33   S    
C5    C32   A    
O4    Zn2   S    
C22   C28   A    
C13   C14   A    
C9    C33   A    
C28   N1    A    
C32   H13   S    
C6    H11   S    
O6    Zn2   S    
C37   O9    D    
C31   O7    A    
C24   C25   A    
C38   O12   S    
C27   N2    A    
C29   N1    A    
C25   C26   A    
C30   N2    A    
C37   O10   S    
O8    Zn2   S    
C11   H2    S    
C2    C4    A    
C29   C30   A    
C1    O1    A    
C22   H7    S    
C9    H1    S    
C17   C18   A    
C1    C18   S    
C10   C34   A    
C36   H15   S    
C10   C12   S    
C19   H18   S    
C21   C23   S    
C24   H8    S    
C22   C24   A    
C7    H17   S    
C8    H14   S    
C27   C28   A    
N1    Zn2   S    
C13   C37   S    
C2    C36   A    
C11   C17   A    
C31   O8    A    
O1    Zn1   S    
C4    C5    A    
C6    C7    A    
C2    C3    A    
C38   O11   D    
C3    C10   A    
C1    O2    A    
O3    Zn1   S    
C11   C13   A    
C8    C33   A    
O10   H19   S    
C15   H4    S    
C26   H10   S    
C12   O4    A    
O5    Zn1   S    
C23   O5    A    
C20   C21   A    
C35   H16   S    
C14   C15   A    
C34   C38   S    
N2    Zn1   S    
