data_mof_unit_pretest_1771.cif
_audit_creation_date              2012-12-10T18:40:28-0500
_audit_creation_method            fapswitch 2.2
_symmetry_space_group_name_H-M    P1
_symmetry_Int_Tables_number       1
_space_group_crystal_system       triclinic
_cell_length_a                    10.776618
_cell_length_b                    11.574877
_cell_length_c                    16.683604
_cell_angle_alpha                 90.025349
_cell_angle_beta                  85.00878
_cell_angle_gamma                 90.034933
_cell_volume                      2073.18794915

loop_
_atom_site_label
_atom_site_type_symbol
_atom_type_description
_atom_site_fract_x
_atom_site_fract_y
_atom_site_fract_z
_atom_type_partial_charge
C1    C     C_R   0.500030 0.718843 0.499930 0.909215
C2    C     C_R   0.499971 0.281152 0.499987 0.913954
C3    C     C_1   0.500059 0.838947 0.499789 -0.178918
C4    C     C_1   0.499928 0.161027 0.499886 -0.184318
C5    C     C_1   0.500011 0.940828 0.499740 0.010822
C6    C     C_1   0.499948 0.059139 0.499793 0.009969
C7    C     C_1   0.930244 0.500009 0.500006 0.047244
C8    C     C_1   0.069757 0.500014 0.499993 0.048408
C9    C     C_R   0.482776 0.499712 0.654102 0.862688
C10   C     C_R   0.517266 0.506671 0.346291 0.856924
C11   C     C_R   0.472196 0.519035 0.740658 -0.085386
C12   C     C_R   0.530077 0.545653 0.262946 -0.079635
C13   C     C_R   0.565558 0.481183 0.788605 -0.016364
C14   C     C_R   0.449255 0.630525 0.235501 -0.023009
C15   C     C_R   0.564181 0.519832 0.867496 -0.184532
C16   C     C_R   0.469649 0.671822 0.157242 -0.192053
C17   C     C_R   0.471299 0.596493 0.898924 0.180756
C18   C     C_R   0.568525 0.628811 0.105908 0.180733
C19   C     C_R   0.374211 0.627336 0.853088 -0.171301
C20   C     C_R   0.652933 0.550645 0.134679 -0.162119
C21   C     C_R   0.374773 0.589131 0.774163 -0.205774
C22   C     C_R   0.633817 0.509229 0.212874 -0.207198
C23   C     C_2   0.468059 0.635230 0.982361 -0.219876
C24   C     C_2   0.572814 0.647349 0.019275 -0.228817
H1    H     H_    0.698765 0.447067 0.233903 0.155173
H2    H     H_    0.302084 0.618826 0.738205 0.163640
H3    H     H_    0.663085 0.643523 0.984844 0.152142
H4    H     H_    0.377294 0.638158 0.016211 0.153869
H5    H     H_    0.299770 0.683193 0.877780 0.136232
H6    H     H_    0.729628 0.516797 0.095275 0.130771
H7    H     H_    0.406430 0.735100 0.135468 0.135872
H8    H     H_    0.634810 0.488594 0.904556 0.132449
N1    N     N_1   0.819370 0.500000 0.500010 -0.075339
N2    N     N_1   0.180630 0.500000 0.499990 -0.074593
O1    O     O_R   0.397470 0.665550 0.500010 -0.602324
O2    O     O_R   0.602530 0.334450 0.499990 -0.603186
O3    O     O_R   0.602530 0.665550 0.499990 -0.606670
O4    O     O_R   0.397470 0.334450 0.500010 -0.605146
O5    O     O_R   0.385350 0.500000 0.615800 -0.615751
O6    O     O_R   0.614650 0.500000 0.384200 -0.611186
O7    O     O_R   0.590410 0.500000 0.615800 -0.599377
O8    O     O_R   0.409590 0.500000 0.384200 -0.602699
Zn1   Zn    Zn3+2 0.363080 0.500000 0.500000 0.992177
Zn2   Zn    Zn3+2 0.636920 0.500000 0.500000 0.994224
C25   C     C_1   0.662642 0.402081 0.758827 0.170316
N3    N     N_1   0.740365 0.338749 0.735004 -0.193699
C26   C     C_1   0.347217 0.679535 0.286423 0.178478
N4    N     N_1   0.265534 0.718923 0.327106 -0.186785

loop_
_geom_bond_atom_site_label_1
_geom_bond_atom_site_label_2
_ccdc_geom_bond_type
C2    C4    S    
C23   C24   D    
C14   C26   S    
C10   O8    A    
O1    Zn1   S    
C2    O4    A    
C9    O7    A    
C26   N4    T    
C24   H3    S    
C1    O3    A    
C21   H2    S    
O3    Zn2   S    
O4    Zn1   S    
C8    N2    T    
C23   H4    S    
C16   H7    S    
C13   C25   S    
C11   C13   A    
C9    C11   S    
C17   C23   S    
C10   C12   S    
C18   C24   S    
C10   O6    A    
C19   C21   A    
C12   C14   A    
C18   C20   A    
C13   C15   A    
O5    Zn1   S    
C5    C6    S    
O7    Zn2   S    
C14   C16   A    
O2    Zn2   S    
C4    C6    T    
C7    C8    S    
O8    Zn1   S    
C7    N1    T    
C19   H5    S    
C12   C22   A    
O6    Zn2   S    
C1    O1    A    
C16   C18   A    
C2    O2    A    
C1    C3    S    
C15   C17   A    
C20   H6    S    
C17   C19   A    
C25   N3    T    
N1    Zn2   S    
C11   C21   A    
C9    O5    A    
N2    Zn1   S    
C20   C22   A    
C3    C5    T    
C22   H1    S    
C15   H8    S    
