data_mof_unit_pretest_662.cif
_audit_creation_date              2012-10-26T20:43:01-0400
_audit_creation_method            fapswitch 2.2
_symmetry_space_group_name_H-M    P1
_symmetry_Int_Tables_number       1
_space_group_crystal_system       triclinic
_cell_length_a                    10.866217
_cell_length_b                    9.518977
_cell_length_c                    15.067021
_cell_angle_alpha                 89.730885
_cell_angle_beta                  90.095388
_cell_angle_gamma                 89.90006
_cell_volume                      1558.43963801

loop_
_atom_site_label
_atom_site_type_symbol
_atom_type_description
_atom_site_fract_x
_atom_site_fract_y
_atom_site_fract_z
_atom_type_partial_charge
C1    C     C_R   0.262228 0.500018 0.499833 0.641874
C2    C     C_R   0.128387 0.499827 0.499756 -0.031997
C3    C     C_R   0.433877 0.075021 0.438287 0.063788
C4    C     C_R   0.566123 0.924979 0.561712 0.063784
C5    C     C_R   0.565843 0.073754 0.561840 0.068856
C6    C     C_R   0.434157 0.926246 0.438160 0.068865
C7    C     C_R   0.499827 0.500046 0.329144 0.633061
C8    C     C_R   0.500174 0.499952 0.670855 0.633018
C9    C     C_R   0.613890 0.500282 0.812581 0.209094
C10   C     C_R   0.386038 0.499573 0.187440 0.209065
C11   C     C_R   0.501121 0.500512 0.767193 0.019550
C12   C     C_R   0.737772 0.499983 0.500169 0.641825
C13   C     C_R   0.498832 0.499456 0.232804 0.019543
C14   C     C_R   0.389265 0.507797 0.812460 0.189979
C15   C     C_R   0.610664 0.492076 0.187521 0.189945
C16   C     C_R   0.388946 0.510343 0.905475 -0.015351
C17   C     C_R   0.610947 0.489381 0.094511 -0.015362
C18   C     C_R   0.501147 0.499841 0.952932 -0.051297
C19   C     C_R   0.498730 0.499872 0.047065 -0.051307
C20   C     C_R   0.615387 0.490240 0.906463 0.032323
C21   C     C_R   0.384485 0.509434 0.093542 0.032315
C22   C     C_R   0.278216 0.525609 0.951683 -0.023379
C23   C     C_R   0.274612 0.528385 0.043650 0.277060
C24   C     C_R   0.721648 0.473895 0.048298 -0.023347
C25   C     C_R   0.725218 0.471028 0.956333 0.277094
C26   C     C_R   0.064393 0.395979 0.548264 0.242927
C27   C     C_R   0.935604 0.604018 0.451734 0.242919
C28   C     C_R   0.936282 0.396576 0.548789 0.242036
C29   C     C_R   0.063716 0.603441 0.451224 0.242074
C30   C     C_R   0.871612 0.500178 0.500248 -0.032042
Cl1   Cl    Cl    0.747632 0.533893 0.748584 -0.438748
Cl2   Cl    Cl    0.140773 0.730470 0.385193 -0.402454
Cl3   Cl    Cl    0.252361 0.466180 0.251543 -0.438794
Cl4   Cl    Cl    0.250415 0.521263 0.750643 -0.478297
Cl5   Cl    Cl    0.749542 0.478712 0.249316 -0.478187
Cl6   Cl    Cl    0.129179 0.572351 0.088055 -0.363418
Cl7   Cl    Cl    0.870423 0.426370 0.911875 -0.363384
Cl8   Cl    Cl    0.142303 0.265906 0.612029 -0.360721
Cl9   Cl    Cl    0.857689 0.734043 0.387926 -0.360686
Cl10  Cl    Cl    0.859221 0.269584 0.614848 -0.402373
Cu1   Cu    Cu3+1 0.500000 0.640660 0.500000 1.123213
Cu2   Cu    Cu3+1 0.500000 0.359340 0.500000 1.123197
H1    H     H_    0.380673 0.131495 0.388930 0.155750
H2    H     H_    0.619327 0.868505 0.611069 0.155755
H3    H     H_    0.618135 0.129170 0.611639 0.176383
H4    H     H_    0.381867 0.870830 0.388360 0.176381
H5    H     H_    0.192014 0.539150 0.916635 0.240809
H6    H     H_    0.807830 0.460182 0.083337 0.240809
N1    N     N_R   0.500000 0.852070 0.500000 -0.245063
N2    N     N_R   0.500000 0.147930 0.500000 -0.245062
O1    O     O_R   0.319640 0.618740 0.499990 -0.463695
O2    O     O_R   0.680360 0.381260 0.500010 -0.463716
O3    O     O_R   0.680360 0.618740 0.500010 -0.464391
O4    O     O_R   0.319640 0.381260 0.499990 -0.464361
O5    O     O_R   0.499970 0.618800 0.370260 -0.481901
O6    O     O_R   0.500030 0.381200 0.629740 -0.481939
O7    O     O_R   0.500030 0.618800 0.629740 -0.495998
O8    O     O_R   0.499970 0.381200 0.370260 -0.496018

loop_
_geom_bond_atom_site_label_1
_geom_bond_atom_site_label_2
_ccdc_geom_bond_type
C10   C21   A    
C14   Cl4   S    
C1    O4    A    
C8    O7    A    
C29   Cl2   S    
C9    C11   A    
Cu1   Cu2   S    
C7    O8    A    
C26   C28   A    
C12   O3    A    
C7    O5    A    
C4    N1    A    
C3    C6    A    
C3    H1    S    
C8    O6    A    
C28   C30   A    
C22   H5    S    
Cu1   O7    S    
C2    C26   A    
Cu2   O4    S    
C27   C30   A    
C1    O1    A    
Cu1   O3    S    
C5    H3    S    
Cu2   N2    S    
C8    C11   S    
Cu1   O5    S    
C15   Cl5   S    
C12   O2    A    
C3    N2    A    
C23   Cl6   S    
C10   Cl3   S    
C18   C20   A    
C13   C15   A    
C21   C23   A    
C6    H4    S    
C9    C20   A    
C14   C16   A    
C5    N2    A    
C17   C24   A    
C27   C29   A    
C20   C25   A    
C9    Cl1   S    
C27   Cl9   S    
C24   H6    S    
C7    C13   S    
C2    C29   A    
C24   C25   A    
C16   C18   A    
C1    C2    S    
Cu1   N1    S    
C11   C14   A    
C15   C17   A    
C18   C19   A    
C28   Cl10  S    
C22   C23   A    
C17   C19   A    
C16   C22   A    
Cu2   O8    S    
C4    H2    S    
Cu2   O6    S    
C12   C30   S    
Cu1   O1    S    
C26   Cl8   S    
C6    N1    A    
Cu2   O2    S    
C4    C5    A    
C19   C21   A    
C10   C13   A    
C25   Cl7   S    
