data_mof_unit_pretest_816.cif
_audit_creation_date              2013-03-05T16:06:21-0500
_audit_creation_method            fapswitch 2.2
_symmetry_space_group_name_H-M    P1
_symmetry_Int_Tables_number       1
_space_group_crystal_system       triclinic
_cell_length_a                    10.952379
_cell_length_b                    9.595937
_cell_length_c                    27.770806
_cell_angle_alpha                 90.058619
_cell_angle_beta                  90.595318
_cell_angle_gamma                 90.326097
_cell_volume                      2918.45905709

loop_
_atom_site_label
_atom_site_type_symbol
_atom_site_description
_atom_site_fract_x
_atom_site_fract_y
_atom_site_fract_z
_atom_type_partial_charge
O1    O     O_R   0.319640 0.618740 0.500000 -0.506091
O2    O     O_R   0.680360 0.381260 0.500000 -0.538427
O3    O     O_R   0.680360 0.618740 0.500000 -0.503881
O4    O     O_R   0.319640 0.381260 0.500000 -0.540731
C1    C     C_R   0.262142 0.499745 0.499162 0.966407
C2    C     C_R   0.737640 0.500410 0.502148 0.968820
O5    O     O_R   0.500020 0.618770 0.430260 -0.522255
O6    O     O_R   0.499980 0.381230 0.569740 -0.540956
O7    O     O_R   0.499980 0.618770 0.569740 -0.529972
O8    O     O_R   0.500020 0.381230 0.430260 -0.548443
C3    C     C_R   0.502384 0.499995 0.407542 0.900554
C4    C     C_R   0.500343 0.500486 0.592475 0.891682
Cu1   Cu    Cu3+1 0.500000 0.640660 0.500000 1.098580
Cu2   Cu    Cu3+1 0.500000 0.359340 0.500000 1.055962
C5    C     C_R   0.425293 0.409140 0.175228 0.611776
C6    C     C_R   0.631529 0.465149 0.823782 0.618226
O9    O     O_2   0.349842 0.321139 0.198309 -0.518979
O10   O     O_2   0.723249 0.405852 0.799348 -0.540668
N1    N     N_R   0.510955 0.481783 0.201275 -0.441882
N2    N     N_R   0.528191 0.504131 0.799236 -0.437330
C7    C     C_R   0.604454 0.550165 0.179184 0.615576
C8    C     C_R   0.425059 0.542835 0.823128 0.616714
C9    C     C_R   0.593092 0.413190 0.279704 -0.253070
C10   C     C_R   0.438915 0.417737 0.723411 -0.233228
C11   C     C_R   0.596854 0.421782 0.329968 -0.081868
C12   C     C_R   0.423650 0.423050 0.673359 -0.099696
C13   C     C_R   0.418822 0.575804 0.326911 -0.157140
C14   C     C_R   0.594593 0.588823 0.669616 -0.156070
C15   C     C_R   0.417460 0.565547 0.276109 0.480817
C16   C     C_R   0.604017 0.587525 0.720517 0.470535
C17   C     C_R   0.505133 0.484334 0.252927 0.233595
C18   C     C_R   0.525889 0.500820 0.747209 0.229079
C19   C     C_R   0.523311 0.481733 0.101753 -0.127014
C20   C     C_R   0.531246 0.511977 0.899439 -0.124068
C21   C     C_R   0.419264 0.424419 0.124612 -0.043566
C22   C     C_R   0.639717 0.480896 0.874380 -0.050933
C23   C     C_R   0.317258 0.382484 0.095701 -0.031938
C24   C     C_R   0.749267 0.458778 0.901260 -0.044257
C25   C     C_R   0.621938 0.533847 0.129370 -0.201089
C26   C     C_R   0.422038 0.540779 0.873845 -0.205625
C27   C     C_R   0.506203 0.499464 0.354261 -0.232405
C28   C     C_R   0.506436 0.503085 0.645751 -0.231819
C29   C     C_R   0.419211 0.510979 0.974993 -0.129928
C30   C     C_R   0.639277 0.517279 0.027718 -0.113053
C31   C     C_R   0.641453 0.501098 0.976684 0.128365
C32   C     C_R   0.419689 0.471861 0.024089 0.105236
C33   C     C_R   0.530840 0.509441 0.950342 0.006147
C34   C     C_R   0.527939 0.489105 0.051199 0.009444
C35   C     C_R   0.312644 0.553968 0.949985 0.401906
C36   C     C_R   0.741764 0.561955 0.055652 0.384239
C37   C     C_R   0.313965 0.569109 0.899699 0.435342
C38   C     C_R   0.731975 0.572502 0.106411 0.443218
O11   O     O_2   0.325628 0.581967 0.797572 -0.502359
O12   O     O_2   0.678331 0.634652 0.205385 -0.478443
C39   C     C_R   0.317223 0.412449 0.046279 -0.222919
C40   C     C_R   0.748178 0.469742 0.951516 -0.177192
H1    H     H_    0.377643 0.354575 0.744794 0.206113
H2    H     H_    0.662189 0.355086 0.260674 0.183622
H3    H     H_    0.237450 0.385076 0.024825 0.200175
H4    H     H_    0.830889 0.445182 0.970743 0.178470
C41   C     C_R   0.062651 0.373341 0.504778 0.324867
C42   C     C_R   0.936853 0.627936 0.500929 0.347844
C43   C     C_R   0.936063 0.374957 0.509462 0.321625
C44   C     C_R   0.063659 0.626290 0.494554 0.337929
C45   C     C_R   0.871820 0.501217 0.504381 -0.330343
C46   C     C_R   0.127796 0.499617 0.499185 -0.337797
C47   C     C_R   0.543985 0.072727 0.461651 0.375159
C48   C     C_R   0.440257 0.924080 0.534855 0.388506
C49   C     C_R   0.454932 0.072335 0.538171 0.381777
C50   C     C_R   0.558933 0.924693 0.464861 0.394995
N3    N     N_R   0.500000 0.852070 0.500000 -0.269152
N4    N     N_R   0.500000 0.147930 0.500000 -0.270745
C51   C     C_2   0.329823 0.668738 0.350334 0.863366
O13   O     O_2   0.270900 0.627275 0.384620 -0.654390
O14   O     O_R   0.311280 0.802771 0.332034 -0.721232
H5    H     H_    0.245522 0.855539 0.349606 0.302968
C52   C     C_2   0.675077 0.683259 0.642001 0.866973
O15   O     O_2   0.738032 0.636804 0.609727 -0.662548
O16   O     O_R   0.680519 0.824837 0.653737 -0.743353
H6    H     H_    0.740075 0.878585 0.633054 0.297403
O17   O     O_3   0.571356 0.138941 0.419128 -0.540181
C53   C     C_3   0.478583 0.105727 0.385044 -0.219924
H7    H     H_    0.494707 0.165433 0.351614 0.195092
H8    H     H_    0.386527 0.134928 0.398336 0.125448
H9    H     H_    0.479763 0.993684 0.374945 0.202330
O18   O     O_3   0.375961 0.849287 0.569060 -0.540172
C54   C     C_3   0.256552 0.901930 0.574359 -0.154192
H10   H     H_    0.195145 0.814188 0.584011 0.174502
H11   H     H_    0.218853 0.950127 0.540922 0.167894
H12   H     H_    0.254116 0.978024 0.604437 0.199752
O19   O     O_3   0.426096 0.138651 0.580550 -0.536060
C55   C     C_3   0.513130 0.099705 0.616081 -0.192325
H13   H     H_    0.505401 0.169072 0.647634 0.181700
H14   H     H_    0.608569 0.110196 0.603046 0.115284
H15   H     H_    0.495843 0.992309 0.629204 0.218604
O20   O     O_3   0.620437 0.850108 0.429893 -0.538021
C56   C     C_3   0.736812 0.907958 0.420612 -0.140498
H16   H     H_    0.799185 0.821959 0.410898 0.181143
H17   H     H_    0.778091 0.963762 0.452093 0.164309
H18   H     H_    0.731963 0.978452 0.389030 0.205583
O21   O     O_3   0.336737 0.642172 0.248100 -0.542902
C57   C     C_3   0.218652 0.582227 0.250036 -0.201377
H19   H     H_    0.164267 0.632993 0.278518 0.167115
H20   H     H_    0.218321 0.467308 0.255841 0.175857
H21   H     H_    0.171644 0.602275 0.215220 0.208056
O22   O     O_3   0.680481 0.679480 0.745250 -0.555820
C58   C     C_3   0.804664 0.646599 0.737667 -0.162139
H22   H     H_    0.844520 0.717154 0.710369 0.163839
H23   H     H_    0.820739 0.536156 0.727025 0.160537
H24   H     H_    0.855858 0.666591 0.771563 0.228582
C59   C     C_2   0.206331 0.313959 0.114907 0.897894
O23   O     O_2   0.163376 0.212060 0.094201 -0.586503
O24   O     O_R   0.148049 0.367814 0.155249 -0.774689
H25   H     H_    0.078629 0.305914 0.166433 0.330173
C60   C     C_2   0.869063 0.430906 0.879061 0.959041
O25   O     O_2   0.929317 0.330932 0.892388 -0.574237
O26   O     O_R   0.915800 0.522620 0.844778 -0.738686
H26   H     H_    0.997971 0.492079 0.832184 0.368013
C61   C     C_2   0.314306 0.353020 0.651832 0.931172
O27   O     O_2   0.269525 0.251151 0.671560 -0.600732
O28   O     O_R   0.259131 0.406321 0.610222 -0.760356
H27   H     H_    0.184185 0.350890 0.600015 0.339657
C62   C     C_2   0.701945 0.356135 0.355307 0.929698
O29   O     O_2   0.747915 0.250523 0.338917 -0.605015
O30   O     O_R   0.752187 0.417744 0.396581 -0.772056
H28   H     H_    0.824973 0.364325 0.409598 0.324471
O31   O     O_3   0.205552 0.598864 0.875906 -0.525721
C63   C     C_3   0.192971 0.744771 0.872047 -0.138432
H29   H     H_    0.278788 0.797761 0.860636 0.140732
H30   H     H_    0.160553 0.789758 0.906372 0.166001
H31   H     H_    0.122360 0.766975 0.844208 0.198836
O32   O     O_3   0.829192 0.627017 0.132694 -0.513093
C64   C     C_3   0.892600 0.517161 0.155682 -0.247633
H32   H     H_    0.844464 0.478553 0.187967 0.183451
H33   H     H_    0.982461 0.557932 0.167958 0.209037
H34   H     H_    0.908636 0.427233 0.131371 0.125750
O33   O     O_3   0.207476 0.590299 0.974011 -0.589854
C65   C     C_3   0.227588 0.716517 0.999415 -0.327952
H35   H     H_    0.284956 0.792760 0.979297 0.153380
H36   H     H_    0.269436 0.696192 0.035270 0.192911
H37   H     H_    0.138110 0.766722 0.005557 0.214477
O34   O     O_3   0.840417 0.623055 0.032685 -0.555282
C66   C     C_3   0.948857 0.548280 0.042056 -0.256186
H38   H     H_    0.933602 0.435718 0.050026 0.130208
H39   H     H_    0.002947 0.599754 0.071067 0.215653
H40   H     H_    0.004442 0.551218 0.009149 0.233335
O35   O     O_3   0.122529 0.247271 0.508781 -0.539676
C67   C     C_3   0.124103 0.183681 0.462976 -0.244476
H41   H     H_    0.161425 0.254544 0.434895 0.144389
H42   H     H_    0.031346 0.146648 0.452257 0.174145
H43   H     H_    0.185144 0.092154 0.464884 0.154186
O36   O     O_3   0.875182 0.753489 0.501244 -0.562490
C68   C     C_3   0.905994 0.830648 0.543033 -0.213306
H44   H     H_    0.931088 0.764815 0.574649 0.162928
H45   H     H_    0.825344 0.892875 0.553136 0.162259
H46   H     H_    0.981291 0.904890 0.535325 0.183046
O37   O     O_3   0.875857 0.250411 0.517971 -0.545629
C69   C     C_3   0.869282 0.231113 0.568233 -0.243510
H47   H     H_    0.819058 0.317534 0.585893 0.158770
H48   H     H_    0.961821 0.219912 0.584661 0.175617
H49   H     H_    0.818180 0.133552 0.575334 0.142694
O38   O     O_3   0.126269 0.749655 0.486044 -0.561005
C70   C     C_3   0.090722 0.806741 0.441200 -0.219251
H50   H     H_    0.063758 0.726863 0.413844 0.176627
H51   H     H_    0.169261 0.866009 0.426835 0.157125
H52   H     H_    0.015362 0.881917 0.445929 0.160923

loop_
_geom_bond_atom_site_label_1
_geom_bond_atom_site_label_2
_geom_bond_distance
_ccdc_geom_bond_type
C66   H40   1.103610 S    
C30   C34   1.413651 A    
C54   H10   1.109441 S    
C43   C45   1.411002 A    
O21   C57   1.414033 S    
C35   O33   1.383312 S    
C9    H2    1.084151 S    
C48   O18   1.386668 S    
C51   O13   1.221470 D    
C50   O20   1.388039 S    
C59   O23   1.223143 D    
C67   H43   1.107786 S    
O35   C67   1.410567 S    
O3    C2    1.301514 A    
N1    C17   1.436686 S    
C63   H29   1.115108 S    
O17   C53   1.416213 S    
C62   O29   1.223660 D    
C52   O15   1.221860 D    
C5    N1    1.366304 A    
C19   C25   1.407473 A    
O30   H28   1.013891 S    
C42   O36   1.384627 S    
O1    C1    1.300935 A    
C70   H51   1.106599 S    
C67   H42   1.111915 S    
O38   C70   1.412886 S    
C39   H3    1.083321 S    
C7    O12   1.349261 S    
C62   O30   1.395701 S    
C13   C15   1.414065 A    
O22   C58   1.415789 S    
C66   H38   1.114817 S    
C57   H21   1.108186 S    
C66   H39   1.109040 S    
C47   N4    1.378441 A    
C31   C33   1.411390 A    
C14   C28   1.423003 A    
C41   C43   1.394047 A    
O7    Cu1   1.948310 S    
C4    C28   1.480521 S    
C69   H49   1.106936 S    
C41   C46   1.412221 A    
O37   C69   1.410747 S    
C70   H50   1.115112 S    
C31   C40   1.402100 A    
C10   H1    1.083830 S    
C35   C37   1.404362 A    
C32   C39   1.404289 A    
C64   H34   1.110992 S    
C36   C38   1.418369 A    
C58   H22   1.108233 S    
C50   N3    1.365240 A    
C68   H45   1.107399 S    
O32   C64   1.414785 S    
C42   C44   1.402067 A    
O3    Cu1   1.987729 S    
C6    N2    1.369255 A    
C52   O16   1.397595 S    
C25   C38   1.417007 A    
Cu1   Cu2   2.699529 S    
C16   O22   1.389297 S    
C69   H48   1.112954 S    
C51   O14   1.398537 S    
O2    C2    1.302039 A    
C5    C21   1.414337 A    
C56   H17   1.115163 S    
C56   H16   1.109158 S    
C8    O11   1.348976 S    
C61   O28   1.397214 S    
C32   C34   1.406693 A    
C38   O32   1.384492 S    
C70   H52   1.108018 S    
C12   C61   1.489407 S    
C44   O38   1.386429 S    
O8    Cu2   1.948310 S    
C11   C27   1.420521 A    
O19   C55   1.416753 S    
O18   C54   1.413713 S    
C48   C49   1.433547 A    
Cu1   N3    2.028677 S    
C60   O26   1.396321 S    
C55   H15   1.109370 S    
C40   H4    1.074192 S    
C9    C17   1.393099 A    
C69   H47   1.113908 S    
C49   N4    1.379103 A    
O5    C3    1.302674 A    
O14   H5    1.012007 S    
C10   C18   1.398920 A    
C2    C45   1.470224 S    
C13   C27   1.422468 A    
C7    C25   1.407236 A    
O6    C4    1.306383 A    
C8    C26   1.409356 A    
O20   C56   1.413590 S    
C55   H14   1.113788 S    
C15   O21   1.386220 S    
C59   O24   1.395388 S    
C67   H41   1.114517 S    
C68   H46   1.109390 S    
C57   H20   1.114641 S    
C14   C52   1.480792 S    
C11   C62   1.486301 S    
O28   H27   1.013385 S    
C65   H36   1.109749 S    
N2    C8    1.368904 A    
C47   O17   1.376519 S    
C53   H8    1.114464 S    
O8    C3    1.303455 A    
C54   H11   1.114309 S    
C64   H32   1.107842 S    
C58   H24   1.106651 S    
C20   C26   1.413740 A    
O1    Cu1   1.985348 S    
C43   O37   1.383418 S    
O31   C63   1.411733 S    
C53   H9    1.111043 S    
C63   H31   1.109493 S    
C56   H18   1.109178 S    
C30   C31   1.426054 A    
C12   C28   1.416855 A    
O24   H25   1.013657 S    
N2    C18   1.445101 S    
C30   C36   1.421704 A    
C5    O9    1.345733 S    
O6    Cu2   1.947883 S    
C42   C45   1.409589 A    
C21   C23   1.424881 A    
O7    C4    1.299396 A    
Cu2   N4    2.028678 S    
C29   C35   1.415628 A    
C10   C12   1.399307 A    
O4    C1    1.302974 A    
C65   H37   1.109183 S    
C63   H30   1.108604 S    
C61   O27   1.223724 D    
C26   C37   1.418239 A    
O33   C65   1.416030 S    
C47   C50   1.433616 A    
C37   O31   1.384171 S    
C22   C24   1.423554 A    
C41   O35   1.383379 S    
C15   C17   1.401483 A    
C13   C51   1.480003 S    
O26   H26   1.013648 S    
C1    C46   1.471404 S    
C16   C18   1.407208 A    
C24   C60   1.481062 S    
C58   H23   1.115391 S    
C48   N3    1.363629 A    
C14   C16   1.416322 A    
C55   H13   1.104123 S    
C19   C21   1.418677 A    
C3    C27   1.480689 S    
C20   C22   1.416118 A    
C9    C11   1.398392 A    
O4    Cu2   1.987729 S    
C57   H19   1.109077 S    
O2    Cu2   1.985348 S    
C29   C32   1.414492 A    
C23   C59   1.482566 S    
C65   H35   1.115834 S    
O16   H6    1.012904 S    
C23   C39   1.402564 A    
C36   O34   1.387767 S    
O5    Cu1   1.947883 S    
C24   C40   1.399671 A    
O36   C68   1.412844 S    
C6    O10   1.346552 S    
C53   H7    1.106652 S    
C54   H12   1.109520 S    
C64   H33   1.107385 S    
C19   C34   1.407225 A    
O34   C66   1.413091 S    
C20   C33   1.413929 A    
C68   H44   1.115161 S    
C49   O19   1.377779 S    
C29   C33   1.407543 A    
C6    C22   1.414963 A    
C60   O25   1.222978 D    
C44   C46   1.412683 A    
N1    C7    1.364482 A    
