data_mof_unit_pretest_1517.cif
_audit_creation_date              2013-03-05T16:26:54-0500
_audit_creation_method            fapswitch 2.2
_symmetry_space_group_name_H-M    P1
_symmetry_Int_Tables_number       1
_space_group_crystal_system       triclinic
_cell_length_a                    38.493051
_cell_length_b                    32.22366
_cell_length_c                    21.868165
_cell_angle_alpha                 89.365708
_cell_angle_beta                  123.332749
_cell_angle_gamma                 90.638081
_cell_volume                      22660.9450418

loop_
_atom_site_label
_atom_site_type_symbol
_atom_site_description
_atom_site_fract_x
_atom_site_fract_y
_atom_site_fract_z
_atom_type_partial_charge
O1    O     O_R   0.940150 0.034640 0.440170 -0.561273
O2    O     O_R   0.059850 0.034640 0.559830 -0.545756
O3    O     O_R   0.440150 0.534640 0.440170 -0.590562
O4    O     O_R   0.559850 0.534640 0.559830 -0.529599
O5    O     O_R   0.940160 0.965370 0.440130 -0.556361
O6    O     O_R   0.059840 0.965370 0.559870 -0.572528
O7    O     O_R   0.440160 0.465370 0.440130 -0.527421
O8    O     O_R   0.559840 0.465370 0.559870 -0.588685
C1    C     C_R   0.920734 0.999849 0.415157 0.920832
C2    C     C_R   0.079390 0.000050 0.583586 0.919733
C3    C     C_R   0.420635 0.499953 0.416163 0.917585
C4    C     C_R   0.579370 0.500050 0.583813 0.916813
O9    O     O_R   0.999990 0.034640 0.590170 -0.588189
O10   O     O_R   0.000010 0.034640 0.409830 -0.583789
O11   O     O_R   0.499990 0.534640 0.590170 -0.553717
O12   O     O_R   0.500010 0.534640 0.409830 -0.577344
O13   O     O_R   1.000000 0.965370 0.590130 -0.547107
O14   O     O_R   0.000000 0.965370 0.409870 -0.553566
O15   O     O_R   0.500000 0.465370 0.590130 -0.580639
O16   O     O_R   0.500000 0.465370 0.409870 -0.555825
C5    C     C_R   0.996838 0.999936 0.615985 0.894102
C6    C     C_R   0.003292 0.000411 0.384189 0.880585
C7    C     C_R   0.496615 0.499612 0.615758 0.876746
C8    C     C_R   0.503268 0.500353 0.384099 0.879983
Cu1   Cu    Cu3+1 1.000000 0.041020 0.500000 1.083483
Cu2   Cu    Cu3+1 0.500000 0.541020 0.500000 1.092311
Cu3   Cu    Cu3+1 1.000000 0.958990 0.500000 1.096852
Cu4   Cu    Cu3+1 0.500000 0.458990 0.500000 1.089474
C9    C     C_1   0.000302 0.124213 0.000510 -0.155552
C10   C     C_1   0.500311 0.624217 0.000587 -0.153388
C11   C     C_R   0.919684 0.025579 0.615592 0.309416
C12   C     C_R   0.075510 0.038038 0.380135 0.312566
C13   C     C_R   0.422421 0.466246 0.618574 0.312468
C14   C     C_R   0.578786 0.529354 0.381398 0.317009
C15   C     C_R   0.886892 0.041765 0.619981 0.293157
C16   C     C_R   0.105317 0.059751 0.373350 0.293730
C17   C     C_R   0.391313 0.446506 0.624231 0.295225
C18   C     C_R   0.610515 0.547648 0.375874 0.298971
C19   C     C_R   0.894768 0.054111 0.686958 -0.229644
C20   C     C_R   0.097862 0.068013 0.305028 -0.232773
C21   C     C_R   0.398663 0.437325 0.692199 -0.241262
C22   C     C_R   0.602349 0.559225 0.308088 -0.232795
H1    H     H_    0.870007 0.067848 0.690202 0.190663
H2    H     H_    0.120570 0.085403 0.300099 0.192710
H3    H     H_    0.375191 0.420937 0.696401 0.190224
H4    H     H_    0.625964 0.575327 0.304022 0.191343
C23   C     C_R   0.933914 0.047340 0.750380 -0.192613
C24   C     C_R   0.061964 0.053000 0.243090 -0.200618
C25   C     C_R   0.435811 0.449624 0.754868 -0.198745
C26   C     C_R   0.564105 0.549552 0.245287 -0.193870
H5    H     H_    0.939289 0.059435 0.800991 0.174608
H6    H     H_    0.057214 0.061804 0.191231 0.176658
H7    H     H_    0.440684 0.439668 0.806368 0.176322
H8    H     H_    0.558440 0.560940 0.193816 0.173881
C27   C     C_R   0.964947 0.024337 0.748966 0.064355
C28   C     C_R   0.033201 0.027644 0.248053 0.067856
C29   C     C_R   0.465738 0.473815 0.751062 0.068080
C30   C     C_R   0.534105 0.525480 0.248734 0.066102
C31   C     C_R   0.959926 0.016971 0.680688 -0.104906
C32   C     C_R   0.037856 0.022519 0.316862 -0.105738
C33   C     C_R   0.461080 0.479399 0.682432 -0.111258
C34   C     C_R   0.539138 0.518826 0.317414 -0.112817
C35   C     C_R   0.995102 0.000423 0.681539 -0.117653
C36   C     C_R   0.004896 0.001883 0.318494 -0.123878
C37   C     C_R   0.495103 0.498224 0.681587 -0.127617
C38   C     C_R   0.504511 0.501650 0.317928 -0.125618
C39   C     C_R   0.031813 0.988769 0.748698 0.230783
C40   C     C_R   0.969958 0.985997 0.253305 0.235613
C41   C     C_R   0.530861 0.512420 0.747505 0.236911
C42   C     C_R   0.467993 0.489122 0.251568 0.237319
H9    H     H_    0.061329 0.979980 0.864000 0.192078
H10   H     H_    0.941819 0.974000 0.139642 0.190445
H11   H     H_    0.559549 0.523416 0.861732 0.192126
H12   H     H_    0.438746 0.479154 0.136860 0.191394
C43   C     C_R   0.033684 0.991446 0.813718 -0.192609
C44   C     C_R   0.968140 0.988139 0.188274 -0.196944
C45   C     C_R   0.532638 0.510330 0.812516 -0.196192
C46   C     C_R   0.466206 0.491176 0.186429 -0.194666
C47   C     C_R   0.000284 0.007930 0.814332 -0.127166
C48   C     C_R   0.999827 0.007438 0.185422 -0.123020
C49   C     C_R   0.500086 0.492425 0.814588 -0.126739
C50   C     C_R   0.499381 0.507811 0.184912 -0.126292
H13   H     H_    0.788121 0.951022 0.213425 0.160930
H14   H     H_    0.210914 0.950210 0.782457 0.160358
H15   H     H_    0.288438 0.461947 0.201039 0.163042
H16   H     H_    0.710929 0.455676 0.790814 0.150957
C51   C     C_R   0.728178 0.972310 0.185110 -0.149441
C52   C     C_R   0.271304 0.972190 0.812753 -0.150876
C53   C     C_R   0.228329 0.478546 0.178087 -0.151691
C54   C     C_R   0.771305 0.475320 0.817508 -0.148502
H17   H     H_    0.711487 0.951316 0.139012 0.151318
H18   H     H_    0.287542 0.950095 0.857501 0.150708
H19   H     H_    0.211816 0.462139 0.126093 0.150618
H20   H     H_    0.787548 0.455608 0.865770 0.149078
C55   C     C_R   0.706512 0.999438 0.202437 0.138110
C56   C     C_R   0.293569 0.000443 0.797405 0.138898
C57   C     C_R   0.206463 0.499790 0.202624 0.142103
C58   C     C_R   0.793547 0.500519 0.797613 0.138155
C59   C     C_R   0.728629 0.026256 0.262464 -0.159151
C60   C     C_R   0.272064 0.028702 0.739111 -0.160285
C61   C     C_R   0.228360 0.520783 0.270079 -0.157579
C62   C     C_R   0.772026 0.525748 0.734889 -0.159998
H21   H     H_    0.712264 0.047306 0.276585 0.155829
H22   H     H_    0.288902 0.050637 0.726549 0.155511
H23   H     H_    0.211825 0.537247 0.289800 0.150551
H24   H     H_    0.788843 0.545322 0.718825 0.157106
C63   C     C_R   0.772163 0.026093 0.304676 -0.108733
C64   C     C_R   0.228536 0.028767 0.696508 -0.116469
C65   C     C_R   0.271891 0.520666 0.312640 -0.119181
C66   C     C_R   0.728493 0.525799 0.692372 -0.106391
H25   H     H_    0.788900 0.046947 0.351012 0.192867
H26   H     H_    0.212254 0.050680 0.651440 0.189758
H27   H     H_    0.288448 0.536935 0.364791 0.169345
H28   H     H_    0.712211 0.545364 0.643901 0.194907
C67   C     C_R   0.793794 0.999147 0.287001 0.120061
C68   C     C_R   0.206309 0.000588 0.712059 0.120864
C69   C     C_R   0.293723 0.499573 0.287893 0.130323
C70   C     C_R   0.706289 0.500658 0.712417 0.123314
C71   C     C_R   0.771709 0.972164 0.227300 -0.155440
C72   C     C_R   0.227787 0.972274 0.770186 -0.153647
C73   C     C_R   0.271857 0.478466 0.220617 -0.148434
C74   C     C_R   0.727781 0.475378 0.774998 -0.160004
C75   C     C_1   0.661648 0.999700 0.158700 -0.039427
C76   C     C_1   0.338410 0.000311 0.841278 -0.040664
C77   C     C_1   0.161612 0.499892 0.158730 -0.040180
C78   C     C_1   0.838398 0.500368 0.841381 -0.040096
C79   C     C_1   0.838596 0.999096 0.330430 0.008176
C80   C     C_1   0.161523 0.000430 0.667866 0.003708
C81   C     C_1   0.338507 0.499596 0.331661 0.007425
C82   C     C_1   0.661493 0.500481 0.668350 0.007546
C83   C     C_1   0.876100 0.999298 0.367985 -0.001402
C84   C     C_1   0.124028 0.000246 0.630084 -0.001964
C85   C     C_1   0.376011 0.499723 0.369337 -0.001195
C86   C     C_1   0.624000 0.500271 0.630574 -0.001718
C87   C     C_1   0.624091 0.999868 0.122111 -0.137639
C88   C     C_1   0.375948 0.000166 0.877918 -0.137988
C89   C     C_1   0.124062 0.499955 0.122089 -0.138140
C90   C     C_1   0.875936 0.500202 0.877944 -0.137826
C91   C     C_1   0.500047 0.876116 0.000967 -0.089246
C92   C     C_1   0.000040 0.376113 0.000952 -0.089045
O17   O     O_R   0.034640 0.940150 0.034570 -0.571085
O18   O     O_R   0.965360 0.940150 0.965430 -0.570440
O19   O     O_R   0.534640 0.440150 0.034570 -0.570654
O20   O     O_R   0.465360 0.440150 0.965430 -0.587829
C93   C     C_R   0.999895 0.920375 0.999892 0.843454
C94   C     C_R   0.499892 0.420374 0.999859 0.821182
O21   O     O_R   0.034650 0.999990 0.944440 -0.583529
O22   O     O_R   0.965350 0.999990 0.055560 -0.582759
O23   O     O_R   0.534650 0.499990 0.944440 -0.583389
O24   O     O_R   0.465350 0.499990 0.055560 -0.583986
O25   O     O_R   0.965370 0.000000 0.875180 -0.583087
O26   O     O_R   0.034630 0.000000 0.124820 -0.583493
O27   O     O_R   0.465370 0.500000 0.875180 -0.583620
O28   O     O_R   0.534630 0.500000 0.124820 -0.582862
C95   C     C_R   0.000364 0.003311 0.881322 0.806392
C96   C     C_R   0.999707 0.002943 0.118628 0.804345
C97   C     C_R   0.500290 0.497003 0.881400 0.806013
C98   C     C_R   0.499612 0.502939 0.118509 0.806303
Cu5   Cu    Cu3+1 0.041020 0.999990 0.040980 0.991647
Cu6   Cu    Cu3+1 0.958980 0.999990 0.959020 0.991549
Cu7   Cu    Cu3+1 0.541020 0.499990 0.040980 0.991377
Cu8   Cu    Cu3+1 0.458980 0.499990 0.959020 0.990226
O29   O     O_R   0.034640 0.059840 0.034640 -0.585985
O30   O     O_R   0.965360 0.059840 0.965360 -0.584983
O31   O     O_R   0.534640 0.559840 0.034640 -0.585640
O32   O     O_R   0.465360 0.559840 0.965360 -0.569278
C99   C     C_R   0.000104 0.079606 0.000110 0.798377
C100  C     C_R   0.500106 0.579606 0.000132 0.820445
O33   O     O_R   0.500010 0.940200 0.052220 -0.566620
O34   O     O_R   0.499990 0.940200 0.947780 -0.565295
O35   O     O_R   0.000010 0.440200 0.052220 -0.566635
O36   O     O_R   0.999990 0.440200 0.947780 -0.565380
C101  C     C_R   0.500003 0.920725 0.000297 0.808485
C102  C     C_R   0.000001 0.420724 0.000294 0.809152
O37   O     O_R   0.559850 0.000040 0.111990 -0.567873
O38   O     O_R   0.440150 0.000040 0.888010 -0.568345
O39   O     O_R   0.059850 0.500040 0.111990 -0.568608
O40   O     O_R   0.940150 0.500040 0.888010 -0.568307
O41   O     O_R   0.559860 0.999970 0.007620 -0.577367
O42   O     O_R   0.440140 0.999970 0.992380 -0.577117
O43   O     O_R   0.059860 0.499970 0.007620 -0.577569
O44   O     O_R   0.940140 0.499970 0.992380 -0.577292
C103  C     C_R   0.579379 0.999997 0.078736 0.812239
C104  C     C_R   0.420634 0.000017 0.921277 0.812563
C105  C     C_R   0.079369 0.500001 0.078727 0.812929
C106  C     C_R   0.920632 0.500027 0.921278 0.812936
Cu9   Cu    Cu3+1 0.500000 0.000050 0.061780 1.012923
Cu10  Cu    Cu3+1 0.500000 0.000050 0.938220 1.012462
Cu11  Cu    Cu3+1 0.000000 0.500050 0.061780 1.011524
Cu12  Cu    Cu3+1 1.000000 0.500050 0.938220 1.012085
O45   O     O_R   0.499990 0.059890 0.052110 -0.575521
O46   O     O_R   0.500010 0.059890 0.947890 -0.576604
O47   O     O_R   0.999990 0.559890 0.052110 -0.576041
O48   O     O_R   0.000010 0.559890 0.947890 -0.576513
C107  C     C_R   0.499995 0.079396 0.999699 0.807078
C108  C     C_R   0.999999 0.579396 0.999704 0.807200
H29   H     H_    0.955443 0.787092 0.030263 0.149034
H30   H     H_    0.043770 0.789172 0.967462 0.148574
H31   H     H_    0.453287 0.287130 0.025218 0.148606
H32   H     H_    0.545828 0.289145 0.972072 0.145851
C109  C     C_R   0.473603 0.227607 0.013392 -0.159926
C110  C     C_R   0.525636 0.228732 0.983517 -0.160330
C111  C     C_R   0.974838 0.727584 0.016287 -0.159553
C112  C     C_R   0.024501 0.728745 0.980982 -0.160578
H33   H     H_    0.453393 0.210649 0.025035 0.147104
H34   H     H_    0.545942 0.212652 0.971907 0.145770
H35   H     H_    0.955549 0.710611 0.030025 0.147452
H36   H     H_    0.043881 0.712680 0.967238 0.146621
C113  C     C_R   0.499660 0.206301 0.998417 0.144846
C114  C     C_R   0.999704 0.706297 0.998571 0.144033
C115  C     C_R   0.024445 0.772196 0.981117 -0.158018
C116  C     C_R   0.974784 0.771030 0.016427 -0.157624
C117  C     C_R   0.525578 0.272184 0.983615 -0.160973
C118  C     C_R   0.473548 0.271054 0.013497 -0.157886
C119  C     C_R   0.999586 0.793481 0.998858 0.144424
C120  C     C_R   0.499534 0.293486 0.998633 0.145165
C121  C     C_1   0.499808 0.161518 0.998606 -0.051269
C122  C     C_1   0.999838 0.661516 0.998687 -0.051155
C123  C     C_1   0.999602 0.838261 0.999163 -0.044997
C124  C     C_1   0.499570 0.338266 0.998970 -0.049217
C125  C     C_1   0.999682 0.875742 0.999471 -0.151299
C126  C     C_1   0.499668 0.375746 0.999342 -0.154548
C127  C     C_1   0.499910 0.124034 0.998977 -0.146478
C128  C     C_1   0.999927 0.624032 0.999008 -0.146646
H37   H     H_    0.952338 0.211794 0.885993 0.180547
H38   H     H_    0.048157 0.211216 0.115880 0.181247
H39   H     H_    0.452744 0.711801 0.885950 0.183289
H40   H     H_    0.547769 0.711222 0.116108 0.180926
C129  C     C_R   0.473237 0.771877 0.936067 0.244016
C130  C     C_R   0.527025 0.771559 0.066321 0.245718
C131  C     C_R   0.973001 0.271872 0.936078 0.244925
C132  C     C_R   0.027239 0.271552 0.066179 0.245187
C133  C     C_R   0.500092 0.793757 0.001246 -0.006119
C134  C     C_R   0.000080 0.293752 0.001191 -0.006561
C135  C     C_R   0.027186 0.228088 0.065700 -0.183202
C136  C     C_R   0.973242 0.228411 0.936283 -0.183867
C137  C     C_R   0.526972 0.728093 0.065862 -0.184276
C138  C     C_R   0.473475 0.728417 0.936293 -0.179536
C139  C     C_R   0.000272 0.206446 0.000916 0.038131
C140  C     C_R   0.500280 0.706452 0.001011 0.037506
C141  C     C_1   0.500080 0.838640 0.001241 0.094778
C142  C     C_1   0.000068 0.338637 0.001207 0.094490
C143  C     C_1   0.000340 0.161681 0.000748 -0.001748
C144  C     C_1   0.500351 0.661685 0.000849 0.001956
Br1   Br    Br    0.081005 0.968734 0.755258 -0.531404
Br2   Br    Br    0.922596 0.961646 0.248748 -0.527136
Br3   Br    Br    0.579195 0.534685 0.752742 -0.515076
Br4   Br    Br    0.418939 0.469090 0.246097 -0.529813
Br5   Br    Br    0.435781 0.800176 0.845558 -0.466876
Br6   Br    Br    0.564386 0.799419 0.156947 -0.463552
Br7   Br    Br    0.935231 0.300170 0.845688 -0.468363
Br8   Br    Br    0.064912 0.299411 0.156712 -0.458768
N1    N     N_R   0.910054 0.014842 0.545213 0.088641
O49   O     O_R   0.891852 0.042435 0.493097 -0.360070
O50   O     O_R   0.906845 0.975707 0.528800 -0.373864
N2    N     N_R   0.086449 0.028741 0.452159 0.090287
O51   O     O_R   0.101165 0.992139 0.478449 -0.390663
O52   O     O_R   0.096269 0.059556 0.496917 -0.332882
N3    N     N_R   0.412532 0.473997 0.546941 0.086230
O53   O     O_R   0.394490 0.508874 0.515929 -0.393728
O54   O     O_R   0.405347 0.441725 0.506267 -0.326336
N4    N     N_R   0.588430 0.521594 0.452841 0.083106
O55   O     O_R   0.605168 0.486325 0.483402 -0.380082
O56   O     O_R   0.596432 0.553803 0.493761 -0.341054
Br9   Br    Br    0.829886 0.045546 0.536445 -0.420346
Br10  Br    Br    0.158194 0.077450 0.456767 -0.407948
Br11  Br    Br    0.337801 0.431369 0.539321 -0.379827
Br12  Br    Br    0.665646 0.558144 0.460594 -0.417038

loop_
_geom_bond_atom_site_label_1
_geom_bond_atom_site_label_2
_geom_bond_distance
_ccdc_geom_bond_type
C30   C34   1.418864 A    
O19   C94   1.283436 A    
C115  C119  1.401813 A    
C52   C56   1.402858 A    
C121  C127  1.207845 T    
C27   C31   1.418722 A    
C42   C46   1.388711 A    
H31   C118  1.083485 S    
O28   Cu7   1.979287 S    
C41   C45   1.386188 A    
O3    C3    1.284590 A    
C87   C103  1.438019 S    
C64   C68   1.402769 A    
H10   C44   1.086905 S    
C131  Br7   1.919311 S    
C66   C70   1.402671 A    
C124  C126  1.207794 T    
Cu7   Cu8   2.639076 S    
C39   C43   1.387217 A    
C67   C79   1.440898 S    
C129  Br5   1.918578 S    
C37   C41   1.414835 A    
C51   C71   1.400012 A    
C27   C47   1.426698 A    
C26   H8    1.082594 S    
H15   C73   1.089450 S    
C17   C21   1.380866 A    
Cu6   O30   1.938280 S    
N2    O52   1.301323 A    
C90   C106  1.437482 S    
C18   C22   1.383341 A    
C24   H6    1.079896 S    
C51   H17   1.086412 S    
C3    C85   1.437348 S    
Cu5   Cu6   2.639076 S    
O44   C106  1.303185 A    
N1    O49   1.301624 A    
C50   C98   1.467181 S    
C55   C59   1.405450 A    
C10   C100  1.437565 S    
C93   C125  1.438270 S    
C61   C65   1.400037 A    
C138  C140  1.399230 A    
C140  C144  1.442621 S    
O39   C105  1.301682 A    
H14   C72   1.084622 S    
O35   Cu11  1.942210 S    
C130  C133  1.408616 A    
C24   C28   1.419549 A    
O22   Cu6   1.987004 S    
H13   C71   1.086333 S    
C16   Br10  1.926757 S    
C23   C27   1.427630 A    
C18   Br12  1.930630 S    
C69   C73   1.408548 A    
C130  Br6   1.918386 S    
O5    Cu3   1.937119 S    
C41   Br3   1.930628 S    
C60   H22   1.084595 S    
O33   C101  1.303278 A    
O16   C8    1.290319 A    
O36   C102  1.302370 A    
C51   C55   1.405053 A    
H16   C74   1.084480 S    
C111  C114  1.401725 A    
C54   H20   1.084927 S    
C131  C136  1.400528 A    
C132  Br8   1.919244 S    
O44   Cu11  1.941490 S    
O25   C95   1.281504 A    
C52   C72   1.399601 A    
O14   C6    1.291289 A    
O21   C95   1.286964 A    
C68   C72   1.402823 A    
C66   H28   1.085213 S    
O41   C103  1.303448 A    
C88   C104  1.437179 S    
C134  C142  1.446345 S    
O17   C93   1.283337 A    
O11   C7    1.290993 A    
C12   C16   1.412424 A    
O26   Cu5   1.979287 S    
O21   Cu5   1.987006 S    
O12   C8    1.283525 A    
C10   C144  1.207432 T    
C42   Br4   1.929435 S    
O32   C100  1.283264 A    
C54   C74   1.399781 A    
O18   C93   1.283901 A    
O9    Cu1   1.980486 S    
C82   C86   1.206240 T    
C135  C139  1.399820 A    
C129  C133  1.408536 A    
C80   C84   1.206316 T    
C14   N4    1.413233 S    
C109  C113  1.402127 A    
Cu2   Cu4   2.643304 S    
O17   Cu5   1.937983 S    
C48   C96   1.466885 S    
Cu12  O48   1.942126 S    
C89   C105  1.437354 S    
C1    C83   1.438152 S    
O12   Cu2   1.985011 S    
O15   Cu4   1.983933 S    
O24   Cu8   1.987004 S    
O35   C102  1.303309 A    
C35   C39   1.419031 A    
O4    Cu2   1.937413 S    
C60   C64   1.399928 A    
C61   H23   1.089420 S    
O39   Cu11  1.932132 S    
C11   N1    1.416928 S    
C65   C69   1.407744 A    
C12   N2    1.418192 S    
O13   Cu3   1.983933 S    
O46   C107  1.301997 A    
O26   C96   1.279443 A    
C16   C20   1.381006 A    
C34   C38   1.443286 A    
C49   C97   1.465803 S    
O33   Cu9   1.942210 S    
C57   C77   1.442500 S    
C59   H21   1.086377 S    
O38   C104  1.301594 A    
N1    O50   1.300867 A    
C11   C15   1.422509 A    
O43   C105  1.303289 A    
O15   C7    1.282856 A    
C76   C88   1.207313 T    
N4    O56   1.297428 A    
O41   Cu10  1.941507 S    
O16   Cu4   1.979408 S    
C2    C84   1.437396 S    
C77   C89   1.207668 T    
C58   C62   1.403611 A    
H39   C138  1.083291 S    
C111  H35   1.083131 S    
C132  C135  1.400714 A    
O13   C5    1.291411 A    
H38   C135  1.083711 S    
C64   H26   1.085509 S    
C53   C57   1.407941 A    
C26   C30   1.419668 A    
C15   C19   1.384789 A    
C70   C74   1.402485 A    
O5    C1    1.283770 A    
C70   C82   1.440713 S    
O42   Cu9   1.941490 S    
C119  C123  1.443066 S    
C123  C125  1.207825 T    
O20   C94   1.283826 A    
O36   Cu12  1.937600 S    
O43   Cu12  1.941507 S    
C46   C50   1.396463 A    
O7    C3    1.286170 A    
O6    Cu3   1.934749 S    
C33   C37   1.446413 A    
C116  C119  1.401442 A    
C20   H2    1.086727 S    
O29   C99   1.283822 A    
O8    C4    1.284450 A    
O47   C108  1.301118 A    
C57   C61   1.409607 A    
N2    O51   1.297869 A    
C13   N3    1.413940 S    
C17   Br11  1.929486 S    
C132  C134  1.409157 A    
O48   C108  1.302014 A    
C9    C143  1.207390 T    
O1    C1    1.288508 A    
C52   H18   1.085093 S    
C40   C44   1.385890 A    
C15   Br9   1.939767 S    
C122  C128  1.207820 T    
H30   C115  1.083137 S    
C63   C67   1.404929 A    
C108  C128  1.438294 S    
Cu9   O45   1.937480 S    
C22   C26   1.388427 A    
O40   Cu12  1.932128 S    
C81   C85   1.206511 T    
C19   C23   1.394849 A    
C56   C76   1.442171 S    
C133  C141  1.446302 S    
N3    O54   1.301056 A    
H9    C43   1.091671 S    
O31   C100  1.283755 A    
C67   C71   1.404313 A    
C22   H4    1.086607 S    
O10   C6    1.281235 A    
O8    Cu4   1.934749 S    
Cu5   O29   1.940666 S    
C111  C116  1.400060 A    
C91   C101  1.437398 S    
C139  C143  1.442582 S    
O23   Cu7   1.987006 S    
C12   C32   1.435458 A    
C110  C113  1.401839 A    
O34   Cu10  1.937600 S    
N3    O53   1.299314 A    
O2    C2    1.286253 A    
C14   C34   1.433250 A    
C36   C40   1.413082 A    
C69   C81   1.440330 S    
C112  H36   1.083179 S    
O37   C103  1.301813 A    
C117  C120  1.402207 A    
C11   C31   1.442320 A    
C62   H24   1.084520 S    
C20   C24   1.385918 A    
C110  H34   1.083490 S    
C78   C90   1.207315 T    
O38   Cu10  1.932128 S    
C53   H19   1.089905 S    
O24   C98   1.283836 A    
C43   C47   1.403453 A    
O20   Cu8   1.940336 S    
C14   C18   1.413601 A    
H37   C136  1.083775 S    
C63   H25   1.086903 S    
O3    Cu2   1.935043 S    
O14   Cu3   1.979408 S    
C44   C48   1.394353 A    
C112  C114  1.401521 A    
O18   Cu6   1.940336 S    
O11   Cu2   1.980486 S    
C114  C122  1.443057 S    
O6    C2    1.284246 A    
C25   C29   1.423209 A    
C23   H5    1.084306 S    
O1    Cu1   1.935043 S    
C29   C33   1.419860 A    
N4    O55   1.296027 A    
C65   H27   1.090250 S    
Cu1   Cu3   2.643304 S    
C21   C25   1.387688 A    
C59   C63   1.400127 A    
H12   C46   1.087814 S    
C31   C35   1.451292 A    
C28   C48   1.420426 A    
C136  C139  1.399754 A    
Cu10  O46   1.942126 S    
O27   Cu8   1.979279 S    
C32   C36   1.443450 A    
C40   Br2   1.928605 S    
O25   Cu6   1.979279 S    
C7    C37   1.472535 S    
C79   C83   1.206447 T    
C30   C50   1.417430 A    
C118  C120  1.401742 A    
C113  C121  1.443095 S    
H40   C137  1.083293 S    
H29   C116  1.083171 S    
C21   H3    1.087745 S    
O10   Cu1   1.985011 S    
O9    C5    1.281507 A    
C107  C127  1.438335 S    
C39   Br1   1.936355 S    
C9    C99   1.437437 S    
C4    C86   1.437474 S    
C38   C42   1.415380 A    
C53   C73   1.399965 A    
C13   C33   1.435075 A    
C94   C126  1.438159 S    
C56   C60   1.403891 A    
C112  C115  1.400217 A    
O19   Cu7   1.937983 S    
C13   C17   1.413450 A    
Cu8   O32   1.938280 S    
O2    Cu1   1.937413 S    
C92   C142  1.207598 T    
O30   C99   1.283202 A    
C110  C117  1.400236 A    
O27   C97   1.279199 A    
Cu11  Cu12  2.702028 S    
C91   C141  1.207564 T    
C29   C49   1.421191 A    
O45   C107  1.301154 A    
C109  C118  1.400066 A    
C5    C35   1.471593 S    
C25   H7    1.080554 S    
C62   C66   1.400085 A    
C131  C134  1.409181 A    
O7    Cu4   1.937119 S    
C47   C95   1.469143 S    
O40   C106  1.301709 A    
Cu11  O47   1.937480 S    
C58   C78   1.442511 S    
C28   C32   1.422125 A    
C8    C38   1.473971 S    
C19   H1    1.092603 S    
H11   C45   1.088230 S    
C92   C102  1.437448 S    
C45   C49   1.396692 A    
C68   C80   1.440461 S    
C137  C140  1.399211 A    
C75   C87   1.207892 T    
O28   C98   1.281830 A    
C109  H33   1.083385 S    
C130  C137  1.400729 A    
Cu9   Cu10  2.702028 S    
O22   C96   1.286760 A    
C6    C36   1.471693 S    
C129  C138  1.400511 A    
O4    C4    1.286322 A    
C120  C124  1.443054 S    
O23   C97   1.286588 A    
C54   C58   1.402757 A    
O37   Cu9   1.932132 S    
Cu7   O31   1.940666 S    
O42   C104  1.303221 A    
C55   C75   1.442974 S    
O34   C101  1.302373 A    
H32   C117  1.083389 S    
