data_mof_unit_pretest_1989.cif
_audit_creation_date              2012-12-10T17:10:00-0500
_audit_creation_method            fapswitch 2.2
_symmetry_space_group_name_H-M    P1
_symmetry_Int_Tables_number       1
_space_group_crystal_system       triclinic
_cell_length_a                    37.508748
_cell_length_b                    30.26684
_cell_length_c                    21.466738
_cell_angle_alpha                 90.000632
_cell_angle_beta                  53.854403
_cell_angle_gamma                 90.000159
_cell_volume                      19679.7414123

loop_
_atom_site_label
_atom_site_type_symbol
_atom_type_description
_atom_site_fract_x
_atom_site_fract_y
_atom_site_fract_z
_atom_type_partial_charge
Br1   Br    Br    0.198569 0.631719 0.349456 -0.360731
Br2   Br    Br    0.868794 0.422108 0.708750 -0.306050
Br3   Br    Br    0.631215 0.922083 0.291267 -0.306077
Br4   Br    Br    0.368802 0.922118 0.708779 -0.306136
Br5   Br    Br    0.201496 0.361624 0.288276 -0.286181
Br6   Br    Br    0.798589 0.361614 0.710921 -0.286201
Br7   Br    Br    0.701381 0.861609 0.289258 -0.286231
Br8   Br    Br    0.298594 0.861612 0.710983 -0.286196
Br9   Br    Br    0.301435 0.372993 0.125629 -0.350465
Br10  Br    Br    0.698523 0.372690 0.873345 -0.350689
Br11  Br    Br    0.801544 0.872578 0.127033 -0.350626
Br12  Br    Br    0.801462 0.631871 0.651385 -0.360797
Br13  Br    Br    0.198476 0.872673 0.873288 -0.350560
Br14  Br    Br    0.552005 0.630794 0.060826 -0.399602
Br15  Br    Br    0.447787 0.630737 0.939528 -0.399217
Br16  Br    Br    0.052065 0.130763 0.060744 -0.399672
Br17  Br    Br    0.947978 0.130779 0.939186 -0.399838
Br18  Br    Br    0.508800 0.699297 0.800875 -0.366176
Br19  Br    Br    0.490833 0.699321 0.199499 -0.366324
Br20  Br    Br    0.009106 0.199328 0.800569 -0.366260
Br21  Br    Br    0.990975 0.199327 0.199353 -0.366187
Br22  Br    Br    0.547190 0.367503 0.832602 -0.386333
Br23  Br    Br    0.698521 0.131939 0.348176 -0.360743
Br24  Br    Br    0.452636 0.367552 0.167471 -0.386160
Br25  Br    Br    0.047145 0.867512 0.832582 -0.386342
Br26  Br    Br    0.952899 0.867499 0.167393 -0.386448
Br27  Br    Br    0.522183 0.303839 0.165670 -0.348918
Br28  Br    Br    0.477557 0.303795 0.834640 -0.348865
Br29  Br    Br    0.022620 0.803810 0.165123 -0.348847
Br30  Br    Br    0.977448 0.803819 0.834788 -0.348846
Br31  Br    Br    0.099023 0.533248 0.694180 -0.404406
Br32  Br    Br    0.900932 0.533115 0.305894 -0.404495
Br33  Br    Br    0.599085 0.033048 0.694108 -0.404608
Br34  Br    Br    0.301468 0.131884 0.651504 -0.360722
Br35  Br    Br    0.400932 0.033111 0.305871 -0.404617
Br36  Br    Br    0.926326 0.571203 0.878362 -0.425387
Br37  Br    Br    0.073581 0.571298 0.121712 -0.425595
Br38  Br    Br    0.426456 0.071326 0.878243 -0.425560
Br39  Br    Br    0.573578 0.071295 0.121735 -0.425421
Br40  Br    Br    0.901344 0.472362 0.809829 -0.341422
Br41  Br    Br    0.098726 0.472523 0.189997 -0.341252
Br42  Br    Br    0.401290 0.972558 0.809841 -0.341497
Br43  Br    Br    0.598685 0.972493 0.190206 -0.341536
Br44  Br    Br    0.125231 0.564215 0.475414 -0.404273
Br45  Br    Br    0.874707 0.564465 0.524933 -0.404109
Br46  Br    Br    0.625333 0.064580 0.474873 -0.404061
Br47  Br    Br    0.374692 0.064485 0.524990 -0.404119
Br48  Br    Br    0.131142 0.422209 0.291107 -0.306222
C1    C     C_R   0.085778 0.499755 0.414964 0.867039
C2    C     C_R   0.655830 0.458383 0.843695 0.085957
C3    C     C_R   0.986140 0.158545 0.960931 0.243043
C4    C     C_R   0.499944 0.634865 0.000072 -0.227005
C5    C     C_R   0.000012 0.134867 0.999986 -0.227157
C6    C     C_R   0.492613 0.704584 0.951424 -0.037730
C7    C     C_R   0.507177 0.704592 0.048832 -0.037756
C8    C     C_R   0.992767 0.204592 0.951238 -0.037755
C9    C     C_R   0.007282 0.204591 0.048709 -0.037752
C10   C     C_R   0.499903 0.727862 0.000116 -0.108785
C11   C     C_R   0.000023 0.227865 0.999975 -0.108821
C12   C     C_R   0.491171 0.728042 0.895908 0.316816
C13   C     C_R   0.844157 0.958375 0.156540 0.085838
C14   C     C_R   0.508577 0.728052 0.104390 0.316900
C15   C     C_R   0.991367 0.228053 0.895680 0.316905
C16   C     C_R   0.008692 0.228052 0.104256 0.316878
C17   C     C_R   0.987043 0.274368 0.900297 0.078178
C18   C     C_R   0.013010 0.274368 0.099646 0.078161
C19   C     C_R   0.486880 0.774361 0.900489 0.078162
C20   C     C_R   0.512907 0.774367 0.099766 0.078222
C21   C     C_R   0.992011 0.297656 0.951966 0.086114
C22   C     C_R   0.008026 0.297657 0.047997 0.086126
C23   C     C_R   0.491909 0.797653 0.952083 0.086130
C24   C     C_R   0.155838 0.958378 0.843602 0.085924
C25   C     C_R   0.507957 0.797654 0.048073 0.086096
C26   C     C_3   0.992165 0.461354 0.779070 0.082759
C27   C     C_3   0.007894 0.461366 0.220862 0.082743
C28   C     C_3   0.492086 0.961359 0.779145 0.082774
C29   C     C_3   0.507890 0.961359 0.220877 0.082783
C30   C     C_R   0.000020 0.274342 0.999979 0.022033
C31   C     C_R   0.499922 0.774339 0.000090 0.022037
C32   C     C_R   0.990857 0.344003 0.954783 -0.199470
C33   C     C_R   0.009161 0.344005 0.045202 -0.199457
C34   C     C_R   0.490801 0.844003 0.954843 -0.199465
C35   C     C_R   0.366340 0.499088 0.136635 -0.044269
C36   C     C_R   0.509144 0.844000 0.045210 -0.199461
C37   C     C_R   0.000003 0.366707 0.000000 -0.036909
C38   C     C_R   0.499994 0.866705 0.999999 -0.036914
C39   C     C_R   0.510456 0.341178 0.934404 0.250132
C40   C     C_R   0.489419 0.341194 0.065700 0.250042
C41   C     C_R   0.010459 0.841182 0.934384 0.250213
C42   C     C_R   0.989573 0.841178 0.065582 0.250240
C43   C     C_R   0.499959 0.364993 0.000033 -0.229665
C44   C     C_R   0.000011 0.864989 0.999989 -0.229757
C45   C     C_R   0.497689 0.295405 0.059349 -0.030649
C46   C     C_R   0.633661 0.499096 0.863373 -0.044443
C47   C     C_R   0.502165 0.295393 0.940801 -0.030673
C48   C     C_R   0.997862 0.795392 0.059173 -0.030641
C49   C     C_R   0.002176 0.795395 0.940781 -0.030641
C50   C     C_R   0.499934 0.272127 0.000073 -0.084316
C51   C     C_R   0.000017 0.772122 0.999978 -0.084294
C52   C     C_R   0.505059 0.272404 0.108289 0.311978
C53   C     C_R   0.494776 0.272380 0.891896 0.312022
C54   C     C_R   0.005324 0.772385 0.107987 0.312052
C55   C     C_R   0.994717 0.772389 0.891959 0.312041
C56   C     C_R   0.007674 0.725800 0.105427 0.063682
C57   C     C_R   0.866335 0.999091 0.136630 -0.044554
C58   C     C_R   0.992352 0.725805 0.894532 0.063747
C59   C     C_R   0.507438 0.225820 0.105711 0.063787
C60   C     C_R   0.492438 0.225795 0.894444 0.063719
C61   C     C_R   0.999015 0.702430 0.058275 0.084197
C62   C     C_R   0.001002 0.702430 0.941692 0.084198
C63   C     C_R   0.498884 0.202437 0.058429 0.084195
C64   C     C_R   0.501031 0.202431 0.941686 0.084186
C65   C     C_3   0.001614 0.501846 0.810068 -0.190060
C66   C     C_3   0.998383 0.501844 0.189931 -0.189963
C67   C     C_3   0.501613 0.001830 0.810068 -0.189948
C68   C     C_R   0.133664 0.999091 0.863366 -0.044498
C69   C     C_3   0.498387 0.001837 0.189932 -0.189981
C70   C     C_R   0.000012 0.725689 0.999980 -0.036726
C71   C     C_R   0.499948 0.225694 0.000065 -0.036739
C72   C     C_R   0.990649 0.656464 0.065034 0.074384
C73   C     C_R   0.009352 0.656460 0.934947 0.074333
C74   C     C_R   0.490554 0.156464 0.065133 0.074307
C75   C     C_R   0.509412 0.156468 0.934938 0.074293
C76   C     C_R   1.000000 0.633484 0.999993 -0.044581
C77   C     C_R   0.499995 0.133487 0.000023 -0.044604
C78   C     C_3   0.040796 0.514489 0.727673 0.281061
C79   C     C_R   0.342759 0.538753 0.167688 0.074042
C80   C     C_3   0.959189 0.514433 0.272349 0.280953
C81   C     C_3   0.540820 0.014401 0.727650 0.280861
C82   C     C_3   0.459186 0.014429 0.272344 0.280913
C83   C     C_3   0.009323 0.542372 0.719690 0.020266
C84   C     C_3   0.990629 0.542359 0.280360 0.020202
C85   C     C_3   0.509401 0.042347 0.719615 0.020137
C86   C     C_3   0.490620 0.042355 0.280369 0.020171
C87   C     C_3   0.970301 0.529895 0.802338 0.195903
C88   C     C_3   0.029662 0.529936 0.197689 0.195902
C89   C     C_3   0.470354 0.029943 0.802285 0.195965
C90   C     C_R   0.657244 0.538796 0.832755 0.073481
C91   C     C_3   0.529661 0.029930 0.197705 0.195947
C92   C     C_3   0.960653 0.489113 0.771393 0.281195
C93   C     C_3   0.039372 0.489168 0.228565 0.281345
C94   C     C_3   0.460629 0.989182 0.771412 0.281298
C95   C     C_3   0.539362 0.989162 0.228598 0.281242
C96   C     C_3   0.983081 0.414977 0.811731 -0.788522
C97   C     C_3   0.017032 0.414999 0.188143 -0.788413
C98   C     C_3   0.482916 0.914996 0.811887 -0.788382
C99   C     C_3   0.517033 0.914995 0.188150 -0.788433
C100  C     C_3   0.978305 0.298885 0.848962 -0.746835
C101  C     C_R   0.842753 0.038809 0.167015 0.073160
C102  C     C_3   0.021757 0.298884 0.150971 -0.746798
C103  C     C_3   0.478110 0.798878 0.849195 -0.746764
C104  C     C_3   0.521628 0.798887 0.151123 -0.746884
C105  C     C_3   0.026232 0.702581 0.143233 -0.707863
C106  C     C_3   0.973784 0.702594 0.856736 -0.707996
C107  C     C_3   0.525926 0.202619 0.143652 -0.708076
C108  C     C_3   0.473958 0.202565 0.856512 -0.707954
C109  C     C_3   0.968275 0.632340 0.141430 -0.784468
C110  C     C_3   0.031709 0.632326 0.858563 -0.784420
C111  C     C_3   0.468127 0.132326 0.141526 -0.784284
C112  C     C_R   0.914220 0.499757 0.585031 0.866942
C113  C     C_R   0.157247 0.038797 0.832822 0.073362
C114  C     C_3   0.531863 0.132350 0.858521 -0.784217
C115  C     C_3   0.018288 0.589432 0.688832 -0.631562
C116  C     C_3   0.981606 0.589408 0.311278 -0.631594
C117  C     C_3   0.518459 0.089390 0.688670 -0.631601
C118  C     C_3   0.481588 0.089403 0.311294 -0.631589
C119  C     C_3   0.370160 0.416429 0.140931 -0.705933
C120  C     C_3   0.629870 0.416477 0.858181 -0.705759
C121  C     C_3   0.870088 0.916505 0.142416 -0.705788
C122  C     C_3   0.129896 0.916488 0.857909 -0.705842
C123  C     C_3   0.366365 0.581722 0.129346 -0.781107
C124  C     C_R   0.296795 0.536938 0.226985 0.093220
C125  C     C_3   0.633667 0.581684 0.871649 -0.780377
C126  C     C_3   0.866324 0.081649 0.127863 -0.779958
C127  C     C_3   0.133668 0.081667 0.871790 -0.780242
C128  C     C_3   0.294478 0.609019 0.292442 -0.717679
C129  C     C_3   0.705471 0.609423 0.708652 -0.717926
C130  C     C_3   0.794558 0.109609 0.290771 -0.718023
C131  C     C_3   0.205462 0.109465 0.708816 -0.717973
C132  C     C_R   0.703199 0.537038 0.773384 0.093315
C133  C     C_R   0.796800 0.037084 0.226405 0.093397
C134  C     C_R   0.203201 0.037049 0.773450 0.093372
C135  C     C_R   0.273892 0.497453 0.235597 -0.040511
C136  C     C_R   0.726107 0.497489 0.764403 -0.040433
C137  C     C_R   0.773890 0.997507 0.235560 -0.040389
C138  C     C_R   0.226110 0.997493 0.764424 -0.040421
C139  C     C_R   0.297729 0.458334 0.196138 0.008946
C140  C     C_R   0.585780 0.999758 0.414963 0.866896
C141  C     C_R   0.702275 0.458303 0.803507 0.009007
C142  C     C_R   0.797720 0.958289 0.196645 0.009078
C143  C     C_R   0.202278 0.958299 0.803467 0.009044
C144  C     C_R   0.272795 0.573492 0.275555 0.066735
C145  C     C_R   0.727187 0.573694 0.725108 0.066772
C146  C     C_R   0.772820 0.073791 0.274527 0.066741
C147  C     C_R   0.227186 0.073718 0.725219 0.066736
C148  C     C_R   0.226617 0.574191 0.318355 0.311873
C149  C     C_R   0.773373 0.574353 0.682204 0.311821
C150  C     C_R   0.726630 0.074431 0.317483 0.311829
C151  C     C_R   0.414220 0.999757 0.585037 0.866939
C152  C     C_R   0.273373 0.074372 0.682301 0.311846
C153  C     C_R   0.203309 0.535355 0.326209 -0.021151
C154  C     C_R   0.796681 0.535453 0.674042 -0.021177
C155  C     C_R   0.703323 0.035500 0.325789 -0.021189
C156  C     C_R   0.296680 0.035464 0.674105 -0.021178
C157  C     C_R   0.999575 0.500221 0.620743 0.862662
C158  C     C_R   0.000434 0.500221 0.379246 0.862519
C159  C     C_R   0.499576 0.000221 0.620742 0.862483
C160  C     C_R   0.500421 0.000221 0.379261 0.862530
C161  C     C_R   0.227192 0.497245 0.282918 -0.080690
C162  C     C_3   0.999784 0.501444 0.688882 -0.174546
C163  C     C_R   0.772803 0.497284 0.717086 -0.080705
C164  C     C_R   0.727197 0.997304 0.282857 -0.080721
C165  C     C_R   0.272804 0.997289 0.717125 -0.080714
C166  C     C_R   0.204299 0.458845 0.287000 -0.060284
C167  C     C_R   0.795698 0.458830 0.712777 -0.060332
C168  C     C_R   0.704301 0.958827 0.287256 -0.060336
C169  C     C_R   0.295699 0.958831 0.712804 -0.060324
C170  C     C_R   0.228221 0.419411 0.252078 0.283599
C171  C     C_R   0.771789 0.419350 0.747407 0.283528
C172  C     C_R   0.728209 0.919330 0.252734 0.283426
C173  C     C_3   0.000230 0.501445 0.311101 -0.174562
C174  C     C_R   0.271788 0.919349 0.747421 0.283457
C175  C     C_R   0.274206 0.420395 0.200705 0.216633
C176  C     C_R   0.725794 0.420292 0.798681 0.216633
C177  C     C_R   0.774211 0.920253 0.201545 0.216613
C178  C     C_R   0.225789 0.920285 0.798647 0.216619
C179  C     C_R   0.156878 0.532492 0.378441 0.243084
C180  C     C_R   0.843107 0.532591 0.621751 0.243281
C181  C     C_R   0.656901 0.032636 0.378124 0.243349
C182  C     C_R   0.343105 0.032599 0.621796 0.243279
C183  C     C_R   0.134485 0.498541 0.369921 -0.211953
C184  C     C_3   0.499786 0.001441 0.688880 -0.174521
C185  C     C_R   0.865509 0.498557 0.630078 -0.212064
C186  C     C_R   0.634492 0.998564 0.369892 -0.212074
C187  C     C_R   0.365510 0.998559 0.630101 -0.212033
C188  C     C_R   0.158604 0.462079 0.321881 0.260293
C189  C     C_R   0.841386 0.462048 0.677968 0.260364
C190  C     C_R   0.658614 0.962040 0.322047 0.260437
C191  C     C_R   0.341388 0.962050 0.677995 0.260416
C192  C     C_R   0.000000 0.414643 0.000002 0.767258
C193  C     C_R   0.500000 0.914643 0.999995 0.767246
C194  C     C_R   0.000497 0.500894 0.879334 0.835961
C195  C     C_3   0.500211 0.001442 0.311124 -0.174518
C196  C     C_R   0.999502 0.500893 0.120666 0.835976
C197  C     C_R   0.500497 0.000885 0.879334 0.835984
C198  C     C_R   0.499503 0.000889 0.120666 0.835975
C199  C     C_R   1.000000 0.585370 0.999997 0.811094
C200  C     C_R   0.499999 0.085371 0.000011 0.811167
C201  C     C_3   0.031639 0.473426 0.695915 -0.219235
C202  C     C_3   0.968409 0.473384 0.304039 -0.219400
C203  C     C_3   0.531584 0.973358 0.695968 -0.219443
C204  C     C_3   0.468397 0.973379 0.304047 -0.219377
C205  C     C_R   0.499990 0.414022 0.000008 0.819202
C206  C     C_R   0.344179 0.458388 0.155893 0.086165
C207  C     C_R   0.000003 0.914021 0.999997 0.819384
C208  C     C_R   0.414620 0.500057 0.086114 0.786097
C209  C     C_R   0.585381 0.500059 0.913887 0.786213
C210  C     C_R   0.914618 0.000044 0.086115 0.786254
C211  C     C_R   0.085382 0.000049 0.913885 0.786223
C212  C     C_R   0.499986 0.585875 0.000017 0.827249
C213  C     C_R   0.000003 0.085876 0.999997 0.827324
C214  C     C_R   0.513821 0.658547 0.039117 0.242975
C215  C     C_R   0.486010 0.658532 0.961109 0.242893
C216  C     C_R   0.013897 0.158541 0.039024 0.243016
Cu1   Cu    Cu3+1 1.000000 0.544460 0.500000 1.089538
Cu2   Cu    Cu3+1 0.499980 0.499960 0.937270 1.113354
Cu3   Cu    Cu3+1 0.000020 0.999960 0.062730 1.113295
Cu4   Cu    Cu3+1 0.999980 0.999960 0.937270 1.113284
Cu5   Cu    Cu3+1 0.500000 0.044460 0.500000 1.089730
Cu6   Cu    Cu3+1 1.000000 0.455520 0.500000 1.116040
Cu7   Cu    Cu3+1 0.500000 0.955520 0.500000 1.116057
Cu8   Cu    Cu3+1 0.955530 0.500030 0.044440 1.082758
Cu9   Cu    Cu3+1 0.044470 0.500030 0.955560 1.082739
Cu10  Cu    Cu3+1 0.455530 0.000030 0.044440 1.082683
Cu11  Cu    Cu3+1 0.544470 0.000030 0.955560 1.082725
Cu12  Cu    Cu3+1 0.500020 0.499960 0.062730 1.113326
H1    H     H_    0.984098 0.363193 0.920595 0.136653
H2    H     H_    0.012531 0.402836 0.806851 0.216959
H3    H     H_    0.827382 0.099379 0.274598 0.238417
H4    H     H_    0.797349 0.140716 0.260801 0.255749
H5    H     H_    0.225583 0.116052 0.645811 0.264052
H6    H     H_    0.172652 0.099195 0.724969 0.238441
H7    H     H_    0.202646 0.140619 0.738704 0.255742
H8    H     H_    0.954018 0.415294 0.873150 0.248768
H9    H     H_    0.023804 0.392887 0.221272 0.266585
H10   H     H_    0.987583 0.402815 0.193061 0.216899
H11   H     H_    0.046075 0.415353 0.126709 0.248807
H12   H     H_    0.476138 0.892890 0.778760 0.266596
H13   H     H_    0.512353 0.902793 0.806990 0.216875
H14   H     H_    0.453868 0.915365 0.873318 0.248802
H15   H     H_    0.523792 0.892879 0.221292 0.266585
H16   H     H_    0.487592 0.902815 0.193039 0.216882
H17   H     H_    0.015917 0.363196 0.079393 0.136640
H18   H     H_    0.546086 0.915350 0.126723 0.248807
H19   H     H_    0.949032 0.320620 0.884584 0.231784
H20   H     H_    0.007630 0.318943 0.806064 0.234227
H21   H     H_    0.970346 0.276818 0.817627 0.283086
H22   H     H_    0.051011 0.320640 0.115350 0.231759
H23   H     H_    0.992422 0.318919 0.193911 0.234259
H24   H     H_    0.029752 0.276815 0.182251 0.283083
H25   H     H_    0.448873 0.820653 0.884832 0.231745
H26   H     H_    0.507449 0.818893 0.806210 0.234251
H27   H     H_    0.470074 0.776812 0.817969 0.283088
H28   H     H_    0.484036 0.863194 0.920664 0.136638
H29   H     H_    0.550916 0.820602 0.115510 0.231768
H30   H     H_    0.492307 0.818963 0.193979 0.234217
H31   H     H_    0.529552 0.776821 0.182510 0.283091
H32   H     H_    0.036110 0.668041 0.123598 0.253926
H33   H     H_    0.057231 0.718859 0.126519 0.272275
H34   H     H_    0.001938 0.703496 0.206977 0.248088
H35   H     H_    0.963889 0.668058 0.876387 0.253841
H36   H     H_    0.942793 0.718886 0.873441 0.272271
H37   H     H_    0.998079 0.703497 0.792991 0.248098
H38   H     H_    0.535851 0.168087 0.124004 0.253835
H39   H     H_    0.515931 0.863190 0.079360 0.136659
H40   H     H_    0.556886 0.218926 0.127075 0.272280
H41   H     H_    0.501570 0.203515 0.207383 0.248111
H42   H     H_    0.464082 0.168021 0.876124 0.253885
H43   H     H_    0.442972 0.218830 0.873135 0.272293
H44   H     H_    0.498300 0.203485 0.792779 0.248100
H45   H     H_    0.938526 0.614892 0.154625 0.267430
H46   H     H_    0.991005 0.607644 0.138742 0.231037
H47   H     H_    0.956122 0.655136 0.190508 0.251138
H48   H     H_    0.061451 0.614862 0.845367 0.267475
H49   H     H_    0.008963 0.607643 0.861271 0.230976
H50   H     H_    0.056755 0.449999 0.651917 0.194677
H51   H     H_    0.043872 0.655116 0.809476 0.251176
H52   H     H_    0.438413 0.114858 0.154611 0.267472
H53   H     H_    0.490850 0.107648 0.138909 0.230950
H54   H     H_    0.455907 0.155113 0.190639 0.251152
H55   H     H_    0.561600 0.114920 0.845415 0.267453
H56   H     H_    0.509169 0.107641 0.861119 0.230955
H57   H     H_    0.544051 0.155147 0.809434 0.251120
H58   H     H_    0.023923 0.611010 0.724034 0.227280
H59   H     H_    0.047955 0.590152 0.628199 0.277774
H60   H     H_    0.989491 0.602048 0.691974 0.248602
H61   H     H_    0.943327 0.449921 0.348004 0.194687
H62   H     H_    0.975942 0.610978 0.276105 0.227330
H63   H     H_    0.951940 0.590089 0.371912 0.277749
H64   H     H_    0.010389 0.602060 0.308147 0.248622
H65   H     H_    0.524134 0.110954 0.723835 0.227330
H66   H     H_    0.548129 0.090051 0.628038 0.277724
H67   H     H_    0.489688 0.102065 0.691784 0.248674
H68   H     H_    0.475919 0.110971 0.276126 0.227305
H69   H     H_    0.451922 0.090079 0.371929 0.277734
H70   H     H_    0.510369 0.102061 0.308165 0.248667
H71   H     H_    0.395147 0.422068 0.151951 0.236326
H72   H     H_    0.556656 0.949884 0.652015 0.194676
H73   H     H_    0.348974 0.389707 0.181594 0.269531
H74   H     H_    0.387373 0.405727 0.080094 0.253723
H75   H     H_    0.604968 0.422281 0.847012 0.236905
H76   H     H_    0.651084 0.389825 0.817359 0.269582
H77   H     H_    0.612564 0.405599 0.918955 0.253342
H78   H     H_    0.894850 0.922411 0.153887 0.237376
H79   H     H_    0.848827 0.889875 0.183240 0.269594
H80   H     H_    0.887547 0.905552 0.081647 0.253032
H81   H     H_    0.105088 0.922334 0.846526 0.237142
H82   H     H_    0.151142 0.889837 0.817124 0.269577
H83   H     H_    0.443312 0.949918 0.348011 0.194672
H84   H     H_    0.112487 0.905592 0.918695 0.253184
H85   H     H_    0.343317 0.608981 0.141965 0.261262
H86   H     H_    0.388537 0.591022 0.145541 0.227082
H87   H     H_    0.386425 0.577417 0.066031 0.266495
H88   H     H_    0.656731 0.608915 0.859067 0.261200
H89   H     H_    0.611339 0.591156 0.855879 0.226682
H90   H     H_    0.613777 0.577159 0.934911 0.267014
H91   H     H_    0.843260 0.108873 0.140408 0.261191
H92   H     H_    0.888729 0.091189 0.143435 0.226529
H93   H     H_    0.886122 0.077005 0.064639 0.267339
H94   H     H_    0.976363 0.392852 0.778542 0.266558
H95   H     H_    0.156727 0.108909 0.859184 0.261197
H96   H     H_    0.111290 0.091136 0.856125 0.226645
H97   H     H_    0.113838 0.077108 0.935034 0.267171
H98   H     H_    0.274253 0.615460 0.355500 0.264056
H99   H     H_    0.327209 0.598585 0.276473 0.238442
H100  H     H_    0.297437 0.640288 0.262708 0.255681
H101  H     H_    0.725610 0.616001 0.645640 0.264051
H102  H     H_    0.672674 0.599138 0.724766 0.238407
H103  H     H_    0.702635 0.640587 0.738533 0.255722
H104  H     H_    0.774461 0.116261 0.353754 0.264063
O1    O     O_R   0.064870 0.537550 0.435160 -0.548767
O2    O     O_R   0.564910 0.499970 0.988060 -0.556501
O3    O     O_R   0.935090 0.999970 0.011940 -0.556508
O4    O     O_R   0.064910 0.999970 0.988060 -0.556457
O5    O     O_R   0.500060 0.564850 0.052930 -0.542607
O6    O     O_R   0.499940 0.564850 0.947070 -0.542585
O7    O     O_R   0.000060 0.064850 0.052930 -0.542520
O8    O     O_R   0.999940 0.064850 0.947070 -0.542535
O9    O     O_R   0.064850 0.462440 0.435150 -0.552171
O10   O     O_R   0.935150 0.462440 0.564850 -0.552109
O11   O     O_R   0.564850 0.962440 0.435150 -0.552128
O12   O     O_R   0.935130 0.537550 0.564840 -0.548724
O13   O     O_R   0.435150 0.962440 0.564850 -0.552146
O14   O     O_R   0.999990 0.537540 0.591580 -0.578923
O15   O     O_R   0.000010 0.537540 0.408420 -0.578944
O16   O     O_R   0.499990 0.037540 0.591580 -0.578916
O17   O     O_R   0.500010 0.037540 0.408420 -0.578916
O18   O     O_R   0.999980 0.462440 0.591580 -0.567970
O19   O     O_R   0.000020 0.462440 0.408420 -0.567981
O20   O     O_R   0.499980 0.962440 0.591580 -0.567990
O21   O     O_R   0.500020 0.962440 0.408420 -0.567982
O22   O     O_R   0.962450 0.435150 0.037500 -0.574026
O23   O     O_R   0.564870 0.037550 0.435160 -0.548672
O24   O     O_R   0.037550 0.435150 0.962500 -0.574056
O25   O     O_R   0.462450 0.935150 0.037500 -0.574055
O26   O     O_R   0.537550 0.935150 0.962500 -0.574044
O27   O     O_R   0.962450 0.500030 0.945950 -0.549505
O28   O     O_R   0.037550 0.500030 0.054050 -0.549518
O29   O     O_R   0.462450 0.000030 0.945950 -0.549547
O30   O     O_R   0.537550 0.000030 0.054050 -0.549542
O31   O     O_R   0.037540 0.500060 0.870890 -0.558790
O32   O     O_R   0.962460 0.500060 0.129110 -0.558777
O33   O     O_R   0.537540 0.000060 0.870890 -0.558747
O34   O     O_R   0.435130 0.037550 0.564840 -0.548686
O35   O     O_R   0.462460 0.000060 0.129110 -0.558767
O36   O     O_R   0.962440 0.564920 0.037550 -0.568516
O37   O     O_R   0.037560 0.564920 0.962450 -0.568484
O38   O     O_R   0.462440 0.064920 0.037550 -0.568535
O39   O     O_R   0.537560 0.064920 0.962450 -0.568515
O40   O     O_R   0.499970 0.435080 0.053010 -0.541275
O41   O     O_R   0.500030 0.435080 0.946990 -0.541375
O42   O     O_R   0.999970 0.935080 0.053010 -0.541319
O43   O     O_R   0.000030 0.935080 0.946990 -0.541294
O44   O     O_R   0.435150 0.499980 0.117890 -0.573525
O45   O     O_R   0.564850 0.499980 0.882110 -0.573680
O46   O     O_R   0.935150 0.999980 0.117890 -0.573790
O47   O     O_R   0.064850 0.999980 0.882110 -0.573744
O48   O     O_R   0.435090 0.499970 0.011940 -0.556361

loop_
_geom_bond_atom_site_label_1
_geom_bond_atom_site_label_2
_ccdc_geom_bond_type
C15   C17   A    
C85   C89   S    
C39   C43   A    
C142  C177  A    
C118  H70   S    
C115  H58   S    
C62   C70   A    
C137  C142  A    
Cu4   O3    S    
C131  C147  S    
C198  O35   A    
C102  H22   S    
C5    C216  A    
C129  C145  S    
C129  H102  S    
C36   C38   A    
C48   C54   A    
C9    C11   A    
C46   C209  S    
Cu7   O11   S    
C158  C173  S    
Cu2   O48   S    
C48   C51   A    
C193  O25   A    
C127  H97   S    
Cu10  Cu11  S    
C181  C186  A    
C185  C189  A    
C121  H78   S    
C192  O24   A    
Cu8   Cu9   S    
Cu8   O32   S    
C183  C188  A    
C13   C57   A    
C29   C99   S    
C162  C201  S    
C159  O20   A    
Br10  C176  S    
C23   C34   A    
C28   C98   S    
C128  H100  S    
C69   C91   S    
C167  C171  A    
C105  H33   S    
C61   C70   A    
Cu12  O44   S    
C105  H32   S    
C84   C173  S    
Cu7   O21   S    
C99   H15   S    
C35   C206  A    
C16   C18   A    
Cu1   Cu6   S    
Cu2   O6    S    
C88   C93   S    
C130  H104  S    
C151  C187  S    
C66   C80   S    
C115  H60   S    
C42   C44   A    
C147  C152  A    
C114  H55   S    
Cu9   O24   S    
C104  H31   S    
C103  H26   S    
Br22  C39   S    
C112  O10   A    
C97   H10   S    
C45   C52   A    
C49   C55   A    
C10   C31   A    
C210  O46   A    
C207  O42   A    
C81   C85   S    
C119  H71   S    
Cu5   Cu7   S    
C127  H96   S    
Br46  C181  S    
Cu9   O28   S    
C13   C121  S    
Br36  C87   S    
Cu5   O34   S    
C153  C179  A    
C4    C215  A    
C133  C137  A    
C154  C180  A    
C119  H74   S    
Br26  C42   S    
C8    C11   A    
C14   C20   A    
C35   C208  S    
C168  C190  A    
C20   C25   A    
C121  H80   S    
C151  O13   A    
C109  H47   S    
C137  C164  A    
Cu10  O38   S    
C18   C22   A    
C109  H45   S    
Br40  C92   S    
Br4   C191  S    
Br29  C54   S    
Br44  C179  S    
Cu1   O1    S    
Br15  C215  S    
C120  H75   S    
Cu7   O20   S    
C44   C207  S    
Br34  C152  S    
C173  C202  S    
Cu3   O46   S    
C65   C87   S    
C41   C49   A    
Cu11  O30   S    
C66   C88   S    
C157  O18   A    
C77   C200  S    
C126  H93   S    
C75   C114  S    
C59   C107  S    
C135  C139  A    
C132  C136  A    
C61   C72   A    
C93   C173  S    
C199  O36   A    
C106  H36   S    
C66   C196  S    
C89   C94   S    
C81   C203  S    
C131  H6    S    
C57   C210  S    
C140  O23   A    
Cu1   O15   S    
C160  C195  S    
C154  C163  A    
C28   C67   S    
C23   C31   A    
C170  C175  A    
C69   C198  S    
C124  C144  A    
Br41  C93   S    
C78   C201  S    
C6    C215  A    
C115  H59   S    
C62   C73   A    
C186  C190  A    
C106  H37   S    
C79   C123  S    
C4    C212  S    
C113  C134  A    
C5    C213  S    
C108  H43   S    
Cu8   O22   S    
C112  O12   A    
C2    C141  A    
Br21  C16   S    
Br14  C214  S    
C171  C176  A    
C91   C95   S    
C67   C89   S    
C12   C19   A    
C108  H42   S    
Cu3   O42   S    
C167  C189  A    
C56   C105  S    
Cu10  O25   S    
C1    O1    A    
C152  C156  A    
C63   C74   A    
C140  O11   A    
C130  H3    S    
C11   C30   A    
C153  C161  A    
C34   H28   S    
C208  O48   A    
C107  H40   S    
C8    C15   A    
C116  H63   S    
Cu11  O33   S    
C68   C113  A    
C166  C170  A    
Cu2   Cu12  S    
C86   C91   S    
C2    C46   A    
C212  O6    A    
C65   C78   S    
C43   C205  S    
C158  O19   A    
C26   C92   S    
C3    C5    A    
C29   C95   S    
C40   C43   A    
C84   C88   S    
C13   C142  A    
C25   C31   A    
C149  C154  A    
C29   C204  S    
C126  H91   S    
C68   C211  S    
Br35  C82   S    
C180  C185  A    
Cu10  O29   S    
Br7   C172  S    
C73   C110  S    
C104  H30   S    
C95   C195  S    
C103  H27   S    
C26   C201  S    
Br8   C174  S    
C136  C163  A    
C207  O43   A    
C117  H66   S    
C208  O44   A    
C100  H19   S    
C125  H90   S    
C169  C174  A    
C111  H54   S    
C24   C143  A    
C59   C63   A    
C166  C188  A    
C168  C172  A    
C35   C79   A    
C123  H86   S    
Cu3   O7    S    
Cu3   Cu4   S    
Br2   C189  S    
C42   C48   A    
C99   H18   S    
C4    C214  A    
C102  H23   S    
C37   C192  S    
C129  H101  S    
C199  O37   A    
Br20  C15   S    
Cu3   O4    S    
C85   C184  S    
C2    C120  S    
C124  C135  A    
C211  O47   A    
C146  C150  A    
C139  C175  A    
C157  C162  S    
Cu2   O41   S    
C108  H44   S    
C209  O45   A    
C82   C86   S    
C201  H50   S    
Br3   C190  S    
C122  H81   S    
C65   C194  S    
C134  C147  A    
C200  O39   A    
C148  C153  A    
C33   C37   A    
C132  C145  A    
C47   C53   A    
Cu7   O13   S    
C107  H38   S    
C96   H94   S    
C127  H95   S    
Cu6   O18   S    
C7    C214  A    
Br43  C95   S    
Br17  C3    S    
C141  C176  A    
C92   C162  S    
C9    C216  A    
Br47  C182  S    
Cu4   O8    S    
C130  C146  S    
Br23  C150  S    
C131  H7    S    
C144  C148  A    
C18   C102  S    
C6    C10   A    
C98   H13   S    
C159  C184  S    
C75   C77   A    
Cu8   O36   S    
C138  C165  A    
Cu11  O26   S    
C157  O14   A    
C101  C126  S    
C134  C138  A    
C138  C143  A    
Cu10  O35   S    
C40   C45   A    
Br28  C53   S    
C213  O8    A    
C110  H48   S    
C114  H56   S    
C58   C106  S    
Br30  C55   S    
C74   C111  S    
C86   C118  S    
C103  H25   S    
C97   H9    S    
C169  C191  A    
C53   C60   A    
C100  H21   S    
C101  C133  A    
C118  H69   S    
C117  H65   S    
C99   H16   S    
C114  H57   S    
C197  O29   A    
C87   C92   S    
Br39  C91   S    
Br27  C52   S    
C204  H83   S    
C129  H103  S    
C96   H8    S    
C196  O28   A    
C64   C75   A    
Br13  C178  S    
C119  H73   S    
C107  H41   S    
C34   C38   A    
C26   C65   S    
C193  O26   A    
C80   C202  S    
C60   C64   A    
C116  H62   S    
C121  H79   S    
C32   C37   A    
C20   C104  S    
C85   C117  S    
Cu1   O14   S    
Br5   C170  S    
C60   C108  S    
C83   C115  S    
Br11  C177  S    
C90   C125  S    
Br37  C88   S    
C182  C187  A    
C184  C203  S    
C17   C100  S    
Br24  C40   S    
C120  H76   S    
C128  H99   S    
C112  C185  S    
C72   C109  S    
C46   C90   A    
Cu5   O23   S    
Cu9   O31   S    
C140  C186  S    
C105  H34   S    
Br33  C81   S    
C120  H77   S    
C26   C96   S    
C131  H5    S    
C187  C191  A    
C64   C71   A    
Cu6   O9    S    
C82   C204  S    
Cu6   O10   S    
C24   C68   A    
Br25  C41   S    
C161  C166  A    
C158  O15   A    
C123  H87   S    
Br32  C80   S    
C179  C183  A    
C74   C77   A    
C38   C193  S    
C17   C21   A    
Br38  C89   S    
Cu8   O27   S    
C19   C23   A    
C97   H11   S    
C98   H12   S    
C7    C10   A    
C150  C155  A    
C96   H2    S    
C28   C203  S    
C197  O33   A    
C117  H67   S    
C67   C197  S    
C122  H84   S    
C163  C167  A    
C22   C30   A    
C200  O38   A    
Cu12  O5    S    
C90   C132  A    
Cu4   O43   S    
C84   C116  S    
C159  O16   A    
C47   C50   A    
C50   C71   A    
C6    C12   A    
C27   C97   S    
Cu2   O45   S    
C194  O27   A    
C116  H64   S    
C63   C71   A    
C29   C69   S    
C56   C61   A    
C113  C127  S    
C128  C144  S    
C174  C178  A    
Br19  C14   S    
C109  H46   S    
Cu12  O40   S    
C3    C8    A    
C22   C33   A    
C33   H17   S    
C73   C76   A    
C1    O9    A    
C94   C184  S    
C164  C168  A    
C36   H39   S    
Br42  C94   S    
C205  O41   A    
Br12  C149  S    
C126  H92   S    
C27   C93   S    
C25   C36   A    
C106  H35   S    
C110  H51   S    
C119  C206  S    
C21   C30   A    
C83   C162  S    
C80   C84   S    
C160  O21   A    
C49   C51   A    
Cu4   O47   S    
C100  H20   S    
C125  H89   S    
C111  H53   S    
C205  O40   A    
C19   C103  S    
Cu5   O16   S    
C194  O31   A    
Br1   C148  S    
C209  O2    A    
C123  H85   S    
C155  C181  A    
C151  O34   A    
C165  C169  A    
C211  O4    A    
C79   C124  A    
C156  C165  A    
C102  H24   S    
C39   C47   A    
C139  C206  A    
Br45  C180  S    
C24   C122  S    
C1    C183  S    
C203  H72   S    
Cu1   O12   S    
Cu12  O2    S    
C133  C146  A    
Br9   C175  S    
C83   C87   S    
C125  H88   S    
C202  H61   S    
C27   C66   S    
Cu11  O39   S    
C41   C44   A    
C54   C56   A    
C69   C82   S    
Br48  C188  S    
Cu9   O37   S    
C122  H82   S    
Br18  C12   S    
C192  O22   A    
C198  O30   A    
Cu5   O17   S    
C155  C164  A    
C196  O32   A    
C27   C202  S    
C9    C16   A    
C160  O17   A    
C67   C81   S    
Cu6   O19   S    
C52   C59   A    
C128  H98   S    
C195  C204  S    
C118  H68   S    
C212  O5    A    
C135  C161  A    
C57   C101  A    
C76   C199  S    
C210  O3    A    
C51   C70   A    
C98   H14   S    
C32   H1    S    
C78   C83   S    
C145  C149  A    
C111  H52   S    
C172  C177  A    
C55   C58   A    
C156  C182  A    
C86   C195  S    
Br6   C171  S    
Br16  C216  S    
C130  H4    S    
C213  O7    A    
C110  H49   S    
C7    C14   A    
C58   C62   A    
C104  H29   S    
C136  C141  A    
C21   C32   A    
C143  C178  A    
Br31  C78   S    
C45   C50   A    
C72   C76   A    
C28   C94   S    
