data_mof_unit_pretest_163.cif
_audit_creation_date              2012-12-11T14:51:47-0500
_audit_creation_method            fapswitch 2.2
_symmetry_space_group_name_H-M    P1
_symmetry_Int_Tables_number       1
_space_group_crystal_system       triclinic
_cell_length_a                    6.937483
_cell_length_b                    16.916468
_cell_length_c                    16.752893
_cell_angle_alpha                 101.250123
_cell_angle_beta                  89.200858
_cell_angle_gamma                 91.030426
_cell_volume                      1927.88155058

loop_
_atom_site_label
_atom_site_type_symbol
_atom_type_description
_atom_site_fract_x
_atom_site_fract_y
_atom_site_fract_z
_atom_type_partial_charge
O1    O     O_R   0.506340 0.439070 0.579550 -0.540806
O2    O     O_R   0.170010 0.404890 0.412100 -0.514639
O3    O     O_R   0.005010 0.560930 0.420450 -0.536309
C1    C     C_R   0.339686 0.382098 0.382838 0.879914
O4    O     O_R   0.176280 0.429360 0.578400 -0.530157
O5    O     O_R   0.011320 0.585570 0.587940 -0.554683
C2    C     C_R   0.342992 0.413212 0.605076 0.748949
O6    O     O_R   0.500030 0.414430 0.412060 -0.525918
O7    O     O_3   0.340950 0.551220 0.502940 -0.395469
V1    V     V_3+5 0.064020 0.490500 0.499460 1.616223
O8    O     O_R   0.681910 0.595110 0.587900 -0.550151
C3    C     C_R   0.851438 0.618422 0.616275 0.698820
O9    O     O_R   0.675640 0.570640 0.421600 -0.531746
C4    C     C_R   0.846759 0.586628 0.395422 0.789385
V2    V     V_3+5 0.564670 0.509500 0.500540 1.572342
O10   O     O_3   0.837610 0.448780 0.497060 -0.344867
C5    C     C_R   0.902957 0.858070 0.165275 -0.294992
C6    C     C_R   0.866008 0.634639 0.330464 -0.213579
C7    C     C_R   0.922301 0.643553 0.188732 -0.081846
C8    C     C_R   0.884403 0.597156 0.247924 0.441218
C9    C     C_R   0.870911 0.719003 0.351022 -0.181084
C10   C     C_R   0.890788 0.765888 0.290058 0.035992
C11   C     C_R   0.931195 0.728304 0.208615 -0.137277
C12   C     C_R   0.965321 0.776368 0.148424 0.324455
C13   C     C_R   0.816960 0.887730 0.242583 0.296221
C14   C     C_R   0.851875 0.848403 0.307779 0.347931
H1    H     H_    0.927291 0.612736 0.126029 0.255906
H2    H     H_    0.848297 0.747609 0.414130 0.165109
C15   C     C_3   0.710012 0.772732 0.777375 0.383846
C16   C     C_3   0.785172 0.772905 0.691034 0.276508
C17   C     C_3   0.865851 0.688211 0.686650 -0.211538
C18   C     C_3   0.788955 0.687330 0.773876 -0.186040
C19   C     C_3   0.983187 0.726029 0.809444 -0.147706
C20   C     C_3   0.060564 0.725902 0.721574 -0.273547
C21   C     C_3   0.975332 0.810485 0.726476 0.348238
C22   C     C_3   0.900490 0.811292 0.813371 -0.108830
H3    H     H_    0.709458 0.636792 0.793592 0.171284
H4    H     H_    0.068122 0.706060 0.857221 0.241722
H5    H     H_    0.205494 0.706373 0.697493 0.162021
C23   C     C_3   0.414708 0.225852 0.323249 0.451245
C24   C     C_3   0.260082 0.189060 0.261717 0.366357
C25   C     C_3   0.408670 0.184609 0.191301 -0.261474
C26   C     C_3   0.565260 0.220999 0.253359 -0.245504
C27   C     C_3   0.507633 0.306793 0.243601 -0.197163
C28   C     C_3   0.350963 0.269617 0.182742 0.382260
C29   C     C_3   0.199658 0.274290 0.252109 -0.297780
C30   C     C_3   0.357114 0.310691 0.313443 -0.229823
H6    H     H_    0.715754 0.201040 0.254731 0.250573
H7    H     H_    0.617366 0.351716 0.234503 0.247845
H8    H     H_    0.048894 0.294712 0.250730 0.199436
C31   C     C_R   0.426887 0.135673 0.828858 -0.223258
C32   C     C_R   0.342461 0.361167 0.667620 -0.133683
C33   C     C_R   0.185279 0.320008 0.785000 0.501144
C34   C     C_R   0.201739 0.371902 0.729150 -0.174388
C35   C     C_R   0.470852 0.297418 0.662772 -0.011911
C36   C     C_R   0.463270 0.244480 0.719170 -0.091897
C37   C     C_R   0.316949 0.255559 0.780706 -0.026657
C38   C     C_R   0.307377 0.202720 0.836610 -0.070514
C39   C     C_R   0.560961 0.120395 0.763042 0.293476
C40   C     C_R   0.594321 0.179452 0.713879 0.378238
H9    H     H_    0.208381 0.213308 0.887650 0.239961
H10   H     H_    0.101253 0.420669 0.732416 0.140952
H11   H     H_    0.568060 0.287326 0.611322 0.231353
O11   O     O_R   0.266070 0.085680 0.087850 -0.537491
O12   O     O_R   0.590090 0.070660 0.921580 -0.518788
O13   O     O_R   0.754780 0.914400 0.912080 -0.519367
C41   C     C_R   0.423798 0.085928 0.893946 0.850394
O14   O     O_R   0.596110 0.095130 0.087880 -0.528004
O15   O     O_R   0.760850 0.939050 0.079570 -0.526784
C42   C     C_R   0.426529 0.116038 0.118882 0.813301
O16   O     O_R   0.260010 0.061030 0.920360 -0.536391
O17   O     O_3   0.425070 0.948840 0.997010 -0.371379
V3    V     V_3+5 0.702100 0.009490 0.000550 1.772059
O18   O     O_R   0.090200 0.929250 0.078500 -0.527938
C43   C     C_R   0.918759 0.911227 0.103428 0.881918
O19   O     O_R   0.084180 0.904770 0.912200 -0.525092
C44   C     C_R   0.914654 0.881450 0.883691 0.849447
V4    V     V_3+5 0.201420 0.990350 0.999580 1.750293
O20   O     O_3   0.928580 0.051150 0.002990 -0.367451
S1    S     S_3+6 0.062135 0.729848 0.051210 0.006655
O21   O     O_2   0.898030 0.691930 0.998912 -0.324317
O22   O     O_2   0.168437 0.787372 0.008114 -0.338082
O23   O     O_3   0.217357 0.657399 0.061928 -0.448615
H12   H     H_    0.318404 0.685542 0.098614 0.364087
O24   O     O_3   0.072377 0.875120 0.702170 -0.565785
H13   H     H_    0.107726 0.855621 0.644237 0.319976
S2    S     S_3+6 0.089661 0.112904 0.274392 0.045852
O25   O     O_2   0.968060 0.094268 0.199530 -0.353235
O26   O     O_2   0.191370 0.038272 0.285243 -0.297648
O27   O     O_3   0.951039 0.146756 0.356635 -0.432591
H14   H     H_    0.901491 0.097725 0.374574 0.418718
S3    S     S_3+6 0.457128 0.201315 0.420175 0.091794
O28   O     O_2   0.634639 0.245999 0.455842 -0.299458
O29   O     O_2   0.286819 0.226509 0.475138 -0.336930
O30   O     O_3   0.489345 0.101795 0.410445 -0.402275
H15   H     H_    0.450541 0.089124 0.463719 0.396298
S4    S     S_3+6 0.308063 0.300185 0.088941 0.099203
O31   O     O_2   0.281467 0.389813 0.103863 -0.212368
O32   O     O_2   0.477374 0.278215 0.032571 -0.313824
O33   O     O_3   0.108752 0.252689 0.046546 -0.472427
H16   H     H_    0.005207 0.267555 0.087765 0.341808
S5    S     S_3+6 0.603961 0.945419 0.250394 0.073437
O34   O     O_2   0.493903 0.939637 0.327020 -0.262540
O35   O     O_2   0.651161 0.032128 0.250211 -0.306184
O36   O     O_3   0.461506 0.907948 0.171293 -0.488560
H17   H     H_    0.389897 0.954906 0.161130 0.365765
S6    S     S_3+6 0.668942 0.023439 0.738242 0.102113
O37   O     O_2   0.853402 0.025038 0.784515 -0.277642
O38   O     O_2   0.535959 0.960534 0.761854 -0.343301
O39   O     O_3   0.716790 0.996469 0.638053 -0.411202
H18   H     H_    0.588903 0.990991 0.611787 0.361376
S7    S     S_3+6 0.992699 0.337086 0.856981 0.096723
O40   O     O_2   0.884849 0.259642 0.858996 -0.296630
O41   O     O_2   0.073488 0.369445 0.939869 -0.248041
O42   O     O_3   0.836593 0.403772 0.833253 -0.479692
H19   H     H_    0.890102 0.457527 0.857982 0.358742
S8    S     S_3+6 0.807386 0.176047 0.651398 0.102637
O43   O     O_2   0.759439 0.134785 0.566087 -0.286038
O44   O     O_2   0.881387 0.259777 0.649996 -0.332150
O45   O     O_3   0.986033 0.126474 0.686131 -0.432685
H20   H     H_    0.095024 0.128226 0.647641 0.372392
O46   O     O_3   0.819687 0.885938 0.387658 -0.598793
H21   H     H_    0.826323 0.945075 0.390660 0.356331
S9    S     S_3+6 0.824143 0.494757 0.214726 0.012444
O47   O     O_2   0.915637 0.444438 0.268037 -0.376933
O48   O     O_2   0.608312 0.488278 0.220660 -0.335455
O49   O     O_3   0.894079 0.462058 0.117538 -0.424604
H22   H     H_    0.832556 0.408093 0.101426 0.409532
O50   O     O_3   0.680144 0.798241 0.630223 -0.603445
H23   H     H_    0.766870 0.790794 0.581908 0.296420
O51   O     O_3   0.527167 0.796551 0.808390 -0.599155
H24   H     H_    0.446866 0.799480 0.760723 0.335891

loop_
_geom_bond_atom_site_label_1
_geom_bond_atom_site_label_2
_ccdc_geom_bond_type
C27   H7    S    
C23   C30   S    
C35   C36   A    
C6    C9    A    
C24   C25   S    
C4    C6    S    
O2    C1    A    
C7    C8    A    
C1    O6    A    
S7    O41   D    
S4    O31   D    
O27   H14   S    
O24   H13   S    
O45   H20   S    
C15   C22   S    
C16   C21   S    
O19   V4    S    
C2    C32   S    
C15   C18   S    
C22   C44   S    
S8    O44   D    
O5    C3    A    
C16   C17   S    
C13   S5    S    
V2    O10   S    
C25   C42   S    
C19   C22   S    
O12   V3    S    
C36   C37   A    
S5    O36   S    
C20   C21   S    
O39   H18   S    
O33   H16   S    
O17   V4    S    
O8    V2    S    
C12   S1    S    
C23   C26   S    
O23   H12   S    
O12   C41   A    
C35   H11   S    
C24   C29   S    
O15   V3    S    
O1    V2    S    
O11   C42   A    
C7    H1    S    
O7    V1    S    
C41   O16   A    
C32   C35   A    
C38   H9    S    
C39   C40   A    
O9    C4    A    
S6    O38   D    
S1    O23   S    
S7    O40   D    
S4    O32   D    
C32   C34   A    
C24   S2    S    
C5    C12   A    
O18   C43   A    
C20   H5    S    
O19   C44   A    
S1    O22   D    
S8    O45   S    
O4    C2    A    
C33   C37   A    
V4    O20   S    
S1    O21   D    
C34   H10   S    
O14   V3    S    
C28   C29   S    
O13   V3    S    
S3    O30   S    
C39   S6    S    
C36   C40   A    
C25   C28   S    
C7    C11   A    
C26   C27   S    
C15   C16   S    
C17   C18   S    
C11   C12   A    
S3    O29   D    
C19   C20   S    
V3    O20   S    
C17   C20   S    
C40   S8    S    
C31   C38   A    
C31   C41   S    
C18   H3    S    
C23   S3    S    
S5    O35   D    
O3    C4    A    
S9    O49   S    
C33   S7    S    
C23   C24   S    
C9    H2    S    
O6    V2    S    
S2    O26   D    
C3    C17   S    
C10   C14   A    
S6    O39   S    
C31   C39   A    
C25   C26   S    
S6    O37   D    
O51   H24   S    
O2    V1    S    
S4    O33   S    
C27   C28   S    
S9    O48   D    
O50   H23   S    
C26   H6    S    
O13   C44   A    
C29   C30   S    
O1    C2    A    
O11   V4    S    
O17   V3    S    
O5    V1    S    
O8    C3    A    
C27   C30   S    
C33   C34   A    
C16   O50   S    
O36   H17   S    
C29   H8    S    
C19   H4    S    
C5    C13   A    
C18   C19   S    
O9    V2    S    
C13   C14   A    
O4    V1    S    
O3    V1    S    
C28   S4    S    
S8    O43   D    
C21   O24   S    
C37   C38   A    
C15   O51   S    
S3    O28   D    
O15   C43   A    
C6    C8    A    
O16   V4    S    
O7    V2    S    
S5    O34   D    
C8    S9    S    
S2    O25   D    
O14   C42   A    
O18   V4    S    
S2    O27   S    
O30   H15   S    
C5    C43   S    
C10   C11   A    
V1    O10   S    
C21   C22   S    
C14   O46   S    
O42   H19   S    
O46   H21   S    
C9    C10   A    
S7    O42   S    
O49   H22   S    
S9    O47   D    
C1    C30   S    
