data_mof_unit_pretest_228.cif
_audit_creation_date              2012-12-10T17:59:40-0500
_audit_creation_method            fapswitch 2.2
_symmetry_space_group_name_H-M    P1
_symmetry_Int_Tables_number       1
_space_group_crystal_system       triclinic
_cell_length_a                    18.316545
_cell_length_b                    18.321387
_cell_length_c                    34.378718
_cell_angle_alpha                 90.230865
_cell_angle_beta                  89.774412
_cell_angle_gamma                 90.075193
_cell_volume                      11536.7724418

loop_
_atom_site_label
_atom_site_type_symbol
_atom_type_description
_atom_site_fract_x
_atom_site_fract_y
_atom_site_fract_z
_atom_type_partial_charge
C1    C     C_R   0.044123 0.550634 0.418193 0.232055
C2    C     C_R   0.511961 0.935944 0.082131 0.211221
C3    C     C_R   0.434162 0.018123 0.541726 -0.015666
C4    C     C_R   0.048436 0.548076 0.459173 -0.011318
C5    C     C_R   0.960403 0.445502 0.541283 -0.023687
C6    C     C_R   0.434389 0.021829 0.459363 -0.006875
C7    C     C_R   0.562717 0.977312 0.540812 -0.014380
C8    C     C_R   0.516168 0.933412 0.958952 -0.012322
C9    C     C_R   0.497136 0.068585 0.041009 -0.011178
C10   C     C_R   0.048353 0.451516 0.958983 -0.012091
C11   C     C_R   0.945468 0.538961 0.041523 -0.024256
C12   C     C_R   0.498963 0.066720 0.958769 -0.031462
C13   C     C_R   0.954198 0.547468 0.918830 0.220312
C14   C     C_R   0.518492 0.935803 0.041271 -0.026441
C15   C     C_R   0.948074 0.541109 0.959514 -0.036288
C16   C     C_R   0.045851 0.449670 0.041151 -0.025075
C17   C     C_R   0.196321 0.695972 0.250066 -0.033407
C18   C     C_R   0.803585 0.304072 0.750045 -0.034079
C19   C     C_R   0.304500 0.197257 0.249787 -0.031478
C20   C     C_R   0.695931 0.803746 0.749536 -0.041873
C21   C     C_R   0.801818 0.305324 0.249311 -0.043977
C22   C     C_R   0.196379 0.696020 0.749971 -0.036255
C23   C     C_R   0.696375 0.804046 0.249972 -0.038681
C24   C     C_R   0.049611 0.455078 0.081964 0.218956
C25   C     C_R   0.302245 0.194763 0.749696 -0.035830
C26   C     C_R   0.195915 0.303557 0.749677 -0.036416
C27   C     C_R   0.803865 0.696286 0.250115 -0.032414
C28   C     C_R   0.303749 0.803867 0.750035 -0.032217
C29   C     C_R   0.696078 0.196036 0.249609 -0.040312
C30   C     C_R   0.805634 0.698428 0.749312 -0.040992
C31   C     C_R   0.196085 0.303939 0.249787 -0.040746
C32   C     C_R   0.695972 0.196329 0.750055 -0.035023
C33   C     C_R   0.303365 0.804244 0.249988 -0.034098
C34   C     C_R   0.004140 0.497262 0.479708 -0.139917
C35   C     C_R   0.512320 0.933071 0.917846 0.225701
C36   C     C_R   0.005031 0.496017 0.520747 -0.138464
C37   C     C_R   0.497977 0.999381 0.479544 -0.141361
C38   C     C_R   0.498316 0.998372 0.520718 -0.145369
C39   C     C_R   0.507282 0.000502 0.979428 -0.142597
C40   C     C_R   0.507382 0.001594 0.020584 -0.142279
C41   C     C_R   0.997457 0.495569 0.979746 -0.140340
C42   C     C_R   0.996228 0.494684 0.020795 -0.138888
C43   C     C_3   0.927549 0.278928 0.455916 -0.057254
C44   C     C_3   0.215526 0.587766 0.543728 -0.096260
C45   C     C_3   0.667702 0.842933 0.455927 -0.077941
C46   C     C_R   0.494417 0.068239 0.082100 0.228248
C47   C     C_3   0.254415 0.000208 0.534675 -0.082998
C48   C     C_3   0.129054 0.713420 0.467538 -0.078624
C49   C     C_3   0.800375 0.375610 0.541406 -0.083693
C50   C     C_3   0.316500 0.152656 0.466255 -0.113213
C51   C     C_3   0.744082 0.982451 0.532560 -0.076615
C52   C     C_3   0.482567 0.755921 0.966876 -0.079908
C53   C     C_3   0.411155 0.226410 0.033036 -0.089332
C54   C     C_3   0.214024 0.371120 0.966958 -0.079466
C55   C     C_3   0.873339 0.698285 0.041616 -0.086833
C56   C     C_3   0.578241 0.218037 0.956486 -0.058425
C57   C     C_R   0.050776 0.455773 0.917972 0.229943
C58   C     C_3   0.636028 0.811315 0.042716 -0.065273
C59   C     C_3   0.778454 0.569745 0.956986 -0.049665
C60   C     C_3   0.089120 0.284569 0.043314 -0.091276
C61   C     C_3   0.271837 0.847176 0.160378 -0.102800
C62   C     C_3   0.708033 0.162023 0.841166 -0.066699
C63   C     C_3   0.134764 0.262045 0.164355 -0.046800
C64   C     C_3   0.888671 0.772728 0.819741 -0.086050
C65   C     C_3   0.749906 0.125891 0.167076 -0.052949
C66   C     C_3   0.279324 0.843006 0.840994 -0.104691
C67   C     C_3   0.833072 0.710230 0.157860 -0.065133
C68   C     C_R   0.944781 0.537067 0.082457 0.218461
C69   C     C_3   0.138550 0.268321 0.836841 -0.041637
C70   C     C_3   0.250704 0.133977 0.833448 -0.103649
C71   C     C_3   0.700754 0.832102 0.158347 -0.058990
C72   C     C_3   0.156231 0.712210 0.840468 -0.088918
C73   C     C_3   0.878013 0.247469 0.169507 -0.074170
C74   C     C_3   0.743517 0.870000 0.834660 -0.032779
C75   C     C_3   0.252877 0.131536 0.166119 -0.102409
C76   C     C_3   0.836910 0.288754 0.841690 -0.073553
C77   C     C_3   0.154658 0.713065 0.159802 -0.079896
C78   C     C_3   0.784441 0.339416 0.658897 -0.060993
C79   C     C_R   0.998708 0.501384 0.398301 0.002172
C80   C     C_3   0.222543 0.655380 0.340518 -0.056291
C81   C     C_3   0.628246 0.754923 0.666648 -0.042500
C82   C     C_3   0.371905 0.255815 0.331252 -0.111685
C83   C     C_3   0.220360 0.656518 0.659088 -0.057659
C84   C     C_3   0.725741 0.391569 0.318626 -0.084292
C85   C     C_3   0.356192 0.230516 0.661421 -0.042624
C86   C     C_3   0.666286 0.796370 0.341568 -0.053901
C87   C     C_3   0.795768 0.668563 0.342070 -0.095176
C88   C     C_3   0.231373 0.357844 0.662613 -0.078637
C89   C     C_3   0.626740 0.247587 0.333490 -0.070925
C90   C     C_R   0.001595 0.498764 0.602064 0.009761
C91   C     C_3   0.345252 0.784092 0.659808 -0.093532
C92   C     C_3   0.235762 0.366399 0.335686 -0.059999
C93   C     C_3   0.750453 0.627524 0.666989 -0.072171
C94   C     C_3   0.345493 0.785046 0.340079 -0.060816
C95   C     C_3   0.659707 0.211534 0.659301 -0.093145
C96   C     C_3   0.037921 0.660439 0.387521 -0.080623
C97   C     C_3   0.972833 0.333572 0.610518 -0.063678
C98   C     C_3   0.360491 0.089141 0.378397 -0.016363
C99   C     C_3   0.661926 0.019882 0.616854 -0.053612
C100  C     C_3   0.832297 0.446390 0.401714 -0.045295
C101  C     C_R   0.497565 0.000962 0.397998 0.007780
C102  C     C_3   0.036164 0.664522 0.606475 -0.071768
C103  C     C_3   0.664554 0.032487 0.391953 -0.059361
C104  C     C_3   0.338178 0.977837 0.619779 -0.042567
C105  C     C_3   0.403127 0.141208 0.896825 -0.052100
C106  C     C_3   0.449770 0.839298 0.106755 -0.055372
C107  C     C_3   0.944698 0.667072 0.902125 -0.043456
C108  C     C_3   0.164055 0.461967 0.106806 -0.062498
C109  C     C_3   0.460038 0.840932 0.882045 -0.053516
C110  C     C_3   0.424919 0.146357 0.119539 -0.038833
C111  C     C_3   0.160460 0.460774 0.886590 -0.076431
C112  C     C_R   0.962394 0.444778 0.582227 0.218075
C113  C     C_R   0.499680 0.999150 0.602165 0.002551
C114  C     C_3   0.833509 0.525254 0.111035 -0.063540
C115  C     C_R   0.500183 0.998809 0.898019 0.004386
C116  C     C_R   0.501011 0.001793 0.102014 0.007974
C117  C     C_R   0.001516 0.501140 0.898307 0.000045
C118  C     C_R   0.998884 0.498243 0.102092 0.007050
C119  C     C_R   0.919229 0.393941 0.479879 0.273779
C120  C     C_R   0.099801 0.590225 0.520709 0.279760
C121  C     C_R   0.621875 0.949773 0.478707 0.275165
C122  C     C_R   0.370480 0.038176 0.521235 0.290177
C123  C     C_R   0.096336 0.594619 0.479974 0.294936
C124  C     C_R   0.433464 0.019491 0.418319 0.223016
C125  C     C_R   0.916067 0.396019 0.520435 0.286263
C126  C     C_R   0.372783 0.045736 0.480642 0.296422
C127  C     C_R   0.625001 0.954708 0.519394 0.293822
C128  C     C_R   0.529756 0.868647 0.980057 0.295774
C129  C     C_R   0.491179 0.134400 0.019824 0.300137
C130  C     C_R   0.095045 0.403855 0.979589 0.294018
C131  C     C_R   0.895602 0.582750 0.020883 0.286073
C132  C     C_R   0.498630 0.133582 0.979263 0.268442
C133  C     C_R   0.536421 0.871385 0.020692 0.271050
C134  C     C_R   0.893512 0.579470 0.980345 0.272346
C135  C     C_R   0.563300 0.979519 0.581880 0.228809
C136  C     C_R   0.090667 0.400361 0.020359 0.278147
C137  C     C_R   0.498336 0.000160 0.355749 0.562914
C138  C     C_R   0.500284 0.999809 0.644301 0.544942
C139  C     C_R   0.999677 0.499717 0.355871 0.561029
C140  C     C_R   0.000276 0.500186 0.644263 0.556901
C141  C     C_R   0.999786 0.500294 0.855875 0.560018
C142  C     C_R   0.000185 0.499696 0.144273 0.554709
C143  C     C_R   0.499975 0.999679 0.855766 0.574853
C144  C     C_R   0.500243 0.000979 0.144252 0.571236
C145  C     C_R   0.360151 0.140410 0.249918 0.566403
C146  C     C_R   0.951948 0.454317 0.418603 0.220912
C147  C     C_R   0.639951 0.859895 0.749866 0.579757
C148  C     C_R   0.859248 0.360421 0.249689 0.573143
C149  C     C_R   0.140111 0.640046 0.749986 0.581232
C150  C     C_R   0.640104 0.860015 0.249968 0.589661
C151  C     C_R   0.359463 0.139632 0.749858 0.586338
C152  C     C_R   0.140041 0.639960 0.250025 0.580859
C153  C     C_R   0.859924 0.360057 0.750025 0.585486
C154  C     C_R   0.359920 0.859928 0.750022 0.577662
C155  C     C_R   0.640072 0.139998 0.249918 0.579144
C156  C     C_R   0.860546 0.640817 0.749703 0.576182
C157  C     C_R   0.044611 0.549596 0.582084 0.221400
C158  C     C_R   0.139998 0.359957 0.249916 0.578638
C159  C     C_R   0.639949 0.140049 0.750030 0.584180
C160  C     C_R   0.359872 0.860093 0.250006 0.586928
C161  C     C_R   0.140026 0.359917 0.749876 0.577149
C162  C     C_R   0.859965 0.640094 0.250083 0.583019
C163  C     C_R   0.279624 0.774268 0.214401 0.231205
C164  C     C_R   0.715542 0.230317 0.785318 0.222410
C165  C     C_R   0.218016 0.271866 0.214298 0.220028
C166  C     C_R   0.789404 0.737149 0.783925 0.230683
C167  C     C_R   0.731934 0.213656 0.214466 0.224545
C168  C     C_R   0.561651 0.982793 0.417627 0.214534
C169  C     C_R   0.281436 0.772599 0.785504 0.228897
C170  C     C_R   0.768394 0.713881 0.215109 0.223983
C171  C     C_R   0.219199 0.273977 0.785273 0.219698
C172  C     C_R   0.271202 0.218138 0.785216 0.231533
C173  C     C_R   0.713808 0.767418 0.215112 0.219940
C174  C     C_R   0.227874 0.717999 0.785445 0.223596
C175  C     C_R   0.786441 0.267214 0.214515 0.220938
C176  C     C_R   0.731522 0.786630 0.784491 0.221334
C177  C     C_R   0.271139 0.217016 0.214416 0.227646
C178  C     C_R   0.769827 0.284258 0.785338 0.223769
C179  C     C_R   0.435063 0.017097 0.582769 0.225617
C180  C     C_R   0.226703 0.719013 0.214482 0.221948
C181  C     C_R   0.783188 0.270847 0.714710 0.223574
C182  C     C_R   0.219358 0.726585 0.285623 0.223179
C183  C     C_R   0.715553 0.769248 0.714232 0.219393
C184  C     C_R   0.284527 0.231768 0.285033 0.229938
C185  C     C_R   0.218754 0.727225 0.714495 0.222616
C186  C     C_R   0.761889 0.290892 0.283732 0.231164
C187  C     C_R   0.278169 0.223540 0.714019 0.219380
C188  C     C_R   0.732406 0.787118 0.284891 0.220964
C189  C     C_R   0.786278 0.732868 0.285011 0.225641
C190  C     C_R   0.491663 0.064806 0.918007 0.214293
C191  C     C_R   0.224395 0.277882 0.713994 0.222116
C192  C     C_R   0.712098 0.233267 0.284384 0.223239
C193  C     C_R   0.272644 0.781511 0.714531 0.223324
C194  C     C_R   0.228339 0.283357 0.285205 0.224507
C195  C     C_R   0.769351 0.714993 0.714304 0.222031
C196  C     C_R   0.273019 0.781131 0.285579 0.219412
C197  C     C_R   0.729382 0.216457 0.714741 0.224109
C198  C     C_R   0.958186 0.448164 0.459267 -0.035287
C199  C     C_R   0.050215 0.545583 0.541291 -0.024067
C200  C     C_R   0.560991 0.977253 0.458514 -0.024266
H1    H     H_    0.976589 0.293149 0.438248 0.132248
H2    H     H_    0.209343 0.007516 0.555969 0.135858
H3    H     H_    0.278015 0.642756 0.328764 0.059581
H4    H     H_    0.190452 0.604076 0.341027 0.196786
H5    H     H_    0.228377 0.673356 0.371194 0.156993
H6    H     H_    0.583534 0.793372 0.659541 0.172602
H7    H     H_    0.606647 0.715003 0.688296 0.070387
H8    H     H_    0.641721 0.725889 0.639251 0.114581
H9    H     H_    0.378158 0.306266 0.313458 0.085531
H10   H     H_    0.424206 0.225510 0.330222 0.145261
H11   H     H_    0.363820 0.272100 0.362053 0.098155
H12   H     H_    0.187077 0.606012 0.657912 0.196521
H13   H     H_    0.277451 0.944627 0.539151 0.086305
H14   H     H_    0.275281 0.642142 0.670715 0.058063
H15   H     H_    0.227179 0.675357 0.628681 0.148556
H16   H     H_    0.690714 0.398588 0.292376 0.083236
H17   H     H_    0.758049 0.442315 0.322380 0.151036
H18   H     H_    0.689750 0.387665 0.344477 0.076740
H19   H     H_    0.404440 0.194485 0.658068 0.176141
H20   H     H_    0.373647 0.280846 0.677285 0.061691
H21   H     H_    0.339324 0.245765 0.631620 0.129377
H22   H     H_    0.635177 0.751031 0.327467 0.074594
H23   H     H_    0.626315 0.838863 0.350313 0.191939
H24   H     H_    0.230284 0.004163 0.505193 0.167790
H25   H     H_    0.691703 0.775729 0.368548 0.108637
H26   H     H_    0.833441 0.621453 0.344339 0.145903
H27   H     H_    0.741416 0.648087 0.332216 0.075347
H28   H     H_    0.789369 0.691230 0.371840 0.112397
H29   H     H_    0.274547 0.382165 0.681518 0.085855
H30   H     H_    0.191943 0.401650 0.655437 0.157110
H31   H     H_    0.256358 0.340246 0.634736 0.108348
H32   H     H_    0.582223 0.209385 0.341631 0.137181
H33   H     H_    0.603909 0.287186 0.312170 0.086312
H34   H     H_    0.642620 0.276620 0.360508 0.123154
H35   H     H_    0.069500 0.724321 0.471044 0.086323
H36   H     H_    0.373321 0.739360 0.675848 0.092519
H37   H     H_    0.387178 0.825364 0.652107 0.144011
H38   H     H_    0.323585 0.762074 0.632088 0.110974
H39   H     H_    0.195352 0.408245 0.344781 0.163534
H40   H     H_    0.274707 0.392970 0.315070 0.084699
H41   H     H_    0.265066 0.349897 0.362344 0.111738
H42   H     H_    0.702878 0.615094 0.686258 0.076120
H43   H     H_    0.784489 0.577669 0.664657 0.158294
H44   H     H_    0.730278 0.638564 0.637252 0.112641
H45   H     H_    0.385504 0.827485 0.348859 0.168672
H46   H     H_    0.148368 0.745948 0.442362 0.137437
H47   H     H_    0.375764 0.742309 0.323333 0.083604
H48   H     H_    0.323675 0.760800 0.367218 0.115579
H49   H     H_    0.631939 0.258069 0.674303 0.093726
H50   H     H_    0.617267 0.170464 0.652139 0.142417
H51   H     H_    0.682746 0.230931 0.631330 0.110135
H52   H     H_    0.004945 0.680043 0.412770 0.089485
H53   H     H_    0.001234 0.645658 0.363083 0.119976
H54   H     H_    0.072340 0.706723 0.377720 0.182198
H55   H     H_    0.019001 0.350525 0.629458 0.112725
H56   H     H_    0.994065 0.309335 0.582966 0.131675
H57   H     H_    0.159073 0.733338 0.493462 0.162343
H58   H     H_    0.942125 0.290293 0.626040 0.184140
H59   H     H_    0.364281 0.078262 0.346704 0.172467
H60   H     H_    0.400885 0.131959 0.386837 0.080757
H61   H     H_    0.305163 0.111517 0.383866 0.187878
H62   H     H_    0.642038 0.034021 0.646433 0.138223
H63   H     H_    0.658140 0.068423 0.597489 0.076549
H64   H     H_    0.720604 0.006108 0.619637 0.161542
H65   H     H_    0.828932 0.495713 0.383145 0.089354
H66   H     H_    0.818016 0.461374 0.432231 0.092023
H67   H     H_    0.790361 0.406932 0.391928 0.167048
H68   H     H_    0.799400 0.427089 0.558719 0.111948
H69   H     H_    0.985742 0.651801 0.623312 0.113344
H70   H     H_    0.021766 0.687118 0.577491 0.122943
H71   H     H_    0.066211 0.707566 0.622599 0.180835
H72   H     H_    0.681830 0.054733 0.420662 0.124210
H73   H     H_    0.633394 0.074456 0.375656 0.125755
H74   H     H_    0.714690 0.020157 0.374976 0.171295
H75   H     H_    0.358247 0.966360 0.649516 0.139488
H76   H     H_    0.342816 0.927826 0.601329 0.080764
H77   H     H_    0.279264 0.990838 0.622534 0.165396
H78   H     H_    0.381858 0.152341 0.926606 0.113234
H79   H     H_    0.764421 0.335676 0.556284 0.117231
H80   H     H_    0.372549 0.094873 0.883747 0.106104
H81   H     H_    0.392726 0.190431 0.879058 0.200486
H82   H     H_    0.427845 0.823062 0.077842 0.118314
H83   H     H_    0.410440 0.875863 0.121862 0.113941
H84   H     H_    0.455112 0.789124 0.124458 0.185485
H85   H     H_    0.993288 0.671701 0.882902 0.087438
H86   H     H_    0.960535 0.681065 0.932501 0.089855
H87   H     H_    0.904230 0.708443 0.893138 0.168562
H88   H     H_    0.151409 0.512262 0.123788 0.101138
H89   H     H_    0.187766 0.476577 0.078001 0.118781
H90   H     H_    0.777304 0.385083 0.511954 0.122842
H91   H     H_    0.206167 0.431241 0.123040 0.181266
H92   H     H_    0.451102 0.860454 0.851966 0.150231
H93   H     H_    0.411311 0.853350 0.900474 0.067479
H94   H     H_    0.464980 0.780686 0.880335 0.166213
H95   H     H_    0.426894 0.135091 0.151162 0.172646
H96   H     H_    0.379475 0.114858 0.105883 0.071103
H97   H     H_    0.411874 0.205137 0.116582 0.172805
H98   H     H_    0.181606 0.492372 0.911906 0.088641
H99   H     H_    0.145524 0.498684 0.862799 0.115787
H100  H     H_    0.205631 0.425915 0.875690 0.179662
H101  H     H_    0.272358 0.177197 0.448624 0.135649
H102  H     H_    0.850698 0.479432 0.130034 0.115626
H103  H     H_    0.809818 0.503560 0.083533 0.134462
H104  H     H_    0.789685 0.555446 0.126527 0.183915
H105  H     H_    0.897416 0.235577 0.440060 0.151233
H106  H     H_    0.369315 0.175220 0.455504 0.078281
H107  H     H_    0.307197 0.169459 0.496975 0.158196
H108  H     H_    0.787166 0.972283 0.554453 0.138629
H109  H     H_    0.725295 0.039834 0.536562 0.082022
H110  H     H_    0.769651 0.975763 0.503454 0.161745
H111  H     H_    0.486532 0.710229 0.945715 0.139293
H112  H     H_    0.429268 0.783575 0.961958 0.072009
H113  H     H_    0.483650 0.731739 0.996415 0.159282
H114  H     H_    0.402110 0.274314 0.052277 0.141289
H115  H     H_    0.369617 0.184430 0.040854 0.076070
H116  H     H_    0.944247 0.256146 0.484498 0.122423
H117  H     H_    0.402583 0.244916 0.002678 0.150126
H118  H     H_    0.225057 0.430464 0.971329 0.083990
H119  H     H_    0.246664 0.353158 0.941420 0.136322
H120  H     H_    0.233761 0.339723 0.992351 0.156605
H121  H     H_    0.924708 0.700544 0.058783 0.110197
H122  H     H_    0.832675 0.733689 0.056416 0.109137
H123  H     H_    0.882573 0.721068 0.012037 0.125105
H124  H     H_    0.582632 0.270548 0.940700 0.154283
H125  H     H_    0.608885 0.176348 0.939354 0.120558
H126  H     H_    0.603696 0.225767 0.985568 0.129273
H127  H     H_    0.204818 0.537774 0.561162 0.116313
H128  H     H_    0.654405 0.762281 0.058755 0.154889
H129  H     H_    0.655045 0.860108 0.059246 0.105825
H130  H     H_    0.661981 0.809743 0.013394 0.136398
H131  H     H_    0.793036 0.520803 0.939300 0.128364
H132  H     H_    0.734777 0.599322 0.941327 0.164254
H133  H     H_    0.755913 0.552930 0.985707 0.124820
H134  H     H_    0.038663 0.294763 0.060658 0.118447
H135  H     H_    0.121668 0.243084 0.058983 0.116946
H136  H     H_    0.074996 0.261376 0.014327 0.124583
H137  H     H_    0.301175 0.900097 0.160978 0.148078
H138  H     H_    0.257587 0.620180 0.559241 0.112673
H139  H     H_    0.215774 0.856134 0.172282 0.080501
H140  H     H_    0.266825 0.831191 0.129356 0.102737
H141  H     H_    0.753835 0.132480 0.826480 0.078569
H142  H     H_    0.665702 0.121121 0.848863 0.168296
H143  H     H_    0.728101 0.185700 0.868844 0.107034
H144  H     H_    0.090739 0.301270 0.157279 0.188271
H145  H     H_    0.111304 0.220333 0.184432 0.065430
H146  H     H_    0.150453 0.235480 0.136574 0.116209
H147  H     H_    0.896501 0.808645 0.793866 0.080399
H148  H     H_    0.939346 0.740505 0.823433 0.150096
H149  H     H_    0.238320 0.572838 0.514709 0.128343
H150  H     H_    0.883871 0.807896 0.845882 0.077202
H151  H     H_    0.714471 0.077128 0.163836 0.161059
H152  H     H_    0.795799 0.111437 0.186865 0.068155
H153  H     H_    0.772149 0.137323 0.137709 0.116539
H154  H     H_    0.224165 0.856795 0.829459 0.082641
H155  H     H_    0.312178 0.893823 0.842223 0.144815
H156  H     H_    0.272796 0.824034 0.871397 0.106707
H157  H     H_    0.885438 0.680033 0.157907 0.196667
H158  H     H_    0.844340 0.768096 0.166177 0.057356
H159  H     H_    0.812736 0.709732 0.127539 0.150383
H160  H     H_    0.714333 0.817961 0.440105 0.134373
H161  H     H_    0.113725 0.225458 0.817878 0.070166
H162  H     H_    0.094988 0.308147 0.844015 0.202764
H163  H     H_    0.155726 0.243641 0.864705 0.136380
H164  H     H_    0.281438 0.081931 0.833417 0.150124
H165  H     H_    0.199853 0.125351 0.816246 0.084013
H166  H     H_    0.235157 0.144881 0.864116 0.097918
H167  H     H_    0.744382 0.865921 0.172142 0.077262
H168  H     H_    0.656135 0.869473 0.149655 0.186197
H169  H     H_    0.722633 0.807017 0.131327 0.105172
H170  H     H_    0.116847 0.669114 0.849082 0.140862
H171  H     H_    0.617320 0.830855 0.439053 0.109193
H172  H     H_    0.125302 0.755014 0.824429 0.085581
H173  H     H_    0.178131 0.736116 0.867683 0.106773
H174  H     H_    0.896083 0.208500 0.192417 0.080126
H175  H     H_    0.924489 0.284390 0.162959 0.154460
H176  H     H_    0.866984 0.216954 0.142302 0.103307
H177  H     H_    0.705008 0.914048 0.843114 0.162401
H178  H     H_    0.783977 0.893907 0.813940 0.070734
H179  H     H_    0.771464 0.852837 0.861647 0.132905
H180  H     H_    0.203664 0.120003 0.184345 0.087395
H181  H     H_    0.285916 0.080953 0.164388 0.146670
H182  H     H_    0.664657 0.817027 0.485121 0.129180
H183  H     H_    0.235053 0.143217 0.136018 0.101859
H184  H     H_    0.885145 0.325048 0.844404 0.165433
H185  H     H_    0.855725 0.234749 0.830325 0.073744
H186  H     H_    0.815025 0.280826 0.871490 0.118156
H187  H     H_    0.123009 0.754902 0.176460 0.095103
H188  H     H_    0.115901 0.669656 0.150768 0.151749
H189  H     H_    0.176360 0.737958 0.132805 0.108930
H190  H     H_    0.818444 0.389394 0.657363 0.195919
H191  H     H_    0.729424 0.355118 0.670202 0.059383
H192  H     H_    0.778101 0.319164 0.628683 0.141104
O1    O     O_3   0.500000 0.000000 0.250000 -0.447532
O2    O     O_R   0.500000 0.939270 0.662450 -0.552615
O3    O     O_3   0.715403 0.177261 0.681013 -0.543444
O4    O     O_3   0.084063 0.601555 0.397317 -0.529280
O5    O     O_3   0.925032 0.392322 0.603306 -0.546402
O6    O     O_3   0.367355 0.022703 0.398758 -0.531874
O7    O     O_3   0.624618 0.957857 0.602413 -0.504534
O8    O     O_3   0.901582 0.412932 0.398171 -0.491898
O9    O     O_3   0.081634 0.602739 0.602919 -0.539066
O10   O     O_3   0.624003 0.967439 0.396185 -0.535889
O11   O     O_3   0.374471 0.039338 0.604103 -0.510788
O12   O     O_3   0.478955 0.127769 0.896940 -0.523406
O13   O     O_R   0.939270 0.500000 0.337550 -0.540313
O14   O     O_3   0.519143 0.872226 0.103340 -0.535028
O15   O     O_3   0.912257 0.597261 0.898575 -0.490790
O16   O     O_3   0.101863 0.417131 0.102713 -0.525696
O17   O     O_3   0.526049 0.869615 0.896901 -0.507756
O18   O     O_3   0.494354 0.133439 0.102804 -0.516070
O19   O     O_3   0.101085 0.415292 0.896822 -0.523287
O20   O     O_3   0.891903 0.573750 0.103729 -0.548801
O21   O     O_R   0.060730 0.500000 0.662450 -0.540525
O22   O     O_R   1.000000 0.439270 0.837550 -0.532781
O23   O     O_R   0.000000 0.560730 0.162450 -0.543738
O24   O     O_R   0.560730 0.000000 0.837550 -0.531965
O25   O     O_R   0.439270 0.000000 0.162450 -0.587576
O26   O     O_R   0.000000 0.560730 0.837550 -0.538138
O27   O     O_R   1.000000 0.439270 0.162450 -0.532331
O28   O     O_R   0.439270 0.000000 0.837550 -0.577133
O29   O     O_3   0.500000 0.000000 0.750000 -0.449623
O30   O     O_R   0.560730 0.000000 0.162450 -0.528575
O31   O     O_R   0.414490 0.146150 0.273020 -0.547022
O32   O     O_R   0.585510 0.853850 0.726980 -0.536369
O33   O     O_R   0.853850 0.414490 0.273020 -0.518675
O34   O     O_R   0.146150 0.585510 0.726980 -0.544053
O35   O     O_R   0.585510 0.853850 0.273020 -0.541861
O36   O     O_R   0.414490 0.146150 0.726980 -0.538028
O37   O     O_R   0.146150 0.585510 0.273020 -0.546887
O38   O     O_R   0.853850 0.414490 0.726980 -0.546251
O39   O     O_R   0.414490 0.853850 0.726980 -0.550930
O40   O     O_3   1.000000 0.500000 0.250000 -0.454067
O41   O     O_R   0.585510 0.146150 0.273020 -0.536381
O42   O     O_R   0.853850 0.585510 0.726980 -0.538115
O43   O     O_R   0.146150 0.414490 0.273020 -0.540244
O44   O     O_R   0.585510 0.146150 0.726980 -0.546608
O45   O     O_R   0.414490 0.853850 0.273020 -0.544390
O46   O     O_R   0.146150 0.414490 0.726980 -0.545619
O47   O     O_R   0.853850 0.585510 0.273020 -0.559416
O48   O     O_R   0.914490 0.646150 0.773020 -0.521188
O49   O     O_R   0.085510 0.353850 0.226980 -0.541542
O50   O     O_R   0.353850 0.914490 0.773020 -0.551366
O51   O     O_3   1.000000 0.500000 0.750000 -0.453764
O52   O     O_R   0.646150 0.085510 0.226980 -0.534972
O53   O     O_R   0.085510 0.353850 0.773020 -0.541208
O54   O     O_R   0.914490 0.646150 0.226980 -0.543274
O55   O     O_R   0.646150 0.085510 0.773020 -0.549312
O56   O     O_R   0.353850 0.914490 0.226980 -0.541943
O57   O     O_R   0.914490 0.353850 0.226980 -0.541260
O58   O     O_R   0.085510 0.646150 0.773020 -0.555754
O59   O     O_R   0.353850 0.085510 0.226980 -0.544168
O60   O     O_R   0.646150 0.914490 0.773020 -0.534958
O61   O     O_R   0.085510 0.646150 0.226980 -0.546532
O62   O     O_R   0.500000 0.939270 0.337550 -0.535153
O63   O     O_R   0.914490 0.353850 0.773020 -0.548557
O64   O     O_R   0.646150 0.914490 0.226980 -0.550788
O65   O     O_R   0.353850 0.085510 0.773020 -0.533531
O66   O     O_3   0.880989 0.339549 0.460714 -0.527397
O67   O     O_3   0.152068 0.630694 0.540191 -0.536306
O68   O     O_3   0.680029 0.918740 0.458896 -0.527385
O69   O     O_3   0.306718 0.055733 0.540975 -0.515361
O70   O     O_3   0.145221 0.639154 0.460224 -0.525003
O71   O     O_3   0.871499 0.346355 0.539326 -0.517658
O72   O     O_3   0.313436 0.076031 0.461878 -0.526290
O73   O     O_R   0.500000 0.060730 0.662450 -0.556267
O74   O     O_3   0.687369 0.931150 0.538269 -0.504567
O75   O     O_3   0.542570 0.803188 0.960903 -0.497742
O76   O     O_3   0.483101 0.200860 0.038701 -0.498247
O77   O     O_3   0.139738 0.355239 0.959624 -0.521614
O78   O     O_3   0.845353 0.626567 0.039978 -0.517449
O79   O     O_3   0.503765 0.199469 0.959910 -0.533282
O80   O     O_3   0.559225 0.809454 0.040059 -0.529659
O81   O     O_3   0.838709 0.616983 0.961405 -0.525620
O82   O     O_3   0.131508 0.348502 0.039672 -0.533446
O83   O     O_3   0.313533 0.793541 0.179830 -0.536404
O84   O     O_R   0.060730 0.500000 0.337550 -0.528359
O85   O     O_3   0.675172 0.217588 0.818792 -0.517079
O86   O     O_3   0.195279 0.301208 0.179225 -0.523803
O87   O     O_3   0.827856 0.724603 0.817869 -0.498152
O88   O     O_3   0.706842 0.185912 0.179350 -0.503901
O89   O     O_3   0.317987 0.789194 0.819631 -0.544349
O90   O     O_3   0.781718 0.673573 0.181685 -0.538268
O91   O     O_3   0.198321 0.306153 0.820177 -0.537801
O92   O     O_3   0.296557 0.191272 0.820261 -0.539326
O93   O     O_3   0.671016 0.776950 0.182361 -0.517895
O94   O     O_3   0.213714 0.679224 0.819186 -0.533199
O95   O     O_R   0.939270 0.500000 0.662450 -0.535859
O96   O     O_3   0.816237 0.290196 0.179461 -0.521593
O97   O     O_3   0.702942 0.810507 0.819765 -0.503611
O98   O     O_3   0.297319 0.189835 0.179371 -0.551235
O99   O     O_3   0.783247 0.323911 0.818966 -0.524454
O100  O     O_3   0.212498 0.680404 0.180562 -0.534994
O101  O     O_3   0.821398 0.285742 0.680801 -0.537502
O102  O     O_3   0.183436 0.709409 0.319941 -0.540764
O103  O     O_3   0.689746 0.795550 0.679085 -0.503776
O104  O     O_3   0.313810 0.209107 0.320047 -0.553063
O105  O     O_3   0.182134 0.710744 0.680370 -0.537778
O106  O     O_R   0.500000 0.060730 0.337550 -0.585973
O107  O     O_3   0.773719 0.330689 0.317490 -0.501044
O108  O     O_3   0.298928 0.190781 0.679269 -0.510346
O109  O     O_3   0.720507 0.829059 0.317922 -0.519142
O110  O     O_3   0.827970 0.722371 0.318057 -0.529900
O111  O     O_3   0.192711 0.298596 0.679182 -0.529386
O112  O     O_3   0.686917 0.206537 0.319718 -0.532907
O113  O     O_3   0.288241 0.819083 0.680574 -0.544287
O114  O     O_3   0.197743 0.305588 0.320295 -0.523428
O115  O     O_3   0.794592 0.686771 0.679247 -0.523180
O116  O     O_3   0.288095 0.819080 0.319586 -0.519962
Zn1   Zn    Zn3+2 0.413190 0.000000 0.217350 0.921284
Zn2   Zn    Zn3+2 0.086810 0.500000 0.282650 0.947084
Zn3   Zn    Zn3+2 0.500000 0.913190 0.717350 0.931807
Zn4   Zn    Zn3+2 0.500000 0.086810 0.282650 0.918274
Zn5   Zn    Zn3+2 0.086810 0.500000 0.717350 0.935695
Zn6   Zn    Zn3+2 0.913190 0.500000 0.282650 0.943707
Zn7   Zn    Zn3+2 0.500000 0.086810 0.717350 0.939235
Zn8   Zn    Zn3+2 0.500000 0.913190 0.282650 0.953245
Zn9   Zn    Zn3+2 0.586810 0.000000 0.782650 0.952994
Zn10  Zn    Zn3+2 1.000000 0.413190 0.217350 0.943607
Zn11  Zn    Zn3+2 0.000000 0.586810 0.782650 0.945137
Zn12  Zn    Zn3+2 0.586810 0.000000 0.217350 0.956636
Zn13  Zn    Zn3+2 0.413190 0.000000 0.782650 0.929107
Zn14  Zn    Zn3+2 1.000000 0.586810 0.217350 0.936304
Zn15  Zn    Zn3+2 0.000000 0.413190 0.782650 0.945108
Zn16  Zn    Zn3+2 0.913190 0.500000 0.717350 0.945755

loop_
_geom_bond_atom_site_label_1
_geom_bond_atom_site_label_2
_ccdc_geom_bond_type
C112  O5    S    
C66   H155  S    
C88   H30   S    
C158  O43   A    
C92   H39   S    
C127  O74   S    
C79   C139  S    
C176  O97   S    
C71   H168  S    
C196  O116  S    
C43   O66   S    
O25   Zn1   S    
C50   H107  S    
C71   O93   S    
C132  O79   S    
O23   Zn14  S    
C44   H127  S    
C152  O37   A    
C15   C41   A    
O35   Zn8   S    
C78   O101  S    
C93   H42   S    
C27   C162  S    
C23   C188  A    
C76   H184  S    
C108  H91   S    
O73   Zn7   S    
C5    C36   A    
C160  O45   A    
C114  H102  S    
C48   H46   S    
C175  O96   S    
O44   Zn7   S    
C2    C116  A    
C17   C182  A    
O21   Zn5   S    
C166  C176  A    
C43   H1    S    
C105  H81   S    
C169  C174  A    
C35   C115  A    
C177  O98   S    
C76   O99   S    
C138  O2    A    
C94   H47   S    
C192  O112  S    
O40   Zn14  S    
C29   C155  S    
C82   H9    S    
C66   H154  S    
C30   C156  S    
C99   H63   S    
C9    C46   A    
O29   Zn13  S    
C10   C41   A    
C172  O92   S    
C51   O74   S    
C63   H145  S    
C54   H120  S    
C45   O68   S    
C152  O61   A    
C84   O107  S    
C115  C143  S    
C102  H71   S    
C141  O22   A    
C65   H151  S    
C107  H86   S    
C56   H125  S    
O45   Zn8   S    
C101  C137  S    
O63   Zn15  S    
O32   Zn3   S    
C155  O41   A    
O29   Zn3   S    
C8    C35   A    
C32   C197  A    
C63   H144  S    
C13   C117  A    
C30   C195  A    
C168  O10   S    
C142  O23   A    
C59   H133  S    
C146  O8    S    
C53   H115  S    
C30   C166  A    
C84   H18   S    
C97   H56   S    
O40   Zn10  S    
C113  C179  A    
C155  O52   A    
C186  O107  S    
C1    C79   A    
O29   Zn9   S    
C77   H189  S    
C136  O82   S    
C72   H170  S    
C130  O77   S    
C44   H149  S    
C12   C132  A    
C183  O103  S    
C108  O16   S    
C168  C200  A    
C103  H74   S    
C93   H44   S    
C52   O75   S    
C90   C140  S    
C26   C191  A    
O52   Zn12  S    
C26   C161  S    
C96   H54   S    
C73   H176  S    
C103  O10   S    
C131  O78   S    
C122  O69   S    
C109  H93   S    
C69   O91   S    
C150  O64   A    
O34   Zn5   S    
C106  H84   S    
C2    C14   A    
C94   H45   S    
O13   Zn6   S    
C149  O34   A    
O1    Zn12  S    
C52   H112  S    
C160  O56   A    
C87   H28   S    
C113  C135  A    
O53   Zn15  S    
C185  O105  S    
C54   H118  S    
C153  O38   A    
O1    Zn1   S    
C81   O103  S    
C123  O70   S    
C144  O30   A    
C109  H92   S    
C110  O18   S    
C70   H165  S    
C149  O58   A    
C101  C168  A    
C119  C198  A    
C165  C177  A    
C76   H185  S    
C45   H171  S    
C150  O35   A    
C104  O11   S    
C36   C199  A    
C181  C197  A    
C21   C186  A    
C74   O97   S    
C97   O5    S    
C100  H66   S    
C43   H116  S    
C87   O110  S    
C137  O106  A    
C20   C147  S    
C74   H178  S    
C171  O91   S    
C62   H142  S    
C169  O89   S    
C80   H3    S    
C64   H148  S    
C59   H132  S    
C59   H131  S    
C143  O28   A    
O48   Zn11  S    
C182  O102  S    
C91   O113  S    
C104  H77   S    
C89   H33   S    
O61   Zn14  S    
C52   H113  S    
C25   C187  A    
C68   C118  A    
C116  C144  S    
O43   Zn2   S    
C8    C128  A    
C31   C165  A    
C33   C196  A    
C21   C175  A    
C166  O87   S    
C73   H174  S    
C62   H143  S    
C19   C177  A    
C138  O73   A    
C33   C160  S    
C179  O11   S    
C51   H110  S    
C111  H98   S    
O95   Zn16  S    
C105  H78   S    
C133  O80   S    
C58   H128  S    
C49   H90   S    
C46   O18   S    
C95   H50   S    
C97   H58   S    
C79   C146  A    
C145  O59   A    
C101  C124  A    
C21   C148  S    
C137  O62   A    
C39   C40   A    
C120  O67   S    
C18   C181  A    
C110  H96   S    
C93   O115  S    
C58   H129  S    
C94   O116  S    
C106  H82   S    
C58   O80   S    
C146  C198  A    
C54   O77   S    
C107  H87   S    
C60   H135  S    
C96   O4    S    
C108  H88   S    
C159  O55   A    
C191  O111  S    
C92   H41   S    
C34   C198  A    
C55   H123  S    
C104  H76   S    
C69   H162  S    
C87   H26   S    
C57   O19   S    
C154  O39   A    
C70   O92   S    
C111  H100  S    
O33   Zn6   S    
C87   H27   S    
C86   H23   S    
C16   C136  A    
C83   H14   S    
C164  C178  A    
C11   C68   A    
C167  C175  A    
C49   H68   S    
C80   O102  S    
C92   H40   S    
C156  O42   A    
C139  O84   A    
C43   H105  S    
C49   O71   S    
C195  O115  S    
C72   H173  S    
C197  O3    S    
C44   O67   S    
C89   O112  S    
C5    C112  A    
C193  O113  S    
C81   H7    S    
C25   C151  S    
C32   C159  S    
C90   C157  A    
C13   C15   A    
C67   H158  S    
C124  O6    S    
C178  O99   S    
O51   Zn16  S    
C184  C194  A    
C32   C164  A    
C114  H103  S    
C34   C36   A    
C62   H141  S    
C48   H35   S    
C51   H108  S    
C78   H192  S    
C18   C178  A    
C161  O53   A    
C59   O81   S    
C5    C125  A    
C86   H25   S    
C69   H161  S    
C67   O90   S    
C7    C127  A    
C94   H48   S    
C77   H188  S    
C151  O36   A    
C81   H6    S    
C82   H10   S    
C98   H59   S    
C41   C42   A    
C47   H24   S    
C131  C134  A    
C15   C134  A    
C190  O12   S    
C129  O76   S    
C78   H190  S    
C1    O4    S    
O65   Zn13  S    
O60   Zn9   S    
C102  H69   S    
C85   H20   S    
C121  C127  A    
C56   H126  S    
C50   H101  S    
C140  O21   A    
O49   Zn10  S    
O64   Zn12  S    
C49   H79   S    
C66   H156  S    
C158  O49   A    
O106  Zn4   S    
C11   C42   A    
C37   C200  A    
O51   Zn5   S    
C61   O83   S    
C121  O68   S    
C61   H140  S    
O84   Zn2   S    
C183  C195  A    
C53   H114  S    
C153  O63   A    
C92   O114  S    
C95   O3    S    
C83   H12   S    
C120  C123  A    
C97   H55   S    
C129  C132  A    
C88   H29   S    
C22   C149  S    
C65   H153  S    
C88   O111  S    
C95   H49   S    
C63   H146  S    
C50   H106  S    
C48   H57   S    
O58   Zn11  S    
C148  O57   A    
C188  O109  S    
C6    C126  A    
C140  O95   A    
C147  O32   A    
C95   H51   S    
C111  O19   S    
C73   O96   S    
O29   Zn7   S    
C82   O104  S    
C50   O72   S    
C19   C184  A    
C117  C141  S    
C10   C130  A    
C121  C200  A    
C73   H175  S    
O47   Zn6   S    
C55   O78   S    
C69   H163  S    
C67   H159  S    
C19   C145  S    
O36   Zn7   S    
C27   C170  A    
C103  H73   S    
C173  O93   S    
C81   H8    S    
C119  C125  A    
C25   C172  A    
C99   O7    S    
C14   C133  A    
C23   C150  S    
C26   C171  A    
C111  H99   S    
C128  O75   S    
C93   H43   S    
C17   C152  S    
C54   H119  S    
C96   H52   S    
C48   O70   S    
O2    Zn3   S    
C12   C190  A    
C71   H169  S    
C57   C117  A    
C77   H187  S    
C62   O85   S    
C161  O46   A    
O46   Zn5   S    
C56   O79   S    
O22   Zn15  S    
C70   H166  S    
C33   C163  A    
C76   H186  S    
C65   H152  S    
C83   H15   S    
C23   C173  A    
O28   Zn13  S    
C46   C116  A    
C20   C183  A    
C29   C167  A    
C12   C39   A    
C74   H179  S    
C141  O26   A    
C47   H2    S    
C63   O86   S    
C80   H4    S    
C119  O66   S    
C151  O65   A    
C47   H13   S    
C91   H38   S    
C29   C192  A    
C55   H121  S    
O42   Zn16  S    
C9    C40   A    
C89   H32   S    
C157  O9    S    
C31   C158  S    
C84   H17   S    
C47   O69   S    
C180  O100  S    
C120  C199  A    
C75   H180  S    
C28   C169  A    
C88   H31   S    
C13   O15   S    
O56   Zn1   S    
C100  H65   S    
C142  O27   A    
C113  C138  S    
C125  O71   S    
C85   O108  S    
C64   O87   S    
C163  O83   S    
C51   H109  S    
C170  C173  A    
C171  C172  A    
C2    O14   S    
C45   H160  S    
C60   O82   S    
C90   C112  A    
C45   H182  S    
O40   Zn6   S    
C55   H122  S    
O62   Zn8   S    
C148  O33   A    
C147  O60   A    
C20   C176  A    
C174  O94   S    
C67   H157  S    
C37   C38   A    
O55   Zn9   S    
C96   H53   S    
C86   O109  S    
C170  O90   S    
C145  O31   A    
C144  O25   A    
C109  H94   S    
C110  H97   S    
C162  O54   A    
C58   H130  S    
C106  H83   S    
C181  O101  S    
C3    C179  A    
C60   H136  S    
C53   H117  S    
C189  O110  S    
C115  C190  A    
C35   O17   S    
C99   H62   S    
C187  O108  S    
C71   H167  S    
C74   H177  S    
C8    C39   A    
O30   Zn12  S    
C107  H85   S    
C134  O81   S    
O37   Zn2   S    
C187  C191  A    
C3    C122  A    
C80   H5    S    
C64   H150  S    
C162  O47   A    
C16   C24   A    
C70   H164  S    
C28   C154  S    
C91   H37   S    
C53   O76   S    
C102  H70   S    
C66   O89   S    
C22   C174  A    
C75   H183  S    
C4    C34   A    
C167  O88   S    
C83   O105  S    
C10   C57   A    
C3    C38   A    
C27   C189  A    
C64   H147  S    
C68   O20   S    
O40   Zn2   S    
C91   H36   S    
C184  O104  S    
C65   O88   S    
C4    C123  A    
C188  C189  A    
C157  C199  A    
C89   H34   S    
C122  C126  A    
C7    C135  A    
C106  O14   S    
C108  H89   S    
O51   Zn15  S    
C159  O44   A    
C60   H134  S    
C114  H104  S    
C28   C193  A    
C156  O48   A    
C6    C37   A    
C143  O24   A    
C78   H191  S    
O54   Zn14  S    
C154  O50   A    
C104  H75   S    
C18   C153  S    
C72   O94   S    
C17   C180  A    
C44   H138  S    
O59   Zn1   S    
C102  O9    S    
C100  O8    S    
O24   Zn9   S    
C182  C196  A    
C16   C42   A    
O50   Zn13  S    
C75   O98   S    
O38   Zn16  S    
C82   H11   S    
O1    Zn8   S    
C98   H60   S    
C105  H80   S    
O41   Zn4   S    
C72   H172  S    
C6    C124  A    
O31   Zn4   S    
C24   O16   S    
C164  O85   S    
C130  C136  A    
C185  C193  A    
C118  C142  S    
C11   C131  A    
C99   H64   S    
C31   C194  A    
C194  O114  S    
O39   Zn3   S    
C100  H67   S    
C9    C129  A    
C109  O17   S    
C110  H95   S    
C24   C118  A    
O57   Zn10  S    
C52   H111  S    
C1    C4    A    
C107  O15   S    
C103  H72   S    
C22   C185  A    
C135  O7    S    
C85   H19   S    
C128  C133  A    
C98   O6    S    
C126  O72   S    
C98   H61   S    
C85   H21   S    
O26   Zn11  S    
O27   Zn10  S    
O51   Zn11  S    
C7    C38   A    
C165  O86   S    
C114  O20   S    
C186  C192  A    
O1    Zn4   S    
C14   C40   A    
C61   H139  S    
C163  C180  A    
C61   H137  S    
C86   H22   S    
C56   H124  S    
C105  O12   S    
C139  O13   A    
C77   O100  S    
C84   H16   S    
C75   H181  S    
