data_mof_unit_pretest_251.cif
_audit_creation_date              2012-12-11T15:22:16-0500
_audit_creation_method            fapswitch 2.2
_symmetry_space_group_name_H-M    P1
_symmetry_Int_Tables_number       1
_space_group_crystal_system       triclinic
_cell_length_a                    22.44187
_cell_length_b                    12.987656
_cell_length_c                    27.002632
_cell_angle_alpha                 90.134085
_cell_angle_beta                  90.53493
_cell_angle_gamma                 90.136416
_cell_volume                      7869.99662169

loop_
_atom_site_label
_atom_site_type_symbol
_atom_type_description
_atom_site_fract_x
_atom_site_fract_y
_atom_site_fract_z
_atom_type_partial_charge
C1    C     C_R   0.720837 0.345307 0.178372 0.538492
C2    C     C_R   0.279328 0.344962 0.821819 0.538767
C3    C     C_R   0.220705 0.844840 0.178206 0.538543
C4    C     C_R   0.794870 0.806277 0.826964 0.554814
C5    C     C_R   0.471686 0.162081 0.872950 -0.002922
C6    C     C_R   0.524401 0.163360 0.128811 -0.005339
C7    C     C_R   0.972778 0.663601 0.872393 -0.003949
C8    C     C_R   0.025516 0.661675 0.128231 -0.003624
C9    C     C_R   0.520748 0.257643 0.103401 -0.134346
C10   C     C_R   0.479375 0.256528 0.897785 -0.133865
C11   C     C_R   0.016676 0.756097 0.103892 -0.135841
C12   C     C_R   0.975136 0.757670 0.898299 -0.137617
C13   C     C_R   0.508227 0.258970 0.052469 0.013390
C14   C     C_R   0.490194 0.258166 0.949041 0.014901
C15   C     C_R   0.004209 0.757723 0.052894 0.012994
C16   C     C_R   0.986053 0.758743 0.949485 0.015638
C17   C     C_R   0.499714 0.164944 0.027075 0.063977
C18   C     C_R   0.492067 0.164425 0.975413 0.064222
C19   C     C_R   0.001739 0.664011 0.026325 0.064840
C20   C     C_R   0.994062 0.664647 0.974675 0.065370
C21   C     C_R   0.506793 0.351904 0.026025 -0.137895
C22   C     C_R   0.497264 0.351556 0.974723 -0.137276
C23   C     C_R   0.996635 0.851099 0.027551 -0.143284
C24   C     C_R   0.987008 0.851536 0.976260 -0.140799
C25   C     C_R   0.743557 0.943522 0.133505 0.022240
C26   C     C_R   0.260975 0.958331 0.870332 0.024585
C27   C     C_R   0.239057 0.457267 0.129837 0.024398
C28   C     C_R   0.761972 0.461605 0.871164 0.023682
C29   C     C_R   0.802007 0.932439 0.116322 -0.129712
C30   C     C_R   0.206106 0.966435 0.894457 -0.129644
C31   C     C_R   0.294123 0.464574 0.105956 -0.129888
C32   C     C_R   0.707212 0.469229 0.895481 -0.134448
C33   C     C_R   0.812385 0.892928 0.069042 -0.119689
C34   C     C_R   0.202568 0.947738 0.945145 -0.119618
C35   C     C_R   0.297800 0.445650 0.055270 -0.119722
C36   C     C_R   0.704229 0.452880 0.946398 -0.121458
C37   C     C_R   0.764420 0.865902 0.037600 0.034589
C38   C     C_R   0.254004 0.922080 0.972523 0.036541
C39   C     C_R   0.246311 0.420602 0.027694 0.036441
C40   C     C_R   0.756098 0.429956 0.973798 0.036709
C41   C     C_R   0.706165 0.871151 0.056105 -0.119984
C42   C     C_R   0.308082 0.908329 0.947786 -0.121182
C43   C     C_R   0.192028 0.407393 0.052212 -0.121541
C44   C     C_R   0.810242 0.417676 0.949015 -0.119468
C45   C     C_R   0.553498 0.157218 0.177657 0.548448
C46   C     C_R   0.445768 0.157207 0.822809 0.549356
C47   C     C_R   0.053681 0.656999 0.177520 0.548609
C48   C     C_R   0.945936 0.657416 0.822674 0.540527
C49   C     C_R   0.695883 0.908944 0.103688 -0.126698
C50   C     C_R   0.311407 0.925265 0.897107 -0.125444
C51   C     C_R   0.188559 0.424508 0.102887 -0.125696
C52   C     C_R   0.813041 0.432317 0.898152 -0.123418
C53   C     C_R   0.738165 0.773773 0.957926 -0.114558
C54   C     C_R   0.284306 0.833961 0.050782 -0.118723
C55   C     C_R   0.215685 0.333391 0.949100 -0.118813
C56   C     C_R   0.787049 0.341582 0.051784 -0.118238
C57   C     C_R   0.744144 0.762236 0.906658 -0.127572
C58   C     C_R   0.278422 0.818693 0.101439 -0.124687
C59   C     C_R   0.221444 0.318671 0.898390 -0.124347
C60   C     C_R   0.780413 0.324078 0.102208 -0.125280
C61   C     C_R   0.824241 0.887386 0.907599 -0.120316
C62   C     C_R   0.208848 0.960915 0.105579 -0.123233
C63   C     C_R   0.291865 0.460298 0.894906 -0.123694
C64   C     C_R   0.709389 0.464069 0.106697 -0.122884
C65   C     C_R   0.817914 0.899638 0.958489 -0.113526
C66   C     C_R   0.215448 0.977190 0.054956 -0.115646
C67   C     C_R   0.285366 0.476073 0.945598 -0.115891
C68   C     C_R   0.716682 0.482529 0.056319 -0.115888
C69   C     C_R   0.774438 0.843909 0.984306 0.038235
C70   C     C_R   0.251523 0.911389 0.026816 0.038324
C71   C     C_R   0.248901 0.410282 0.973405 0.038339
C72   C     C_R   0.753748 0.418712 0.028063 0.037892
C73   C     C_R   0.786574 0.820370 0.880840 0.020580
C74   C     C_R   0.238822 0.879404 0.128881 0.025417
C75   C     C_R   0.261392 0.379329 0.871241 0.025450
C76   C     C_R   0.739603 0.382280 0.129613 0.024869
C77   C     C_R   0.529328 0.169578 0.371409 -0.039569
C78   C     C_R   0.470507 0.169384 0.628517 -0.039572
C79   C     C_R   0.029327 0.669577 0.371409 -0.039665
C80   C     C_R   0.970505 0.669384 0.628517 -0.040239
C81   C     C_R   0.543967 0.257107 0.399748 -0.092303
C82   C     C_R   0.456258 0.257080 0.600436 -0.092125
C83   C     C_R   0.043963 0.757106 0.399748 -0.092410
C84   C     C_R   0.956247 0.757073 0.600434 -0.092325
C85   C     C_R   0.532691 0.259587 0.450258 0.435095
C86   C     C_R   0.467447 0.259619 0.549922 0.435148
C87   C     C_R   0.032686 0.759586 0.450258 0.435021
C88   C     C_R   0.967435 0.759609 0.549919 0.435129
C89   C     C_R   0.731578 0.000606 0.179648 0.536597
C90   C     C_R   0.268858 0.002305 0.820771 0.537307
C91   C     C_R   0.231157 0.501904 0.179297 0.537566
C92   C     C_R   0.769041 0.502923 0.820991 0.528084
C93   C     C_R   0.504746 0.175523 0.473050 0.063974
C94   C     C_R   0.494923 0.175438 0.526852 0.063828
C95   C     C_R   0.004743 0.675519 0.473050 0.063937
C96   C     C_R   0.994918 0.675433 0.526851 0.063887
C97   C     C_R   0.487471 0.089981 0.444350 -0.187751
C98   C     C_R   0.511774 0.089666 0.555276 -0.187968
C99   C     C_R   0.987471 0.589974 0.444350 -0.187786
C100  C     C_R   0.011777 0.589668 0.555278 -0.188057
C101  C     C_R   0.500080 0.086656 0.393898 -0.150089
C102  C     C_R   0.499251 0.086294 0.605741 -0.150040
C103  C     C_R   0.000081 0.586652 0.393897 -0.150102
C104  C     C_R   0.999255 0.586297 0.605742 -0.150745
C105  C     C_R   0.739653 0.956881 0.371849 0.023443
C106  C     C_R   0.260672 0.957679 0.627833 0.023688
C107  C     C_R   0.239606 0.457065 0.371900 0.023288
C108  C     C_R   0.760720 0.457825 0.627792 0.023604
C109  C     C_R   0.688782 0.926239 0.397884 -0.124395
C110  C     C_R   0.311805 0.928841 0.601715 -0.124401
C111  C     C_R   0.188713 0.426504 0.397927 -0.124472
C112  C     C_R   0.811880 0.429156 0.601669 -0.124088
C113  C     C_R   0.691874 0.911630 0.448481 -0.122227
C114  C     C_R   0.309008 0.915459 0.551022 -0.122350
C115  C     C_R   0.191758 0.412060 0.448538 -0.122264
C116  C     C_R   0.809107 0.415875 0.550970 -0.122261
C117  C     C_R   0.746290 0.923689 0.473643 0.032111
C118  C     C_R   0.254630 0.926722 0.525819 0.031991
C119  C     C_R   0.246148 0.424201 0.473729 0.032108
C120  C     C_R   0.754731 0.427077 0.525761 0.031942
C121  C     C_R   0.798299 0.945183 0.446984 -0.093854
C122  C     C_R   0.202399 0.946460 0.552473 -0.092882
C123  C     C_R   0.298180 0.445660 0.447088 -0.093731
C124  C     C_R   0.702482 0.446691 0.552411 -0.092747
C125  C     C_R   0.794902 0.962716 0.396275 -0.094786
C126  C     C_R   0.205502 0.962934 0.603307 -0.092621
C127  C     C_R   0.294830 0.463023 0.396364 -0.094569
C128  C     C_R   0.705557 0.463057 0.603254 -0.092275
C129  C     C_R   0.785862 0.979002 0.555938 -0.116311
C130  C     C_R   0.214774 0.981192 0.443703 -0.117178
C131  C     C_R   0.285703 0.479415 0.556044 -0.116543
C132  C     C_R   0.714853 0.481448 0.443639 -0.117309
C133  C     C_R   0.721292 0.347298 0.321727 0.559687
C134  C     C_R   0.278787 0.346968 0.678167 0.560154
C135  C     C_R   0.221286 0.847279 0.321735 0.559679
C136  C     C_R   0.778797 0.846941 0.678155 0.570745
C137  C     C_R   0.791942 0.962985 0.606562 -0.173867
C138  C     C_R   0.208390 0.964399 0.393136 -0.174582
C139  C     C_R   0.291838 0.463236 0.606651 -0.174439
C140  C     C_R   0.708434 0.464552 0.393083 -0.174538
C141  C     C_R   0.717735 0.826555 0.601714 0.370091
C142  C     C_R   0.283436 0.829958 0.397639 0.370502
C143  C     C_R   0.217646 0.326813 0.601759 0.370694
C144  C     C_R   0.783516 0.330181 0.397604 0.370533
C145  C     C_R   0.712973 0.841094 0.551136 -0.080564
C146  C     C_R   0.288494 0.845208 0.448167 -0.080812
C147  C     C_R   0.212828 0.341513 0.551195 -0.080666
C148  C     C_R   0.788617 0.345546 0.448121 -0.080739
C149  C     C_R   0.748290 0.914954 0.527649 -0.020766
C150  C     C_R   0.252813 0.918255 0.471812 -0.020972
C151  C     C_R   0.248122 0.415436 0.527734 -0.020793
C152  C     C_R   0.752925 0.418592 0.471754 -0.021011
C153  C     C_R   0.759894 0.883688 0.629428 0.022725
C154  C     C_R   0.240592 0.885435 0.370187 0.023618
C155  C     C_R   0.259833 0.383852 0.629480 0.023704
C156  C     C_R   0.740629 0.385559 0.370153 0.023671
C157  C     C_R   0.554642 0.158956 0.321749 0.548587
C158  C     C_R   0.445301 0.158913 0.678219 0.549774
C159  C     C_R   0.054642 0.658955 0.321749 0.548702
C160  C     C_R   0.945301 0.658913 0.678220 0.550970
C161  C     C_R   0.731636 0.002055 0.322943 0.547098
C162  C     C_R   0.268385 0.002145 0.677000 0.547512
C163  C     C_R   0.231627 0.502088 0.322956 0.547680
C164  C     C_R   0.768394 0.502169 0.676990 0.549819
C165  C     C_R   0.510652 0.071200 0.103932 -0.132712
C166  C     C_R   0.477934 0.069343 0.899218 -0.129610
C167  C     C_R   0.017732 0.568914 0.102046 -0.130694
C168  C     C_R   0.985100 0.571285 0.897369 -0.132601
C169  C     C_R   0.500018 0.070971 0.053162 0.012449
C170  C     C_R   0.486122 0.069826 0.950210 0.011567
C171  C     C_R   0.007880 0.569379 0.051245 0.012072
C172  C     C_R   0.993998 0.570786 0.948322 0.011518
C173  C     C_R   0.486299 0.976961 0.976502 -0.139075
C174  C     C_R   0.492712 0.977584 0.027772 -0.136614
C175  C     C_R   0.000458 0.477273 0.973498 -0.140331
C176  C     C_R   0.006863 0.476521 0.024757 -0.140119
Cr1   Cr    Cr6+3 0.756570 0.170940 0.251190 1.073389
Cr2   Cr    Cr6+3 0.243430 0.170940 0.748810 1.073235
Cr3   Cr    Cr6+3 0.256570 0.670940 0.251190 1.073389
Cr4   Cr    Cr6+3 0.743430 0.670940 0.748810 1.074096
Cr5   Cr    Cr6+3 0.623740 0.299110 0.249580 1.018975
Cr6   Cr    Cr6+3 0.376260 0.299110 0.750420 1.020807
Cr7   Cr    Cr6+3 0.123740 0.799110 0.249580 1.019260
Cr8   Cr    Cr6+3 0.876260 0.799110 0.750420 1.014217
Cr9   Cr    Cr6+3 0.625990 0.036240 0.250480 1.017382
Cr10  Cr    Cr6+3 0.374010 0.036240 0.749520 1.016912
Cr11  Cr    Cr6+3 0.125990 0.536240 0.250480 1.015842
Cr12  Cr    Cr6+3 0.874010 0.536240 0.749520 1.011872
H1    H     H_    0.472160 0.995869 0.880605 0.129469
H2    H     H_    0.512801 0.998198 0.123278 0.129333
H3    H     H_    0.983557 0.498331 0.877770 0.129262
H4    H     H_    0.023997 0.495499 0.120399 0.128696
H5    H     H_    0.858430 0.931673 0.889207 0.127304
H6    H     H_    0.178243 0.009012 0.125993 0.124642
H7    H     H_    0.322763 0.508302 0.874717 0.124538
H8    H     H_    0.677975 0.510513 0.127135 0.125195
H9    H     H_    0.668139 0.852099 0.032855 0.104270
H10   H     H_    0.348540 0.889303 0.967890 0.104859
H11   H     H_    0.151533 0.388827 0.031939 0.105092
H12   H     H_    0.851029 0.400971 0.969155 0.107706
H13   H     H_    0.650276 0.917035 0.115886 0.128634
H14   H     H_    0.354552 0.919294 0.879691 0.128927
H15   H     H_    0.145284 0.419127 0.120145 0.129464
H16   H     H_    0.856177 0.427294 0.880648 0.133279
H17   H     H_    0.567987 0.321072 0.383638 0.157649
H18   H     H_    0.432626 0.321208 0.616755 0.157943
H19   H     H_    0.067980 0.821074 0.383638 0.157600
H20   H     H_    0.932609 0.821196 0.616751 0.157754
H21   H     H_    0.533446 0.024381 0.538149 0.125019
H22   H     H_    0.465425 0.024807 0.461257 0.124733
H23   H     H_    0.033454 0.524387 0.538152 0.124883
H24   H     H_    0.965428 0.524798 0.461257 0.124715
H25   H     H_    0.510125 0.017530 0.626532 0.152923
H26   H     H_    0.488888 0.018032 0.372888 0.152412
H27   H     H_    0.010136 0.517539 0.626535 0.152310
H28   H     H_    0.988891 0.518027 0.372888 0.152472
H29   H     H_    0.645401 0.921734 0.380058 0.142199
H30   H     H_    0.355151 0.924912 0.619606 0.142753
H31   H     H_    0.145351 0.421917 0.380072 0.142216
H32   H     H_    0.855223 0.425270 0.619566 0.142983
H33   H     H_    0.811927 0.039147 0.538728 0.138894
H34   H     H_    0.188463 0.040806 0.461038 0.138485
H35   H     H_    0.311749 0.539607 0.538861 0.138628
H36   H     H_    0.688536 0.541059 0.460965 0.138396
H37   H     H_    0.824062 0.008759 0.627241 0.147011
H38   H     H_    0.175837 0.009090 0.372621 0.145936
H39   H     H_    0.323971 0.508947 0.627340 0.145866
H40   H     H_    0.675853 0.509177 0.372567 0.146019
H41   H     H_    0.481049 0.903923 0.957438 0.098518
H42   H     H_    0.493074 0.904966 0.047466 0.101274
H43   H     H_    0.999959 0.404709 0.953593 0.100925
H44   H     H_    0.011977 0.403445 0.043608 0.098848
H45   H     H_    0.650974 0.896092 0.468093 0.108153
H46   H     H_    0.350069 0.901332 0.531419 0.107751
H47   H     H_    0.150844 0.396546 0.468135 0.108052
H48   H     H_    0.850179 0.401844 0.531368 0.107751
H49   H     H_    0.683726 0.790547 0.530135 0.132284
H50   H     H_    0.318157 0.795581 0.469018 0.132437
H51   H     H_    0.183574 0.291013 0.530181 0.132272
H52   H     H_    0.818311 0.295988 0.468978 0.132550
H53   H     H_    0.841159 0.951446 0.465516 0.167396
H54   H     H_    0.159571 0.952050 0.533879 0.167942
H55   H     H_    0.341027 0.451987 0.465639 0.167280
H56   H     H_    0.659656 0.452240 0.533808 0.167930
H57   H     H_    0.834689 0.985744 0.376736 0.158152
H58   H     H_    0.165541 0.984659 0.622908 0.158630
H59   H     H_    0.334635 0.486006 0.376836 0.158413
H60   H     H_    0.665577 0.484669 0.622857 0.158876
H61   H     H_    0.474406 0.328301 0.877769 0.123231
H62   H     H_    0.531079 0.329123 0.122473 0.126113
H63   H     H_    0.965486 0.829180 0.879253 0.119239
H64   H     H_    0.022408 0.827890 0.123954 0.122468
H65   H     H_    0.495812 0.424200 0.955106 0.101844
H66   H     H_    0.513265 0.424755 0.044982 0.101768
H67   H     H_    0.980567 0.924391 0.957512 0.099067
H68   H     H_    0.998211 0.923698 0.047372 0.101298
H69   H     H_    0.839586 0.957326 0.138824 0.123320
H70   H     H_    0.166581 0.991599 0.874646 0.124090
H71   H     H_    0.333698 0.489424 0.125945 0.123605
H72   H     H_    0.667274 0.491973 0.875557 0.124183
H73   H     H_    0.705030 0.728100 0.976848 0.098503
H74   H     H_    0.312212 0.781705 0.030070 0.099181
H75   H     H_    0.187486 0.281156 0.969567 0.099292
H76   H     H_    0.815797 0.290928 0.030966 0.102899
H77   H     H_    0.715727 0.707690 0.887278 0.133721
H78   H     H_    0.301674 0.754505 0.118286 0.133094
H79   H     H_    0.197799 0.254881 0.881253 0.133275
H80   H     H_    0.804027 0.260009 0.118803 0.133423
H81   H     H_    0.857927 0.887110 0.056448 0.111663
H82   H     H_    0.159881 0.955777 0.963109 0.106931
H83   H     H_    0.340620 0.453198 0.037453 0.106942
H84   H     H_    0.661538 0.459969 0.964442 0.105991
H85   H     H_    0.846093 0.955407 0.977272 0.100617
H86   H     H_    0.191123 0.039579 0.037622 0.100913
H87   H     H_    0.310038 0.538070 0.963232 0.100563
H88   H     H_    0.691959 0.544706 0.039192 0.097646
O1    O     O_R   0.769900 0.064540 0.196060 -0.524327
O2    O     O_R   0.230100 0.064540 0.803940 -0.525289
O3    O     O_R   0.269900 0.564540 0.196060 -0.525157
O4    O     O_R   0.730100 0.564540 0.803940 -0.534240
O5    O     O_R   0.574760 0.239320 0.300850 -0.504115
O6    O     O_R   0.425240 0.239320 0.699150 -0.504147
O7    O     O_R   0.074760 0.739320 0.300850 -0.504289
O8    O     O_R   0.925240 0.739320 0.699150 -0.502950
O9    O     O_R   0.566290 0.069580 0.305400 -0.514205
O10   O     O_R   0.433710 0.069580 0.694600 -0.513361
O11   O     O_R   0.066290 0.569580 0.305400 -0.513920
O12   O     O_R   0.933710 0.569580 0.694600 -0.512176
O13   O     O_R   0.680760 0.993330 0.302620 -0.514138
O14   O     O_R   0.319240 0.993330 0.697380 -0.514109
O15   O     O_R   0.180760 0.493330 0.302620 -0.513960
O16   O     O_R   0.819240 0.493330 0.697380 -0.511255
O17   O     O_3   0.668770 0.168760 0.250420 -0.250934
O18   O     O_3   0.331230 0.168760 0.749580 -0.251822
O19   O     O_3   0.168770 0.668760 0.250420 -0.251086
O20   O     O_3   0.831230 0.668760 0.749580 -0.272600
O21   O     O_R   0.750800 0.274080 0.199250 -0.508484
O22   O     O_R   0.249200 0.274080 0.800750 -0.509400
O23   O     O_R   0.250800 0.774080 0.199250 -0.509406
O24   O     O_R   0.749200 0.774080 0.800750 -0.501080
O25   O     O_R   0.669990 0.371670 0.194150 -0.521722
O26   O     O_R   0.330010 0.371670 0.805850 -0.520885
O27   O     O_R   0.169990 0.871670 0.194150 -0.520512
O28   O     O_R   0.830010 0.871670 0.805850 -0.520110
O29   O     O_R   0.574600 0.238480 0.197800 -0.500341
O30   O     O_R   0.425400 0.238480 0.802200 -0.499346
O31   O     O_R   0.074600 0.738480 0.197800 -0.499107
O32   O     O_R   0.925400 0.738480 0.802200 -0.518308
O33   O     O_R   0.566130 0.068680 0.194240 -0.522989
O34   O     O_R   0.433870 0.068680 0.805760 -0.523932
O35   O     O_R   0.066130 0.568680 0.194240 -0.524911
O36   O     O_R   0.933870 0.568680 0.805760 -0.523018
O37   O     O_R   0.680610 0.992490 0.199570 -0.505243
O38   O     O_R   0.319390 0.992490 0.800430 -0.508149
O39   O     O_R   0.180610 0.492490 0.199570 -0.507961
O40   O     O_R   0.819390 0.492490 0.800430 -0.508074
O41   O     O_R   0.770060 0.065440 0.307230 -0.472778
O42   O     O_R   0.229940 0.065440 0.692770 -0.470815
O43   O     O_R   0.270060 0.565440 0.307230 -0.472121
O44   O     O_R   0.729940 0.565440 0.692770 -0.469661
O45   O     O_R   0.750960 0.274920 0.302300 -0.423984
O46   O     O_R   0.249040 0.274920 0.697700 -0.424301
O47   O     O_R   0.250960 0.774920 0.302300 -0.423933
O48   O     O_R   0.749040 0.774920 0.697700 -0.418947
O49   O     O_R   0.670160 0.372580 0.305320 -0.537971
O50   O     O_R   0.329840 0.372580 0.694680 -0.537968
O51   O     O_R   0.170160 0.872580 0.305320 -0.538035
O52   O     O_R   0.829840 0.872580 0.694680 -0.532697
F1    F     F_    0.552655 0.341181 0.477281 -0.606525
F2    F     F_    0.447873 0.341440 0.523163 -0.606272
F3    F     F_    0.052644 0.841182 0.477281 -0.606637
F4    F     F_    0.947855 0.841423 0.523159 -0.606433
F5    F     F_    0.684667 0.750352 0.622264 -0.621443
F6    F     F_    0.316851 0.754472 0.376933 -0.622063
F7    F     F_    0.184616 0.250535 0.622279 -0.621795
F8    F     F_    0.816928 0.254676 0.376912 -0.622019

loop_
_geom_bond_atom_site_label_1
_geom_bond_atom_site_label_2
_ccdc_geom_bond_type
C99   C103  A    
C7    C168  A    
C92   O40   A    
C55   C59   A    
C126  H58   S    
C142  C146  A    
C131  C151  A    
C19   C20   A    
C45   O29   A    
C53   C69   A    
C38   C70   S    
C114  H46   S    
C108  C164  S    
C16   C20   A    
C37   C69   S    
C26   C50   A    
C95   C99   A    
C176  H44   S    
C29   C33   A    
C100  C104  A    
C138  H38   S    
C3    C74   S    
C9    C13   A    
C163  O43   A    
C21   H66   S    
C146  C150  A    
C11   C15   A    
Cr7   O51   S    
C12   C16   A    
C56   C72   A    
C169  C174  A    
Cr2   O2    S    
C124  H56   S    
C172  C175  A    
C141  C145  A    
C138  C154  A    
C6    C165  A    
C148  H52   S    
C21   C22   A    
C135  O51   A    
C41   C49   A    
Cr12  O16   S    
C18   C170  A    
C25   C29   A    
C27   C31   A    
C28   C32   A    
Cr9   O13   S    
Cr10  O10   S    
C62   C66   A    
C167  C171  A    
C98   C102  A    
C60   C76   A    
C29   H69   S    
Cr6   O30   S    
Cr8   O52   S    
C128  H60   S    
C15   C19   A    
C78   C82   A    
C102  H25   S    
C134  C155  S    
C54   C70   A    
C36   C40   A    
C68   C72   A    
C165  H2    S    
C137  C153  A    
C2    O26   A    
C3    O23   A    
Cr8   O28   S    
C20   C172  A    
C132  C152  A    
C62   H6    S    
C130  C138  A    
C160  O8    A    
C84   C88   A    
C144  F8    S    
Cr6   O6    S    
C119  C123  A    
C26   C90   S    
C5    C46   S    
C105  C125  A    
C7    C48   S    
Cr6   O26   S    
C142  F6    S    
C8    C47   S    
C107  C127  A    
C88   F4    S    
C136  C153  S    
C66   C70   A    
C31   C35   A    
Cr3   O23   S    
C61   C65   A    
C158  O6    A    
C129  C137  A    
C39   C71   S    
C34   H82   S    
C47   O31   A    
C4    O24   A    
C89   O37   A    
C103  H28   S    
C55   C71   A    
C2    C75   S    
C92   O4    A    
Cr10  O38   S    
C86   F2    S    
C161  O13   A    
C134  O46   A    
Cr4   O4    S    
C46   O34   A    
C6    C9    A    
C123  H55   S    
C121  C125  A    
C12   H63   S    
C32   C36   A    
C139  H39   S    
C53   H73   S    
C48   O36   A    
Cr8   O32   S    
C81   H17   S    
C57   C73   A    
C137  H37   S    
C123  C127  A    
C78   C158  S    
C146  H50   S    
C42   H10   S    
C87   C95   A    
C130  C150  A    
C23   C24   A    
C27   C91   S    
C110  C114  A    
C44   C52   A    
C164  O44   A    
C79   C103  A    
C111  H31   S    
C27   C51   A    
C112  H32   S    
C7    C12   A    
C98   H21   S    
C49   H13   S    
C140  H40   S    
C30   C34   A    
C65   H85   S    
C32   H72   S    
C130  H34   S    
C41   H9    S    
C10   C14   A    
C164  O16   A    
C133  O49   A    
C143  F7    S    
C116  C120  A    
C144  C156  A    
C147  C151  A    
C129  C149  A    
C84   H20   S    
C143  C155  A    
C139  C155  A    
C89   O1    A    
C17   C18   A    
C36   H84   S    
C5    C166  A    
C142  C154  A    
C91   O3    A    
C174  H42   S    
C4    C73   S    
Cr12  O20   S    
C42   C50   A    
C113  C117  A    
C87   F3    S    
C107  C163  S    
C26   C30   A    
C115  C119  A    
C105  C161  S    
Cr9   O17   S    
Cr10  O14   S    
C61   H5    S    
C112  C116  A    
Cr11  O19   S    
C58   C74   A    
Cr4   O44   S    
C105  C109  A    
C40   C72   S    
C30   H70   S    
C1    C76   S    
Cr7   O31   S    
C148  C152  A    
C23   H68   S    
C117  C149  S    
C44   H12   S    
C147  H51   S    
C171  C176  A    
C100  H23   S    
C11   H64   S    
C13   C17   A    
C166  H1    S    
C14   C22   A    
C9    H62   S    
Cr3   O47   S    
C141  C153  A    
C63   C75   A    
C64   H8    S    
C37   C41   A    
C163  O15   A    
C131  C139  A    
C40   C44   A    
C131  H35   S    
C81   C85   A    
C83   C87   A    
C88   C96   A    
Cr1   O17   S    
C6    C45   S    
C93   C97   A    
C78   C102  A    
C133  C156  S    
C125  H57   S    
Cr2   O22   S    
Cr7   O19   S    
C80   C84   A    
C115  H47   S    
C113  H45   S    
C135  C154  S    
C80   C104  A    
C1    O21   A    
C60   H80   S    
C79   C159  S    
C80   C160  S    
C94   C98   A    
C135  O47   A    
C47   O35   A    
C4    O28   A    
C118  C150  S    
C22   H65   S    
C90   O38   A    
Cr1   O21   S    
Cr12  O12   S    
C159  O7    A    
Cr11  O39   S    
C82   H18   S    
C46   O30   A    
C124  C128  A    
C50   H14   S    
Cr4   O20   S    
C165  C169  A    
C107  C111  A    
Cr6   O18   S    
C51   H15   S    
C162  O42   A    
C53   C57   A    
C157  O9    A    
C61   C73   A    
C82   C86   A    
C33   C37   A    
C56   C60   A    
C52   H16   S    
Cr12  O36   S    
C35   C39   A    
C8    C167  A    
Cr4   O48   S    
C77   C81   A    
C101  H26   S    
C116  H48   S    
Cr9   O33   S    
Cr11  O35   S    
C63   H7    S    
C136  O52   A    
Cr1   O41   S    
C64   C68   A    
Cr3   O43   S    
C133  O45   A    
C121  H53   S    
Cr5   O17   S    
C132  H36   S    
C104  H27   S    
Cr8   O8    S    
C162  O14   A    
C132  C140  A    
C106  C126  A    
C25   C89   S    
C90   O2    A    
C45   O33   A    
Cr4   O24   S    
Cr12  O40   S    
C79   C83   A    
C43   C51   A    
C65   C69   A    
C77   C101  A    
C67   C71   A    
C106  C162  S    
C67   H87   S    
Cr10  O18   S    
C25   C49   A    
Cr11  O15   S    
C108  C112  A    
C168  C172  A    
Cr3   O19   S    
Cr7   O7    S    
C134  O50   A    
C62   C74   A    
C31   H71   S    
C145  C149  A    
C170  C173  A    
C93   C94   S    
Cr2   O46   S    
C14   C18   A    
C95   C96   S    
C85   F1    S    
C144  C148  A    
Cr8   O20   S    
C122  H54   S    
C173  C174  A    
C143  C147  A    
C167  H4    S    
C168  H3    S    
C55   H75   S    
C161  O41   A    
C56   H76   S    
C19   C171  A    
C38   C42   A    
C118  C122  A    
C17   C169  A    
C96   C100  A    
Cr9   O9    S    
C117  C121  A    
C86   C94   A    
Cr11  O11   S    
C175  C176  A    
C145  H49   S    
Cr2   O18   S    
C83   H19   S    
C59   H79   S    
Cr1   O1    S    
Cr5   O49   S    
C15   C23   A    
Cr3   O3    S    
C16   C24   A    
C1    O25   A    
Cr1   O45   S    
C2    O22   A    
C110  H30   S    
C3    O27   A    
C99   H24   S    
C119  C151  S    
C63   C67   A    
C120  C152  S    
C175  H43   S    
C97   H22   S    
C13   C21   A    
C54   H74   S    
C48   O32   A    
C109  H29   S    
C129  H33   S    
C91   O39   A    
C39   C43   A    
C159  O11   A    
Cr5   O29   S    
C160  O12   A    
C122  C126  A    
C24   H67   S    
Cr5   O5    S    
C85   C93   A    
C68   H88   S    
C58   H78   S    
C64   C76   A    
Cr5   O25   S    
C28   C92   S    
Cr7   O27   S    
C114  C118  A    
C173  H41   S    
C140  C156  A    
C59   C75   A    
C157  O5    A    
C54   C58   A    
C158  O10   A    
C33   H81   S    
C34   C38   A    
C35   H83   S    
C43   H11   S    
C109  C113  A    
Cr9   O37   S    
Cr6   O50   S    
Cr10  O34   S    
C10   H61   S    
C5    C10   A    
C28   C52   A    
C8    C11   A    
C166  C170  A    
C136  O48   A    
C141  F5    S    
Cr2   O42   S    
C66   H86   S    
C57   H77   S    
C127  H59   S    
C106  C110  A    
C111  C115  A    
C108  C128  A    
C97   C101  A    
C120  C124  A    
C77   C157  S    
