data_mof_unit_pretest_1557.cif
_audit_creation_date              2012-12-10T17:20:31-0500
_audit_creation_method            fapswitch 2.2
_symmetry_space_group_name_H-M    P1
_symmetry_Int_Tables_number       1
_space_group_crystal_system       triclinic
_cell_length_a                    18.755711
_cell_length_b                    18.623564
_cell_length_c                    19.097757
_cell_angle_alpha                 109.566078
_cell_angle_beta                  110.626654
_cell_angle_gamma                 108.806933
_cell_volume                      5096.74535167

loop_
_atom_site_label
_atom_site_type_symbol
_atom_type_description
_atom_site_fract_x
_atom_site_fract_y
_atom_site_fract_z
_atom_type_partial_charge
C1    C     C_R   0.618510 0.619166 0.500561 0.890493
C2    C     C_3   0.188006 0.419161 0.195826 0.153915
C3    C     C_3   0.220363 0.469731 0.293347 -0.241152
C4    C     C_3   0.315254 0.502159 0.312684 -0.183332
C5    C     C_R   0.775231 0.728020 0.567297 0.075151
C6    C     C_R   0.837972 0.791964 0.565052 -0.245311
C7    C     C_R   0.812724 0.814231 0.500370 -0.308995
C8    C     C_R   0.723394 0.772316 0.437157 0.556953
C9    C     C_R   0.660649 0.708946 0.438526 0.547681
C10   C     C_R   0.686089 0.687005 0.502896 -0.290089
C11   C     C_R   0.682987 0.504231 0.759758 0.547470
C12   C     C_R   0.381885 0.501331 0.380751 0.889815
C13   C     C_R   0.746587 0.501391 0.822151 0.497841
C14   C     C_R   0.815553 0.494880 0.812640 -0.277581
C15   C     C_R   0.818824 0.487715 0.737732 0.090789
C16   C     C_R   0.753307 0.488980 0.674878 -0.294659
C17   C     C_R   0.686415 0.498196 0.686126 -0.271264
C18   C     C_R   0.236048 0.312563 0.487548 0.010134
C19   C     C_R   0.177589 0.251152 0.494668 0.568342
C20   C     C_R   0.188434 0.181986 0.499178 -0.245489
C21   C     C_R   0.263276 0.175725 0.503729 0.044492
C22   C     C_R   0.327002 0.241154 0.502510 0.113232
C23   C     C_R   0.380149 0.380269 0.498161 0.813970
C24   C     C_R   0.313372 0.310407 0.495895 -0.184776
C25   C     C_R   0.001379 0.619900 0.119286 0.806541
C26   C     C_R   0.123658 0.499894 0.122688 0.831823
C27   C     C_R   0.003811 0.380443 0.885895 0.756765
C28   C     C_R   0.883834 0.497767 0.882236 0.839193
C29   C     C_R   0.002751 0.882983 0.382179 0.777493
C30   C     C_R   0.880444 0.880884 0.499772 0.863338
C31   C     C_R   0.996566 0.116871 0.617478 0.812018
C32   C     C_R   0.119498 0.117017 0.499039 0.864198
C33   C     C_R   0.010180 0.768488 0.181202 0.152504
C34   C     C_R   0.619432 0.499452 0.619550 0.849560
C35   C     C_R   0.016599 0.836285 0.250472 0.126958
C36   C     C_R   0.007208 0.820831 0.315505 -0.068768
C37   C     C_R   0.996992 0.743199 0.315031 -0.200027
C38   C     C_R   0.994134 0.678711 0.249919 -0.206509
C39   C     C_R   0.000788 0.690029 0.183340 -0.056700
C40   C     C_R   0.075072 0.304534 0.830882 0.100189
C41   C     C_R   0.070937 0.241127 0.763144 -0.200654
C42   C     C_R   0.992796 0.181879 0.683299 -0.119200
C43   C     C_R   0.914270 0.185118 0.668752 0.118124
C44   C     C_R   0.917307 0.250196 0.737052 0.102087
C45   C     C_3   0.320157 0.583549 0.307360 0.665986
C46   C     C_R   0.998895 0.311050 0.816875 -0.097447
C47   C     C_3   0.224893 0.552191 0.287668 -0.337705
C48   C     C_3   0.192413 0.500694 0.190395 -0.226623
C49   C     C_3   0.287272 0.532906 0.210485 0.600300
C50   C     C_3   0.283326 0.450782 0.215341 -0.298826
Cu1   Cu    Cu3+1 0.500500 0.438200 0.438680 0.962459
Cu2   Cu    Cu3+1 0.499500 0.561800 0.561320 1.029631
Cu3   Cu    Cu3+1 0.942090 0.438180 0.003770 0.979264
Cu4   Cu    Cu3+1 0.065710 0.561750 0.003750 0.987411
Cu5   Cu    Cu3+1 0.062280 0.999890 0.562170 0.942828
Cu6   Cu    Cu3+1 0.937720 0.999930 0.437650 1.031171
H1    H     H_    0.200552 0.593962 0.316289 0.176485
H2    H     H_    0.754846 0.483374 0.617107 0.185472
H3    H     H_    0.990016 0.731970 0.364994 0.157671
H4    H     H_    0.987343 0.619525 0.251985 0.162038
H5    H     H_    0.130273 0.238153 0.773027 0.173665
H6    H     H_    0.308669 0.410214 0.186817 0.182937
H7    H     H_    0.194755 0.444389 0.329004 0.167252
H8    H     H_    0.906821 0.824921 0.613437 0.206872
O1    O     O_R   0.590610 0.537990 0.448230 -0.576314
O2    O     O_R   0.055400 0.642330 0.093210 -0.596854
O3    O     O_R   0.042570 0.447790 0.094640 -0.601838
O4    O     O_R   0.146970 0.552140 0.094620 -0.536838
O5    O     O_R   0.952400 0.357600 0.914310 -0.593049
O6    O     O_R   0.056800 0.461950 0.914290 -0.590451
O7    O     O_R   0.860830 0.447790 0.912900 -0.535504
O8    O     O_R   0.965230 0.552140 0.912880 -0.593304
O9    O     O_R   0.053290 0.909730 0.462990 -0.597930
O10   O     O_R   0.948100 0.909770 0.357840 -0.574421
O11   O     O_R   0.962410 0.909720 0.552480 -0.605373
O12   O     O_R   0.589770 0.642360 0.551790 -0.581559
O13   O     O_R   0.857220 0.909750 0.447330 -0.517741
O14   O     O_R   0.051900 0.090060 0.641980 -0.595143
O15   O     O_R   0.946710 0.090090 0.536830 -0.575259
O16   O     O_R   0.142780 0.090070 0.552500 -0.596866
O17   O     O_R   0.037590 0.090110 0.447350 -0.540195
O18   O     O_R   0.409550 0.447810 0.357350 -0.586329
O19   O     O_R   0.408710 0.552190 0.460910 -0.574022
O20   O     O_R   0.410230 0.357640 0.448210 -0.596100
O21   O     O_R   0.409390 0.462010 0.551770 -0.579050
O22   O     O_R   0.591290 0.447810 0.539090 -0.609625
O23   O     O_R   0.590450 0.552190 0.642650 -0.535600
O24   O     O_R   0.951000 0.537980 0.093230 -0.567341
F1    F     F_    0.574511 0.668478 0.376720 -0.578746
F2    F     F_    0.616923 0.510717 0.770226 -0.611690
F3    F     F_    0.741857 0.506878 0.892975 -0.621688
C51   C     C_3   0.888175 0.475336 0.720497 -0.355793
C52   C     C_3   0.954988 0.559847 0.734508 -0.772013
H9    H     H_    0.922344 0.578387 0.688265 0.240767
H10   H     H_    0.987232 0.614387 0.801898 0.260764
H11   H     H_    0.006183 0.549685 0.723608 0.239384
H12   H     H_    0.923451 0.454202 0.761963 0.196822
H13   H     H_    0.855994 0.421853 0.652505 0.190086
C53   C     C_3   0.211334 0.377235 0.468827 -0.322591
C54   C     C_3   0.126798 0.329905 0.380738 -0.810861
H14   H     H_    0.137727 0.298577 0.327876 0.228782
H15   H     H_    0.071041 0.278602 0.375170 0.303999
H16   H     H_    0.107239 0.377962 0.372089 0.229561
H17   H     H_    0.201921 0.414383 0.520735 0.239588
H18   H     H_    0.262285 0.426377 0.467467 0.193920
F4    F     F_    0.109451 0.259602 0.498709 -0.668304
C55   C     C_3   0.274066 0.099252 0.508804 -0.363397
C56   C     C_3   0.326147 0.121531 0.602785 -0.730426
H19   H     H_    0.299665 0.148230 0.642027 0.270072
H20   H     H_    0.322902 0.061160 0.603375 0.229644
H21   H     H_    0.396208 0.171185 0.635004 0.230973
H22   H     H_    0.209277 0.038889 0.473600 0.190887
H23   H     H_    0.306558 0.078602 0.474271 0.197229
C57   C     C_3   0.409666 0.237925 0.509262 -0.328739
C58   C     C_3   0.395490 0.183413 0.420035 -0.787926
H24   H     H_    0.351171 0.112374 0.391377 0.224537
H25   H     H_    0.365936 0.202941 0.373540 0.267846
H26   H     H_    0.459641 0.192771 0.426956 0.238347
H27   H     H_    0.466743 0.304990 0.543794 0.205936
H28   H     H_    0.432367 0.211062 0.550555 0.197108
C59   C     C_3   0.009211 0.777628 0.104113 -0.447423
C60   C     C_3   0.918452 0.715185 0.021882 -0.719177
H29   H     H_    0.898024 0.646013 0.004416 0.268286
H30   H     H_    0.868846 0.730210 0.031572 0.264806
H31   H     H_    0.919970 0.722733 0.967069 0.223944
H32   H     H_    0.026898 0.844233 0.114373 0.205389
H33   H     H_    0.060013 0.767442 0.092984 0.226892
F5    F     F_    0.390177 0.668269 0.365710 -0.593092
C61   C     C_3   0.039599 0.926770 0.259545 -0.419184
C62   C     C_3   0.959470 0.928801 0.203052 -0.733611
H34   H     H_    0.905876 0.904921 0.215948 0.274763
H35   H     H_    0.978665 0.997443 0.217869 0.230040
H36   H     H_    0.933359 0.887639 0.133069 0.238377
H37   H     H_    0.069448 0.977859 0.327777 0.180785
H38   H     H_    0.092578 0.949572 0.245532 0.181729
C63   C     C_3   0.161732 0.362135 0.917453 -0.355027
C64   C     C_3   0.185215 0.307859 0.956634 -0.828686
H39   H     H_    0.129710 0.267751 0.960295 0.247293
H40   H     H_    0.200844 0.263509 0.917127 0.252441
H41   H     H_    0.243865 0.352492 0.023112 0.262487
H42   H     H_    0.214940 0.396070 0.907630 0.225543
H43   H     H_    0.161025 0.414107 0.966494 0.229887
C65   C     C_3   0.828022 0.119417 0.581877 -0.372462
C66   C     C_3   0.816393 0.154008 0.518614 -0.744368
H44   H     H_    0.807507 0.211757 0.541758 0.218596
H45   H     H_    0.874204 0.174457 0.510814 0.277866
H46   H     H_    0.757251 0.101669 0.454175 0.244626
H47   H     H_    0.823168 0.054367 0.552446 0.215176
H48   H     H_    0.770063 0.103130 0.589305 0.205014
C67   C     C_3   0.834298 0.255475 0.725022 -0.397663
C68   C     C_3   0.780519 0.194944 0.747037 -0.756315
H49   H     H_    0.819180 0.212764 0.815354 0.268096
H50   H     H_    0.721203 0.200917 0.737360 0.238747
H51   H     H_    0.759002 0.125199 0.705321 0.231509
H52   H     H_    0.850188 0.323436 0.765197 0.187305
H53   H     H_    0.792087 0.239585 0.658333 0.198540
F6    F     F_    0.321210 0.566260 0.167669 -0.600361
C69   C     C_3   0.110509 0.325430 0.131975 -0.339581
C70   C     C_3   0.135396 0.257671 0.141988 -0.842583
H54   H     H_    0.184683 0.257448 0.122643 0.252796
H55   H     H_    0.163176 0.272616 0.210184 0.252057
H56   H     H_    0.076072 0.191176 0.099506 0.242995
H57   H     H_    0.055293 0.319165 0.143471 0.213951
H58   H     H_    0.088233 0.312393 0.064727 0.196789
C71   C     C_3   0.800239 0.701042 0.635565 -0.340186
C72   C     C_3   0.898411 0.747027 0.701613 -0.852751
H59   H     H_    0.934568 0.733240 0.668421 0.252771
H60   H     H_    0.925571 0.819055 0.739898 0.254300
H61   H     H_    0.907983 0.721682 0.747229 0.246390
H62   H     H_    0.766582 0.713747 0.672031 0.208915
H63   H     H_    0.775584 0.629111 0.601934 0.187153
F7    F     F_    0.696425 0.791485 0.373303 -0.588563

loop_
_geom_bond_atom_site_label_1
_geom_bond_atom_site_label_2
_ccdc_geom_bond_type
C71   H63   S    
C72   H60   S    
Cu5   Cu6   S    
C52   H9    S    
Cu5   O16   S    
C31   C42   S    
C41   C42   A    
C43   C65   S    
C35   C36   A    
C41   H5    S    
Cu3   O5    S    
C57   C58   S    
C51   H13   S    
Cu6   O17   S    
C71   C72   S    
Cu3   Cu4   S    
C40   C46   A    
C32   O17   A    
C40   C63   S    
C29   C36   S    
C33   C39   A    
Cu6   O15   S    
C18   C24   A    
C26   O3    A    
C36   C37   A    
C59   H33   S    
Cu1   O1    S    
C5    C6    A    
C29   O9    A    
C45   F5    S    
C65   C66   S    
C56   H19   S    
C18   C19   A    
C34   O22   A    
C68   H51   S    
C6    H8    S    
C55   H23   S    
C63   H43   S    
C2    C50   S    
C15   C51   S    
C61   H38   S    
C30   O13   A    
C11   C17   A    
C47   C48   S    
C16   C17   A    
C58   H25   S    
C1    O1    A    
C55   C56   S    
C70   H55   S    
C5    C71   S    
C4    C12   S    
C9    C10   A    
C35   C61   S    
C57   H27   S    
C27   O5    A    
C26   C48   S    
Cu5   O11   S    
C68   H50   S    
C53   H17   S    
C52   H10   S    
C7    C30   S    
C67   H53   S    
C21   C22   A    
C13   F3    S    
C33   C59   S    
C49   F6    S    
C28   O8    A    
C66   H46   S    
Cu1   O22   S    
C5    C10   A    
C44   C46   A    
C51   H12   S    
C4    C45   S    
C45   C47   S    
C65   H47   S    
C53   H18   S    
C64   H41   S    
Cu6   O10   S    
C23   O20   A    
C1    C10   S    
Cu1   Cu2   S    
C7    C8    A    
C66   H45   S    
C9    F1    S    
Cu5   O14   S    
C8    C9    A    
C29   O10   A    
C2    C48   S    
C25   O24   A    
C44   C67   S    
Cu6   O13   S    
C12   O19   A    
C4    C50   S    
C69   C70   S    
Cu2   O19   S    
C62   H35   S    
C43   C44   A    
C37   C38   A    
C32   O16   A    
C64   H40   S    
C70   H54   S    
Cu4   O6    S    
C45   C49   S    
C68   H49   S    
C58   H26   S    
C54   H15   S    
C70   H56   S    
C12   O18   A    
C55   H22   S    
C16   H2    S    
C20   C21   A    
Cu1   O18   S    
C59   C60   S    
C37   H3    S    
C27   O6    A    
C69   H57   S    
C38   H4    S    
C27   C46   S    
C40   C41   A    
C21   C55   S    
Cu2   O21   S    
C52   H11   S    
C3    H7    S    
C67   H52   S    
C23   O21   A    
C72   H59   S    
C50   H6    S    
C22   C24   A    
C28   O7    A    
C17   C34   S    
C60   H30   S    
C3    C4    S    
Cu3   O7    S    
C31   O14   A    
C61   C62   S    
C20   C32   S    
C71   H62   S    
C48   C49   S    
C67   C68   S    
C1    O12   A    
Cu2   O23   S    
C25   O2    A    
C63   C64   S    
Cu2   O12   S    
C62   H36   S    
C18   C53   S    
C31   O15   A    
C6    C7    A    
Cu4   O2    S    
C69   H58   S    
C64   H39   S    
C22   C57   S    
C56   H21   S    
C66   H44   S    
C26   O4    A    
C19   C20   A    
C2    C3    S    
C59   H32   S    
C53   C54   S    
C25   C39   S    
C30   O11   A    
C11   C13   A    
C11   F2    S    
C38   C39   A    
C60   H31   S    
C15   C16   A    
C3    C47   S    
C51   C52   S    
C33   C35   A    
C63   H42   S    
C56   H20   S    
C62   H34   S    
Cu3   O24   S    
C34   O23   A    
C54   H16   S    
Cu3   O3    S    
C23   C24   S    
C61   H37   S    
Cu5   O9    S    
C19   F4    S    
C8    F7    S    
C65   H48   S    
Cu4   O8    S    
C2    C69   S    
C72   H61   S    
Cu4   O4    S    
C49   C50   S    
C42   C43   A    
C47   H1    S    
C14   C15   A    
C54   H14   S    
C14   C28   S    
C60   H29   S    
C13   C14   A    
Cu1   O20   S    
C57   H28   S    
C58   H24   S    
