data_mof_unit_pretest_1167.cif
_audit_creation_date              2012-12-10T17:33:41-0500
_audit_creation_method            fapswitch 2.2
_symmetry_space_group_name_H-M    P1
_symmetry_Int_Tables_number       1
_space_group_crystal_system       triclinic
_cell_length_a                    11.689567
_cell_length_b                    12.379456
_cell_length_c                    13.143236
_cell_angle_alpha                 117.592962
_cell_angle_beta                  76.801451
_cell_angle_gamma                 101.539307
_cell_volume                      1631.28239939

loop_
_atom_site_label
_atom_site_type_symbol
_atom_type_description
_atom_site_fract_x
_atom_site_fract_y
_atom_site_fract_z
_atom_type_partial_charge
C1    C     C_R   0.518006 0.854650 0.285899 0.951147
C2    C     C_R   0.449172 0.229472 0.836027 -0.265986
C3    C     C_R   0.645310 0.800932 0.095939 0.606828
C4    C     C_R   0.676963 0.720780 0.980657 -0.160664
C5    C     C_R   0.612198 0.605718 0.929594 -0.040910
C6    C     C_R   0.515427 0.568425 0.000582 0.001129
C7    C     C_R   0.471559 0.660088 0.110613 -0.131699
C8    C     C_R   0.458962 0.446002 0.968502 -0.012848
C9    C     C_R   0.345663 0.424119 0.030264 -0.165397
C10   C     C_R   0.288987 0.526422 0.118456 -0.094409
C11   C     C_R   0.355219 0.640567 0.163758 0.535412
C12   C     C_R   0.715757 0.000007 0.499665 0.853938
C13   C     C_R   0.514256 0.343619 0.881435 0.462413
C14   C     C_R   0.341542 0.206002 0.898567 0.565872
C15   C     C_R   0.541979 0.772579 0.161372 -0.205610
C16   C     C_R   0.725710 0.378015 0.389443 -0.225099
C17   C     C_R   0.330021 0.755748 0.633811 0.769071
C18   C     C_R   0.289597 0.663002 0.668492 0.398085
C19   C     C_R   0.356120 0.565786 0.632150 -0.204479
C20   C     C_R   0.463280 0.557887 0.551500 -0.033022
C21   C     C_R   0.502712 0.658662 0.520936 0.001794
C22   C     C_R   0.534855 0.456497 0.498186 -0.082634
C23   C     C_R   0.482442 0.145595 0.714054 0.892840
C24   C     C_R   0.655699 0.477493 0.452717 -0.123881
C25   C     C_R   0.697935 0.596012 0.462105 -0.037294
C26   C     C_R   0.617558 0.661902 0.457420 -0.002188
C27   C     C_R   0.491752 0.334888 0.482663 0.689331
C28   C     C_R   0.678886 0.263756 0.387022 0.738975
C29   C     C_R   0.284233 0.999992 0.500350 0.880718
C30   C     C_1   0.837638 0.000205 0.499483 -0.061754
C31   C     C_1   0.940137 0.999923 0.499559 0.051536
C32   C     C_1   0.059865 0.999492 0.499859 0.066092
C33   C     C_1   0.162363 0.999458 0.500158 -0.035970
C34   C     C_R   0.294304 0.300671 0.002068 -0.143223
Cu1   Cu    Cu3+1 0.526510 0.098270 0.475420 1.130024
Cu2   Cu    Cu3+1 0.473490 0.901730 0.524580 1.066851
H1    H     H_    0.752762 0.750037 0.930695 0.234653
N1    N     N_R   0.566700 0.246290 0.438210 -0.306941
N2    N     N_R   0.434010 0.754320 0.561170 -0.307345
O1    O     O_R   0.533340 0.972510 0.318140 -0.512189
O2    O     O_R   0.488570 0.806530 0.359650 -0.598975
O3    O     O_R   0.685190 0.083000 0.479260 -0.510178
O4    O     O_R   0.640410 0.917020 0.520770 -0.600378
O5    O     O_R   0.511430 0.193470 0.640350 -0.572670
O6    O     O_R   0.466660 0.027490 0.681860 -0.513884
O7    O     O_R   0.359590 0.082980 0.479230 -0.527320
O8    O     O_R   0.314810 0.917000 0.520740 -0.506260
F1    F     F_    0.283679 0.090968 0.859057 -0.542208
C35   C     C_2   0.821326 0.653129 0.475307 0.421548
H2    H     H_    0.853930 0.732874 0.458816 0.100093
O9    O     O_2   0.885577 0.616041 0.510891 -0.473049
C36   C     C_2   0.840098 0.387036 0.314083 0.582367
H3    H     H_    0.858112 0.454160 0.279573 0.058537
O10   O     O_2   0.915326 0.319322 0.289007 -0.435001
F2    F     F_    0.374371 0.300666 0.499720 -0.645611
F3    F     F_    0.266562 0.852563 0.680476 -0.532673
C37   C     C_2   0.315408 0.488295 0.695008 0.616149
H4    H     H_    0.221524 0.468615 0.720855 0.144573
O11   O     O_2   0.385060 0.450875 0.724118 -0.602958
F4    F     F_    0.187678 0.673349 0.745430 -0.579186
C38   C     C_2   0.632582 0.659439 0.342142 0.394853
H5    H     H_    0.562247 0.614398 0.289887 0.080807
O12   O     O_2   0.725347 0.700903 0.301468 -0.558898
C39   C     C_2   0.159178 0.522222 0.158116 0.427457
H6    H     H_    0.123837 0.582445 0.246549 0.126595
O13   O     O_2   0.090358 0.456410 0.090658 -0.497203
C40   C     C_2   0.200381 0.267821 0.084009 0.602999
H7    H     H_    0.189676 0.328758 0.176277 0.035674
O14   O     O_2   0.134990 0.172098 0.050198 -0.376608
F5    F     F_    0.632670 0.350406 0.844067 -0.656743
F6    F     F_    0.715676 0.907571 0.143256 -0.570250
C41   C     C_2   0.638903 0.537170 0.800544 0.552830
H8    H     H_    0.580748 0.459264 0.752531 0.139923
O15   O     O_2   0.727128 0.567756 0.745182 -0.489638
F7    F     F_    0.300218 0.736707 0.251180 -0.697561
F8    F     F_    0.743627 0.167147 0.328324 -0.540318

loop_
_geom_bond_atom_site_label_1
_geom_bond_atom_site_label_2
_ccdc_geom_bond_type
C16   C28   A    
C21   C26   A    
C8    C13   A    
C23   O6    A    
Cu1   Cu2   S    
C19   C37   S    
C7    C11   A    
C29   O8    A    
C26   C38   S    
C12   O4    A    
C5    C6    A    
C27   F2    S    
C37   O11   D    
C13   F5    S    
C27   N1    A    
C29   C33   S    
Cu2   O8    S    
C18   C19   A    
C17   N2    A    
C38   O12   D    
C2    C13   A    
C12   O3    A    
C1    O1    A    
C19   C20   A    
C8    C9    A    
C35   O9    D    
C1    C15   S    
C9    C10   A    
C7    C15   A    
C16   C24   A    
Cu2   O2    S    
C36   O10   D    
C40   H7    S    
Cu1   N1    S    
C24   C25   A    
C41   O15   D    
C41   H8    S    
C6    C8    A    
C25   C26   A    
C23   O5    A    
C40   O14   D    
C39   O13   D    
C3    F6    S    
C31   C32   S    
C21   N2    A    
C28   N1    A    
C17   C18   A    
Cu2   O6    S    
C4    H1    S    
Cu1   O5    S    
C17   F3    S    
C18   F4    S    
C20   C22   A    
C22   C27   A    
C9    C34   A    
C22   C24   A    
C3    C4    A    
C28   F8    S    
C3    C15   A    
C36   H3    S    
C1    O2    A    
C12   C30   S    
Cu2   N2    S    
C10   C39   S    
C16   C36   S    
C4    C5    A    
C34   C40   S    
C14   C34   A    
C14   F1    S    
C6    C7    A    
C5    C41   S    
C29   O7    A    
C39   H6    S    
Cu1   O1    S    
C11   F7    S    
C32   C33   T    
C37   H4    S    
C30   C31   T    
Cu1   O3    S    
C38   H5    S    
C2    C14   A    
C25   C35   S    
C10   C11   A    
C20   C21   A    
C35   H2    S    
C2    C23   S    
Cu2   O4    S    
Cu1   O7    S    
