data_mof_unit_pretest_1163.cif
_audit_creation_date              2012-10-26T21:21:37-0400
_audit_creation_method            fapswitch 2.2
_symmetry_space_group_name_H-M    P1
_symmetry_Int_Tables_number       1
_space_group_crystal_system       triclinic
_cell_length_a                    14.293659
_cell_length_b                    10.82497
_cell_length_c                    9.747899
_cell_angle_alpha                 88.879012
_cell_angle_beta                  91.066687
_cell_angle_gamma                 93.946426
_cell_volume                      1504.18724884

loop_
_atom_site_label
_atom_site_type_symbol
_atom_type_description
_atom_site_fract_x
_atom_site_fract_y
_atom_site_fract_z
_atom_type_partial_charge
C1    C     C_R   0.505646 0.262357 0.502048 0.567514
C2    C     C_R   0.509888 0.063192 0.380506 0.238777
C3    C     C_R   0.479965 0.938114 0.375250 0.220090
C4    C     C_R   0.331553 0.499778 0.498962 0.561266
C5    C     C_R   0.470758 0.868068 0.496624 -0.058166
C6    C     C_R   0.641037 0.635731 0.147038 -0.091438
C7    C     C_R   0.728221 0.659445 0.091574 -0.187502
C8    C     C_R   0.740643 0.633366 0.955624 0.192739
C9    C     C_R   0.659283 0.617806 0.868379 0.317654
C10   C     C_R   0.575437 0.559366 0.928277 0.083821
C11   C     C_R   0.571677 0.562729 0.076246 0.069680
C12   C     C_1   0.770815 0.500084 0.499699 -0.017319
C13   C     C_R   0.425110 0.452730 0.073864 0.395257
C14   C     C_R   0.427810 0.441345 0.927159 0.306720
C15   C     C_R   0.487994 0.735138 0.498509 0.536038
C16   C     C_R   0.668412 0.500135 0.500529 0.510776
C17   C     C_1   0.229133 0.500696 0.496938 0.010361
C18   C     C_1   0.143566 0.501171 0.496030 -0.009305
C19   C     C_1   0.042766 0.501191 0.495194 0.036761
C20   C     C_1   0.957168 0.500925 0.495207 0.058425
C21   C     C_1   0.856365 0.500418 0.496706 0.015750
C22   C     C_3   0.630203 0.141490 0.249388 -0.017140
C23   C     C_R   0.501616 0.104282 0.763061 -0.061700
C24   C     C_3   0.655608 0.208788 0.115339 -0.340792
C25   C     C_3   0.729288 0.767754 0.712901 0.020615
C26   C     C_3   0.705337 0.853458 0.594068 -0.391774
C27   C     C_3   0.275435 0.501545 0.123563 0.044265
C28   C     C_3   0.177743 0.437775 0.140012 -0.303340
C29   C     C_R   0.458783 0.042680 0.874214 -0.052380
C30   C     C_R   0.409409 0.928624 0.855851 -0.042092
C31   C     C_R   0.412830 0.869959 0.731320 -0.063813
C32   C     C_R   0.459310 0.929612 0.619731 -0.024407
C33   C     C_R   0.490835 0.055471 0.629679 -0.030831
C34   C     C_R   0.509009 0.125738 0.506579 -0.058687
Cu1   Cu    Cu3+1 0.499990 0.499990 0.640660 1.064366
Cu2   Cu    Cu3+1 0.500010 0.500010 0.359340 1.047397
H1    H     H_    0.543211 0.188705 0.784838 0.143632
H2    H     H_    0.732880 0.226929 0.110102 0.135426
H3    H     H_    0.631261 0.151184 0.027029 0.125789
H4    H     H_    0.939399 0.606169 0.094957 0.343825
H5    H     H_    0.785747 0.712015 0.676691 0.204394
H6    H     H_    0.753571 0.827458 0.800030 0.156003
H7    H     H_    0.651568 0.915475 0.625658 0.150529
H8    H     H_    0.768971 0.911588 0.564013 0.111310
H9    H     H_    0.679750 0.798840 0.504063 0.136772
H10   H     H_    0.285341 0.226292 0.689099 0.361371
H11   H     H_    0.551860 0.908163 0.108767 0.331373
H12   H     H_    0.462949 0.085582 0.973349 0.207486
H13   H     H_    0.278683 0.552105 0.023243 0.154309
H14   H     H_    0.284091 0.573822 0.201579 0.188400
H15   H     H_    0.174373 0.382338 0.236967 0.159582
H16   H     H_    0.124943 0.508298 0.142484 0.120835
H17   H     H_    0.159855 0.375353 0.053244 0.236795
H18   H     H_    0.370521 0.882548 0.937965 0.216776
H19   H     H_    0.375542 0.780000 0.721237 0.144763
H20   H     H_    0.631990 0.669785 0.247715 0.191389
H21   H     H_    0.786643 0.692394 0.156472 0.133073
H22   H     H_    0.661992 0.050272 0.250852 0.102128
H23   H     H_    0.661019 0.198212 0.335306 0.127427
H24   H     H_    0.622379 0.298479 0.108824 0.172793
N1    N     N_R   0.500820 0.501210 0.147910 -0.244726
N2    N     N_R   0.500850 0.501290 0.852040 -0.282328
O1    O     O_R   0.499990 0.319640 0.618810 -0.469540
O2    O     O_2   0.848506 0.507876 0.793969 -0.268042
O3    O     O_2   0.910950 0.714768 0.862568 -0.317012
O4    O     O_3   0.909932 0.535471 0.043116 -0.504592
O5    O     O_3   0.649875 0.688834 0.748199 -0.516967
O6    O     O_2   0.294954 0.252839 0.958800 -0.248481
O7    O     O_2   0.251509 0.430842 0.820675 -0.324882
O8    O     O_3   0.347074 0.268509 0.712693 -0.495055
O9    O     O_2   0.353623 0.778660 0.255149 -0.294013
O10   O     O_2   0.371094 0.987965 0.160903 -0.246012
O11   O     O_3   0.503193 0.838743 0.114219 -0.556336
O12   O     O_R   0.500000 0.319660 0.381240 -0.418643
O13   O     O_3   0.344337 0.413495 0.143047 -0.480205
O14   O     O_R   0.376050 0.499990 0.618810 -0.418428
O15   O     O_R   0.376060 0.500010 0.381240 -0.455581
O16   O     O_R   0.500000 0.680340 0.618760 -0.457045
O17   O     O_R   0.500010 0.680360 0.381190 -0.462977
O18   O     O_R   0.623940 0.499990 0.618760 -0.436771
O19   O     O_R   0.623950 0.500010 0.381190 -0.536640
O20   O     O_3   0.531554 0.125531 0.258564 -0.501759
S1    S     S_3+6 0.854701 0.599177 0.907971 -0.015282
S2    S     S_3+6 0.329447 0.348181 0.853869 0.032808
S3    S     S_3+6 0.423514 0.884661 0.223549 0.014740

loop_
_geom_bond_atom_site_label_1
_geom_bond_atom_site_label_2
_ccdc_geom_bond_type
C3    S3    S    
C8    S1    S    
Cu1   Cu2   S    
C25   O5    S    
C14   S2    S    
O10   S3    D    
C26   H8    S    
C7    C8    A    
C30   H18   S    
C1    O12   A    
C22   O20   S    
Cu2   O15   S    
C30   C31   A    
C28   H15   S    
O3    S1    D    
C15   O16   A    
C14   N2    A    
Cu1   O18   S    
C24   H3    S    
C18   C19   S    
C26   H9    S    
O4    S1    S    
O9    S3    D    
C15   O17   A    
C12   C16   S    
C8    C9    A    
C23   C33   A    
C1    C34   S    
C24   H2    S    
O8    S2    S    
C9    C10   A    
C27   H14   S    
C5    C32   A    
C2    C34   A    
H4    O4    S    
C13   C14   A    
C10   N2    A    
C27   O13   S    
C1    O1    A    
C26   H7    S    
C17   C18   T    
Cu1   O14   S    
C4    O14   A    
C29   H12   S    
O6    S2    D    
C13   O13   S    
H11   O11   S    
C25   H5    S    
C22   H23   S    
C3    C5    A    
C25   C26   S    
C23   H1    S    
C12   C21   T    
C16   O18   A    
C9    O5    S    
O2    S1    D    
C29   C30   A    
C31   C32   A    
Cu2   O19   S    
C24   H24   S    
C5    C15   S    
C33   C34   A    
O11   S3    S    
Cu2   O12   S    
C4    C17   S    
C22   C24   S    
C2    O20   S    
Cu2   N1    S    
C23   C29   A    
C6    C11   A    
C6    H20   S    
C11   N1    A    
Cu2   O17   S    
C25   H6    S    
C22   H22   S    
C28   H17   S    
C6    C7    A    
Cu1   O16   S    
C32   C33   A    
C19   C20   T    
C2    C3    A    
C4    O15   A    
O7    S2    D    
C28   H16   S    
C16   O19   A    
Cu1   N2    S    
H10   O8    S    
C10   C11   A    
C13   N1    A    
C20   C21   S    
C27   C28   S    
Cu1   O1    S    
C31   H19   S    
C7    H21   S    
C27   H13   S    
