data_mof_unit_pretest_1770.cif
_audit_creation_date              2012-10-26T20:23:39-0400
_audit_creation_method            fapswitch 2.2
_symmetry_space_group_name_H-M    P1
_symmetry_Int_Tables_number       1
_space_group_crystal_system       triclinic
_cell_length_a                    12.75334
_cell_length_b                    13.903845
_cell_length_c                    15.88176
_cell_angle_alpha                 90.239003
_cell_angle_beta                  92.713037
_cell_angle_gamma                 97.943912
_cell_volume                      2785.84706314

loop_
_atom_site_label
_atom_site_type_symbol
_atom_type_description
_atom_site_fract_x
_atom_site_fract_y
_atom_site_fract_z
_atom_type_partial_charge
C1    C     C_R   0.483569 0.315827 0.499131 0.549537
C2    C     C_1   0.145435 0.480721 0.483012 0.160571
C3    C     C_R   0.500710 0.499979 0.339544 0.549578
C4    C     C_R   0.499290 0.500021 0.660456 0.549578
C5    C     C_3   0.443752 0.418559 0.970183 0.264343
C6    C     C_3   0.556248 0.581441 0.029816 0.264342
C7    C     C_3   0.544238 0.423066 0.028970 -0.111746
C8    C     C_3   0.455762 0.576933 0.971030 -0.111745
C9    C     C_1   0.502031 0.499898 0.249971 0.015305
C10   C     C_1   0.497969 0.500102 0.750029 0.015305
C11   C     C_3   0.399813 0.494092 0.025201 -0.111533
C12   C     C_R   0.516431 0.684173 0.500869 0.549537
C13   C     C_3   0.600187 0.505908 0.974799 -0.111533
C14   C     C_3   0.501027 0.499659 0.082878 0.011464
C15   C     C_3   0.498973 0.500341 0.917122 0.011464
C16   C     C_1   0.502025 0.499767 0.174494 0.012062
C17   C     C_1   0.497975 0.500233 0.825506 0.012062
C18   C     C_1   0.525818 0.787516 0.501355 0.008273
C19   C     C_1   0.474182 0.212483 0.498645 0.008273
C20   C     C_2   0.543507 0.978392 0.502274 -0.105630
C21   C     C_2   0.456493 0.021608 0.497725 -0.105630
C22   C     C_1   0.465651 0.125427 0.498202 -0.026371
C23   C     C_1   0.534349 0.874572 0.501798 -0.026371
C24   C     C_2   0.028371 0.473163 0.476328 -0.150090
C25   C     C_2   0.971629 0.526837 0.523672 -0.150090
C26   C     C_1   0.854565 0.519279 0.516988 0.160571
Cl1   Cl    Cl    0.368415 0.309606 0.929332 -0.547536
Cl2   Cl    Cl    0.631585 0.690394 0.070668 -0.547536
Cu1   Cu    Cu3+1 0.395330 0.493960 0.494680 1.028495
Cu2   Cu    Cu3+1 0.604670 0.506040 0.505320 1.028495
H1    H     H_    0.579643 0.359561 0.053549 0.151911
H2    H     H_    0.420357 0.640439 0.946451 0.151911
H3    H     H_    0.682350 0.511652 0.953265 0.151405
H4    H     H_    0.317650 0.488348 0.046734 0.151405
H5    H     H_    0.378071 0.979329 0.493625 0.147055
H6    H     H_    0.621929 0.020671 0.506375 0.147055
H7    H     H_    0.013537 0.578499 0.569260 0.137172
H8    H     H_    0.986463 0.421501 0.430740 0.137172
N1    N     N_1   0.238040 0.484880 0.486690 -0.178735
N2    N     N_1   0.761960 0.515120 0.513310 -0.178735
O1    O     O_R   0.399110 0.356330 0.494860 -0.486516
O2    O     O_R   0.600890 0.643670 0.505140 -0.486516
O3    O     O_R   0.575890 0.366540 0.503840 -0.492075
O4    O     O_R   0.424110 0.633460 0.496160 -0.492074
O5    O     O_R   0.411620 0.494890 0.374590 -0.491472
O6    O     O_R   0.588380 0.505110 0.625410 -0.491473
O7    O     O_R   0.588400 0.505100 0.383570 -0.485466
O8    O     O_R   0.411600 0.494900 0.616430 -0.485466

loop_
_geom_bond_atom_site_label_1
_geom_bond_atom_site_label_2
_ccdc_geom_bond_type
C7    C14   S    
C24   H8    S    
C13   H3    S    
Cu1   Cu2   S    
C21   H5    S    
C6    C14   S    
C1    O3    A    
C20   C23   S    
Cu1   O1    S    
Cu1   N1    S    
Cu2   N2    S    
C12   O4    A    
C4    O6    A    
C21   C22   S    
C20   C21   D    
C6    C13   S    
C26   N2    T    
C8    C11   S    
C3    C9    S    
C6    C8    S    
C3    O7    A    
C9    C16   T    
C3    O5    A    
C5    C11   S    
C8    C15   S    
C13   C15   S    
Cu1   O4    S    
C2    C24   S    
C11   C14   S    
C14   C16   S    
Cu2   O3    S    
C5    C15   S    
C1    C19   S    
Cu1   O8    S    
C4    C10   S    
C18   C23   T    
C8    H2    S    
Cu2   O7    S    
C7    C13   S    
C19   C22   T    
C7    H1    S    
C24   C25   D    
C5    C7    S    
C4    O8    A    
C12   C18   S    
C15   C17   S    
Cu2   O2    S    
C12   O2    A    
C10   C17   T    
C25   H7    S    
C25   C26   S    
C5    Cl1   S    
C2    N1    T    
Cu2   O6    S    
C11   H4    S    
C6    Cl2   S    
C1    O1    A    
Cu1   O5    S    
C20   H6    S    
