data_mof_unit_pretest_1090.cif
_audit_creation_date              2012-12-10T19:41:54-0500
_audit_creation_method            fapswitch 2.2
_symmetry_space_group_name_H-M    P1
_symmetry_Int_Tables_number       1
_space_group_crystal_system       triclinic
_cell_length_a                    18.377811
_cell_length_b                    18.481484
_cell_length_c                    18.429954
_cell_angle_alpha                 120.530091
_cell_angle_beta                  89.7219
_cell_angle_gamma                 119.942341
_cell_volume                      4405.23348821

loop_
_atom_site_label
_atom_site_type_symbol
_atom_type_description
_atom_site_fract_x
_atom_site_fract_y
_atom_site_fract_z
_atom_type_partial_charge
C1    C     C_R   0.140510 0.780165 0.140291 0.902299
C2    C     C_R   0.805320 0.109911 0.804243 -0.116244
C3    C     C_R   0.804993 0.057552 0.838762 -0.245445
C4    C     C_R   0.859868 0.220635 0.859861 0.861226
C5    C     C_R   0.751214 0.950020 0.786578 0.388353
C6    C     C_R   0.694376 0.891690 0.697922 -0.136543
C7    C     C_R   0.694631 0.947255 0.667690 -0.111644
C8    C     C_3   0.653984 0.938880 0.591079 0.212638
C9    C     C_3   0.718817 0.058343 0.648417 0.761799
C10   C     C_R   0.794902 0.581709 0.242636 0.043834
C11   C     C_R   0.815089 0.509832 0.205952 -0.102639
C12   C     C_R   0.754371 0.679955 0.828362 0.404713
C13   C     C_R   0.793301 0.447987 0.236400 -0.257302
C14   C     C_R   0.739615 0.446200 0.290342 0.377013
C15   C     C_R   0.705578 0.506549 0.313428 -0.174546
C16   C     C_R   0.139548 0.499592 0.859677 0.838120
C17   C     C_R   0.739780 0.578331 0.293435 0.022101
C18   C     C_3   0.696921 0.607870 0.255543 0.688457
C19   C     C_3   0.759678 0.614315 0.201332 -0.521904
C20   C     C_R   0.160755 0.947029 0.215149 -0.122240
C21   C     C_R   0.198401 0.891960 0.190728 -0.164914
C22   C     C_R   0.292505 0.947301 0.210466 0.300024
C23   C     C_R   0.742632 0.584846 0.789957 -0.224882
C24   C     C_R   0.345055 0.054728 0.257933 0.407811
C25   C     C_R   0.305761 0.108695 0.294685 -0.183954
C26   C     C_R   0.213137 0.052529 0.266390 -0.108174
C27   C     C_3   0.149042 0.061619 0.314200 0.391483
C28   C     C_R   0.861519 0.501527 0.141281 0.859093
C29   C     C_3   0.090503 0.943823 0.257900 0.234494
C30   C     C_R   0.286316 0.572086 0.232670 -0.098436
C31   C     C_R   0.194167 0.509977 0.206725 -0.220170
C32   C     C_R   0.155895 0.457743 0.246746 0.385046
C33   C     C_R   0.209086 0.451308 0.295119 0.402519
C34   C     C_R   0.768903 0.566330 0.847083 -0.155804
C35   C     C_R   0.302384 0.505454 0.311019 -0.303750
C36   C     C_R   0.339136 0.569421 0.282526 -0.061810
C37   C     C_3   0.406977 0.590554 0.235831 1.004837
C38   C     C_3   0.347193 0.594788 0.182195 -0.479392
C39   C     C_R   0.285788 0.562095 0.837726 -0.019617
C40   C     C_R   0.139767 0.501831 0.141861 0.855461
C41   C     C_R   0.193414 0.497697 0.802042 -0.186145
C42   C     C_R   0.154574 0.430737 0.707153 0.505641
C43   C     C_R   0.210041 0.430620 0.654156 -0.326421
C44   C     C_R   0.303433 0.497887 0.693880 -0.088170
C45   C     C_R   0.791592 0.492800 0.807582 -0.095208
C46   C     C_R   0.337948 0.561747 0.786070 0.014112
C47   C     C_3   0.422888 0.642793 0.862429 -0.552439
C48   C     C_3   0.363867 0.644764 0.922003 0.748315
C49   C     C_R   0.641270 0.500452 0.361109 0.868436
C50   C     C_R   0.360102 0.499524 0.639681 0.845763
C51   C     C_R   0.639539 0.779843 0.640424 0.839881
C52   C     C_R   0.855133 0.496325 0.860631 0.864813
C53   C     C_R   0.360214 0.220022 0.358587 0.883641
C54   C     C_R   0.359546 0.500152 0.360468 0.850005
C55   C     C_R   0.643300 0.503281 0.640168 0.867241
C56   C     C_R   0.759252 0.421491 0.712920 0.380532
C57   C     C_R   0.768995 0.622777 0.937749 0.378006
C58   C     C_R   0.741843 0.689746 0.962115 0.246578
C59   C     C_R   0.744045 0.725943 0.911354 0.348615
C60   C     C_3   0.504925 0.799392 0.524181 -0.118458
C61   C     C_3   0.754512 0.078772 0.535726 -0.136268
C62   C     C_3   0.859236 0.704673 0.077157 -0.119452
C63   C     C_3   0.455471 0.118807 0.206836 -0.102882
C64   C     C_3   0.137675 0.145942 0.453268 -0.159982
C65   C     C_3   0.050121 0.471709 0.302695 -0.170539
C66   C     C_3   0.131349 0.289525 0.259470 -0.181832
C67   C     C_R   0.711873 0.426730 0.659951 -0.221098
C68   C     C_3   0.545747 0.719666 0.253402 -0.136923
C69   C     C_3   0.344389 0.409765 0.135389 -0.266130
C70   C     C_3   0.643674 0.651483 0.034648 -0.202892
C71   C     C_3   0.031211 0.395640 0.631240 -0.194214
C72   C     C_3   0.651446 0.775600 0.923936 -0.072029
C73   C     C_3   0.852062 0.751330 0.769749 -0.199923
C74   C     C_R   0.703410 0.507811 0.697101 -0.088699
C75   C     C_R   0.750211 0.051143 0.717200 0.006011
Cl1   Cl    Cl    0.770808 0.319041 0.654003 -0.559562
Cl2   Cl    Cl    0.761705 0.895941 0.836959 -0.540923
Cl3   Cl    Cl    0.670095 0.128806 0.691091 -0.492432
Cl4   Cl    Cl    0.714944 0.362460 0.321217 -0.583103
Cl5   Cl    Cl    0.582983 0.507426 0.187271 -0.591123
Cl6   Cl    Cl    0.716885 0.728727 0.338794 -0.604720
Cl7   Cl    Cl    0.350928 0.889699 0.185711 -0.431086
Cl8   Cl    Cl    0.076914 0.890774 0.319839 -0.552938
Cl9   Cl    Cl    0.373124 0.603543 0.988359 -0.625292
Cl10  Cl    Cl    0.371586 0.761592 0.982771 -0.525294
H1    H     H_    0.814365 0.397139 0.215124 0.208036
H2    H     H_    0.461718 0.713642 0.864779 0.212771
H3    H     H_    0.682465 0.367245 0.588597 0.220603
H4    H     H_    0.847569 0.099992 0.906099 0.207871
H5    H     H_    0.667393 0.898259 0.529075 0.117587
H6    H     H_    0.438732 0.778736 0.496499 0.176767
H7    H     H_    0.524760 0.762720 0.466452 0.211681
H8    H     H_    0.496859 0.767830 0.563506 0.131788
H9    H     H_    0.701987 0.092311 0.535564 0.221580
H10   H     H_    0.728691 0.999201 0.478566 0.132675
H11   H     H_    0.809940 0.131837 0.525225 0.204816
H12   H     H_    0.726178 0.556648 0.127814 0.231822
H13   H     H_    0.835623 0.747389 0.125312 0.178954
H14   H     H_    0.910898 0.753790 0.060292 0.114168
H15   H     H_    0.893291 0.691629 0.113187 0.229680
H16   H     H_    0.528297 0.159226 0.220014 0.235315
H17   H     H_    0.436458 0.166642 0.205233 0.103078
H18   H     H_    0.422162 0.043237 0.140470 0.167332
H19   H     H_    0.065749 0.082544 0.427251 0.171687
H20   H     H_    0.146289 0.208396 0.450489 0.138370
H21   H     H_    0.164130 0.178614 0.524455 0.193626
H22   H     H_    0.977456 0.430325 0.291044 0.193300
H23   H     H_    0.810956 0.694052 0.223510 0.217225
H24   H     H_    0.072318 0.540803 0.304279 0.133410
H25   H     H_    0.083271 0.495105 0.368467 0.166961
H26   H     H_    0.106539 0.245008 0.288196 0.172027
H27   H     H_    0.181261 0.278491 0.230389 0.121579
H28   H     H_    0.073625 0.257303 0.205957 0.190315
H29   H     H_    0.518203 0.732585 0.211192 0.151701
H30   H     H_    0.562181 0.664250 0.212428 0.237990
H31   H     H_    0.608917 0.794300 0.304548 0.197899
H32   H     H_    0.282123 0.399540 0.112616 0.114822
H33   H     H_    0.335890 0.379256 0.175662 0.154847
H34   H     H_    0.121069 0.094916 0.297508 0.008915
H35   H     H_    0.354774 0.361916 0.074751 0.219631
H36   H     H_    0.653907 0.601192 0.042535 0.210067
H37   H     H_    0.589218 0.604511 0.970936 0.142309
H38   H     H_    0.621367 0.687452 0.090008 0.191490
H39   H     H_    0.055573 0.395155 0.575736 0.140246
H40   H     H_    0.049427 0.473785 0.684438 0.146466
H41   H     H_    0.957437 0.342770 0.603734 0.221296
H42   H     H_    0.617013 0.743924 0.960706 0.145905
H43   H     H_    0.615287 0.717974 0.850621 0.168514
H44   H     H_    0.649179 0.842175 0.945225 0.204475
H45   H     H_    0.027043 0.908831 0.210117 0.034665
H46   H     H_    0.849840 0.682001 0.720356 0.133631
H47   H     H_    0.906907 0.800487 0.833742 0.146715
H48   H     H_    0.867431 0.796514 0.742154 0.198758
H49   H     H_    0.374292 0.672503 0.199562 0.242597
H50   H     H_    0.317483 0.533056 0.109296 0.217242
H51   H     H_    0.179459 0.377634 0.582186 0.182583
H52   H     H_    0.460270 0.611707 0.865632 0.194682
O1    O     O_3   0.000000 0.500000 0.000000 -0.534611
O2    O     O_R   0.323450 0.268330 0.384170 -0.645591
O3    O     O_R   0.444860 0.560620 0.384150 -0.617751
O4    O     O_R   0.055050 0.731580 0.115780 -0.666492
O5    O     O_R   0.615780 0.439200 0.555040 -0.632940
O6    O     O_R   0.323420 0.439190 0.384160 -0.610210
O7    O     O_R   0.615760 0.560630 0.676470 -0.611718
O8    O     O_R   0.615740 0.731500 0.676460 -0.585870
O9    O     O_R   0.444900 0.268330 0.384170 -0.589380
O10   O     O_R   0.615750 0.560630 0.384150 -0.579504
O11   O     O_R   0.323430 0.439200 0.555040 -0.648434
O12   O     O_R   0.055090 0.439280 0.823480 -0.597282
O13   O     O_R   0.884220 0.268410 0.823490 -0.577831
O14   O     O_R   0.176520 0.560720 0.944920 -0.590465
O15   O     O_R   0.884200 0.439290 0.115800 -0.647152
O16   O     O_R   0.176530 0.560720 0.115800 -0.612783
O17   O     O_R   0.884180 0.560710 0.944910 -0.620925
O18   O     O_R   0.055100 0.439290 0.115810 -0.603472
O19   O     O_R   0.884190 0.439280 0.823480 -0.581567
O20   O     O_3   0.564622 0.907353 0.580362 -0.568419
O21   O     O_3   0.788440 0.098023 0.616805 -0.611160
O22   O     O_3   0.787119 0.608525 0.000453 -0.582877
O23   O     O_R   0.884180 0.560710 0.115790 -0.641908
O24   O     O_3   0.436160 0.106503 0.275578 -0.532124
O25   O     O_3   0.185939 0.109656 0.406160 -0.538924
O26   O     O_3   0.065440 0.405042 0.232794 -0.574720
O27   O     O_3   0.169307 0.393837 0.328264 -0.572086
O28   O     O_3   0.487911 0.687822 0.297731 -0.629311
O29   O     O_3   0.421358 0.512347 0.184010 -0.561901
O30   O     O_3   0.723765 0.730385 0.040879 -0.585026
O31   O     O_3   0.063294 0.360320 0.665783 -0.574343
O32   O     O_3   0.741319 0.810194 0.945320 -0.509816
O33   O     O_3   0.769276 0.724518 0.783258 -0.508908
O34   O     O_R   0.176500 0.731590 0.115790 -0.577714
O35   O     O_R   0.884220 0.268420 0.944930 -0.648955
O36   O     O_3   0.499960 0.499910 0.499960 -0.525913
O37   O     O_R   0.615770 0.439200 0.384160 -0.599156
O38   O     O_R   0.444870 0.560630 0.676470 -0.655288
O39   O     O_R   0.615730 0.731500 0.555020 -0.655366
Zn1   Zn    Zn3+2 0.956630 0.413250 0.869870 1.068720
Zn2   Zn    Zn3+2 0.130130 0.586750 0.043370 1.059243
Zn3   Zn    Zn3+2 0.956630 0.413250 0.043380 1.001966
Zn4   Zn    Zn3+2 0.956610 0.586750 0.043370 0.972438
Zn5   Zn    Zn3+2 0.543330 0.586660 0.630080 1.000544
Zn6   Zn    Zn3+2 0.543320 0.586660 0.456570 1.022485
Zn7   Zn    Zn3+2 0.369830 0.413160 0.456580 0.969683
Zn8   Zn    Zn3+2 0.543350 0.413170 0.456590 1.047022

loop_
_geom_bond_atom_site_label_1
_geom_bond_atom_site_label_2
_ccdc_geom_bond_type
O5    Zn8   S    
C73   H46   S    
C1    C21   S    
C7    C8    S    
C56   Cl1   S    
C66   H28   S    
O17   Zn4   S    
C27   C29   S    
O4    Zn4   S    
C41   C42   A    
C24   O24   S    
C63   H16   S    
O1    Zn4   S    
C19   H12   S    
C61   H11   S    
C72   H44   S    
C39   C41   A    
O39   Zn6   S    
C12   C23   A    
C49   O10   A    
C67   H3    S    
C72   H43   S    
C59   O32   S    
C22   Cl7   S    
C36   C37   S    
C25   C53   S    
C29   Cl8   S    
C27   O25   S    
C30   C31   A    
C51   O8    A    
C10   C17   A    
C52   O17   A    
C32   O26   S    
O8    Zn5   S    
C69   H33   S    
C28   O23   A    
C18   Cl6   S    
C31   C40   S    
C30   C38   S    
C64   H19   S    
C18   C19   S    
C46   C47   S    
C69   O29   S    
O23   Zn4   S    
O1    Zn3   S    
C62   H13   S    
C55   C74   S    
C70   H38   S    
C54   O3    A    
C35   C36   A    
C45   C56   A    
C44   C46   A    
C8    C9    S    
C30   C36   A    
C13   H1    S    
C34   C57   A    
C40   O18   A    
C16   O12   A    
C66   H26   S    
O38   Zn5   S    
C19   H23   S    
C38   H49   S    
C54   O6    A    
C57   O22   S    
C73   H47   S    
O36   Zn5   S    
C55   O5    A    
C13   C14   A    
C35   C54   S    
C12   C59   A    
C47   H52   S    
C51   O39   A    
C63   H17   S    
C8    O20   S    
C49   O37   A    
O18   Zn3   S    
C20   C29   S    
C60   H7    S    
C72   H42   S    
C71   H39   S    
C64   H20   S    
C33   O27   S    
C24   C25   A    
O36   Zn8   S    
C63   H18   S    
O37   Zn8   S    
C67   C74   A    
C61   H9    S    
O14   Zn2   S    
C12   O33   S    
C45   C52   S    
C25   C26   A    
O16   Zn2   S    
C1    O34   A    
O3    Zn6   S    
C48   Cl9   S    
C32   C33   A    
C50   O38   A    
O6    Zn7   S    
C2    C4    S    
C43   C44   A    
C37   C38   S    
O19   Zn1   S    
C70   H37   S    
C47   C48   S    
C14   C15   A    
C10   C19   S    
C23   C34   A    
C65   O26   S    
O12   Zn1   S    
C17   C18   S    
C26   C27   S    
C66   O27   S    
C71   H41   S    
C34   C45   A    
C7    C75   A    
C14   Cl4   S    
C60   O20   S    
C58   O30   S    
C50   O11   A    
C65   H24   S    
C6    C7    A    
C68   H31   S    
C39   C46   A    
C62   H15   S    
O35   Zn3   S    
C64   O25   S    
O34   Zn2   S    
C73   H48   S    
O36   Zn6   S    
C28   O15   A    
C68   O28   S    
C71   O31   S    
O13   Zn1   S    
C6    C51   S    
C22   C24   A    
C40   O16   A    
C42   O31   S    
C8    H5    S    
C42   C43   A    
C23   C74   A    
C5    Cl2   S    
O1    Zn2   S    
C11   C28   S    
O2    Zn7   S    
O10   Zn6   S    
C60   H6    S    
C44   C50   S    
C15   C17   A    
O7    Zn5   S    
C55   O7    A    
C4    O35   A    
C53   O2    A    
C48   Cl10  S    
C31   C32   A    
C3    C5    A    
C37   O28   S    
C61   H10   S    
C64   H21   S    
C37   O29   S    
C27   H34   S    
C52   O19   A    
C56   C67   A    
C4    O13   A    
C69   H35   S    
O9    Zn8   S    
C3    H4    S    
C72   O32   S    
O15   Zn3   S    
C2    C3    A    
C58   C59   A    
C63   O24   S    
C70   O30   S    
C60   H8    S    
C11   C13   A    
C70   H36   S    
C57   C58   A    
C5    C6    A    
C20   C26   A    
C9    O21   S    
O11   Zn7   S    
C69   H32   S    
C53   O9    A    
C33   C35   A    
C16   O14   A    
C61   O21   S    
C9    Cl3   S    
C15   C49   S    
C43   H51   S    
C65   H25   S    
C38   H50   S    
C1    O4    A    
C10   C11   A    
C68   H30   S    
C62   H14   S    
C29   H45   S    
C20   C21   A    
O36   Zn7   S    
C18   Cl5   S    
C62   O22   S    
C71   H40   S    
C9    C75   S    
C66   H27   S    
C73   O33   S    
C21   C22   A    
O1    Zn1   S    
C16   C41   S    
C65   H22   S    
C2    C75   A    
C68   H29   S    
C39   C48   S    
C47   H2    S    
