data_mof_unit_pretest_1773.cif
_audit_creation_date              2013-03-05T16:22:49-0500
_audit_creation_method            fapswitch 2.2
_symmetry_space_group_name_H-M    P1
_symmetry_Int_Tables_number       1
_space_group_crystal_system       triclinic
_cell_length_a                    30.70464
_cell_length_b                    29.130163
_cell_length_c                    30.578086
_cell_angle_alpha                 90.451989
_cell_angle_beta                  90.000011
_cell_angle_gamma                 89.994384
_cell_volume                      27349.142035

loop_
_atom_site_label
_atom_site_type_symbol
_atom_site_description
_atom_site_fract_x
_atom_site_fract_y
_atom_site_fract_z
_atom_type_partial_charge
O1    O     O_R   0.321670 0.000000 0.730060 -0.551643
O2    O     O_R   0.678330 0.000000 0.730060 -0.564412
O3    O     O_R   0.821670 0.500000 0.730060 -0.551890
O4    O     O_R   0.178330 0.500000 0.730060 -0.552186
O5    O     O_R   0.821670 0.000000 0.230060 -0.545646
O6    O     O_R   0.178330 0.000000 0.230060 -0.545175
O7    O     O_R   0.321670 0.500000 0.230060 -0.566644
O8    O     O_R   0.678330 0.500000 0.230060 -0.551736
O9    O     O_R   0.269940 0.000000 0.678340 -0.595292
O10   O     O_R   0.730060 0.000000 0.678340 -0.590579
O11   O     O_R   0.769940 0.500000 0.678340 -0.595271
O12   O     O_R   0.230060 0.500000 0.678340 -0.595170
O13   O     O_R   0.769940 0.000000 0.178340 -0.602230
O14   O     O_R   0.230060 0.000000 0.178340 -0.602552
O15   O     O_R   0.269940 0.500000 0.178340 -0.590323
O16   O     O_R   0.730060 0.500000 0.178340 -0.595444
C1    C     C_R   0.309751 0.999368 0.690089 0.986841
C2    C     C_R   0.690151 0.001545 0.690012 0.974194
C3    C     C_R   0.809743 0.499365 0.690083 0.986499
C4    C     C_R   0.190258 0.499362 0.690083 0.986141
C5    C     C_R   0.809802 0.999233 0.190115 0.971582
C6    C     C_R   0.190198 0.999228 0.190115 0.973037
C7    C     C_R   0.309849 0.501163 0.189994 0.990446
C8    C     C_R   0.690250 0.499362 0.190088 0.987123
O17   O     O_R   0.275870 0.936860 0.775860 -0.583778
O18   O     O_R   0.724130 0.063140 0.775860 -0.598465
O19   O     O_R   0.724130 0.936860 0.775860 -0.573740
O20   O     O_R   0.275870 0.063140 0.775860 -0.585498
O21   O     O_R   0.775870 0.436860 0.775860 -0.583435
O22   O     O_R   0.224130 0.563140 0.775860 -0.583637
O23   O     O_R   0.224130 0.436860 0.775860 -0.587088
O24   O     O_R   0.775870 0.563140 0.775860 -0.585063
O25   O     O_R   0.775870 0.936860 0.275860 -0.587328
O26   O     O_R   0.224130 0.063140 0.275860 -0.585424
O27   O     O_R   0.224130 0.936860 0.275860 -0.585027
O28   O     O_R   0.775870 0.063140 0.275860 -0.581659
O29   O     O_R   0.275870 0.436860 0.275860 -0.573774
O30   O     O_R   0.724130 0.563140 0.275860 -0.585569
O31   O     O_R   0.724130 0.436860 0.275860 -0.583511
O32   O     O_R   0.275870 0.563140 0.275860 -0.599553
O33   O     O_R   0.224140 0.936870 0.724140 -0.592413
O34   O     O_R   0.775860 0.063130 0.724140 -0.575449
O35   O     O_R   0.775860 0.936870 0.724140 -0.603004
O36   O     O_R   0.224140 0.063130 0.724140 -0.593912
O37   O     O_R   0.724140 0.436870 0.724140 -0.592135
O38   O     O_R   0.275860 0.563130 0.724140 -0.598317
O39   O     O_R   0.275860 0.436870 0.724140 -0.588216
O40   O     O_R   0.724140 0.563130 0.724140 -0.594896
O41   O     O_R   0.724140 0.936870 0.224140 -0.597515
O42   O     O_R   0.275860 0.063130 0.224140 -0.592452
O43   O     O_R   0.275860 0.936870 0.224140 -0.600542
O44   O     O_R   0.724140 0.063130 0.224140 -0.595588
O45   O     O_R   0.224140 0.436870 0.224140 -0.606573
O46   O     O_R   0.775860 0.563130 0.224140 -0.594239
O47   O     O_R   0.775860 0.436870 0.224140 -0.592708
O48   O     O_R   0.224140 0.563130 0.224140 -0.577308
C9    C     C_R   0.249969 0.914256 0.749891 0.890374
C10   C     C_R   0.750021 0.085746 0.750175 0.906494
C11   C     C_R   0.750017 0.914255 0.749874 0.875542
C12   C     C_R   0.249934 0.085745 0.750205 0.911633
C13   C     C_R   0.749975 0.414256 0.749885 0.891239
C14   C     C_R   0.250047 0.585745 0.750186 0.907027
C15   C     C_R   0.250048 0.414257 0.749907 0.890733
C16   C     C_R   0.749945 0.585744 0.750195 0.910945
C17   C     C_R   0.749884 0.914256 0.249968 0.869846
C18   C     C_R   0.250081 0.085744 0.250227 0.915423
C19   C     C_R   0.250096 0.914255 0.249942 0.873541
C20   C     C_R   0.749920 0.085745 0.250215 0.911937
C21   C     C_R   0.249931 0.414256 0.249925 0.893742
C22   C     C_R   0.750058 0.585745 0.250208 0.911516
C23   C     C_R   0.750032 0.414256 0.249889 0.890544
C24   C     C_R   0.249975 0.585745 0.250183 0.906389
Zn1   Zn    Zn3+2 0.284540 0.000000 0.784540 1.094992
Zn2   Zn    Zn3+2 0.715460 0.000000 0.784540 1.092849
Zn3   Zn    Zn3+2 0.784540 0.500000 0.784540 1.093370
Zn4   Zn    Zn3+2 0.215460 0.500000 0.784540 1.091811
Zn5   Zn    Zn3+2 0.784540 0.000000 0.284540 1.100109
Zn6   Zn    Zn3+2 0.215460 0.000000 0.284540 1.089804
Zn7   Zn    Zn3+2 0.284540 0.500000 0.284540 1.096404
Zn8   Zn    Zn3+2 0.715460 0.500000 0.284540 1.094966
Zn9   Zn    Zn3+2 0.215460 0.000000 0.715470 1.054945
Zn10  Zn    Zn3+2 0.784540 0.000000 0.715470 1.061026
Zn11  Zn    Zn3+2 0.715460 0.500000 0.715470 1.054581
Zn12  Zn    Zn3+2 0.284540 0.500000 0.715470 1.061575
Zn13  Zn    Zn3+2 0.715460 0.000000 0.215470 1.051678
Zn14  Zn    Zn3+2 0.284540 0.000000 0.215470 1.045252
Zn15  Zn    Zn3+2 0.215460 0.500000 0.215470 1.054209
Zn16  Zn    Zn3+2 0.784540 0.500000 0.215470 1.053565
O49   O     O_R   0.230060 0.000000 0.821670 -0.620739
O50   O     O_R   0.769940 0.000000 0.821670 -0.618151
O51   O     O_R   0.730060 0.500000 0.821670 -0.620156
O52   O     O_R   0.269940 0.500000 0.821670 -0.620869
O53   O     O_R   0.730060 0.000000 0.321670 -0.614355
O54   O     O_R   0.269940 0.000000 0.321670 -0.619189
O55   O     O_R   0.230060 0.500000 0.321670 -0.618105
O56   O     O_R   0.769940 0.500000 0.321670 -0.619933
O57   O     O_R   0.178330 0.000000 0.769950 -0.625595
O58   O     O_R   0.821670 0.000000 0.769950 -0.624860
O59   O     O_R   0.678330 0.500000 0.769950 -0.625330
O60   O     O_R   0.321670 0.500000 0.769950 -0.618349
O61   O     O_R   0.678330 0.000000 0.269950 -0.619653
O62   O     O_R   0.321670 0.000000 0.269950 -0.624320
O63   O     O_R   0.178330 0.500000 0.269950 -0.625914
O64   O     O_R   0.821670 0.500000 0.269950 -0.625715
C25   C     C_R   0.189980 0.999173 0.810158 0.839026
C26   C     C_R   0.810020 0.999174 0.810158 0.842133
C27   C     C_R   0.689986 0.499253 0.810164 0.839928
C28   C     C_R   0.309912 0.500293 0.809927 0.854871
C29   C     C_R   0.690095 0.000229 0.309926 0.840838
C30   C     C_R   0.310015 0.999250 0.310164 0.842204
C31   C     C_R   0.189986 0.499285 0.310165 0.840249
C32   C     C_R   0.810014 0.499286 0.310165 0.839106
C33   C     C_1   0.249861 0.863438 0.749749 -0.098658
C34   C     C_1   0.749854 0.136569 0.750237 -0.113880
C35   C     C_1   0.750141 0.863436 0.749746 -0.124265
C36   C     C_1   0.250095 0.136570 0.750257 -0.107727
C37   C     C_1   0.749875 0.363439 0.749740 -0.098241
C38   C     C_1   0.249880 0.636569 0.750225 -0.107096
C39   C     C_1   0.250165 0.363441 0.749780 -0.100795
C40   C     C_1   0.750115 0.636566 0.750246 -0.108761
C41   C     C_1   0.749595 0.863441 0.249969 -0.106425
C42   C     C_1   0.249913 0.136567 0.250300 -0.109327
C43   C     C_1   0.250371 0.863438 0.249916 -0.103511
C44   C     C_1   0.750071 0.136571 0.250262 -0.105588
C45   C     C_1   0.249768 0.363436 0.249835 -0.112283
C46   C     C_1   0.749858 0.636570 0.250282 -0.108191
C47   C     C_1   0.750136 0.363438 0.249744 -0.098760
C48   C     C_1   0.250172 0.636568 0.250262 -0.114399
C49   C     C_1   0.249840 0.821128 0.749735 0.069786
C50   C     C_1   0.749808 0.178881 0.750142 0.054164
C51   C     C_1   0.750181 0.821124 0.749765 0.058247
C52   C     C_1   0.250167 0.178882 0.750165 0.058926
C53   C     C_1   0.749857 0.321129 0.749732 0.069998
C54   C     C_1   0.249817 0.678880 0.750119 0.057259
C55   C     C_1   0.250185 0.321131 0.749781 0.068350
C56   C     C_1   0.750190 0.678876 0.750159 0.058058
C57   C     C_1   0.749509 0.821129 0.250013 0.075749
C58   C     C_1   0.249818 0.178877 0.250229 0.057008
C59   C     C_1   0.250452 0.821127 0.249950 0.077368
C60   C     C_1   0.750134 0.178881 0.250153 0.058520
C61   C     C_1   0.249732 0.321124 0.249862 0.056578
C62   C     C_1   0.749718 0.678881 0.250243 0.058567
C63   C     C_1   0.750148 0.321128 0.249736 0.069937
C64   C     C_1   0.250288 0.678880 0.250215 0.052903
C65   C     C_1   0.249821 0.771160 0.749821 0.061846
C66   C     C_1   0.749815 0.228850 0.749969 0.057109
C67   C     C_1   0.750208 0.771155 0.749876 0.057611
C68   C     C_1   0.250192 0.228851 0.750003 0.059447
C69   C     C_1   0.749836 0.271161 0.749832 0.061621
C70   C     C_1   0.249807 0.728848 0.749948 0.058356
C71   C     C_1   0.250192 0.271163 0.749877 0.062180
C72   C     C_1   0.750216 0.728844 0.750004 0.057243
C73   C     C_1   0.749532 0.771162 0.250084 0.061420
C74   C     C_1   0.249757 0.228845 0.250089 0.055577
C75   C     C_1   0.250435 0.771160 0.250025 0.060333
C76   C     C_1   0.750153 0.228849 0.249971 0.058913
C77   C     C_1   0.249733 0.271156 0.249970 0.054252
C78   C     C_1   0.749598 0.728850 0.250157 0.057940
C79   C     C_1   0.750151 0.271161 0.249834 0.062237
C80   C     C_1   0.250383 0.728848 0.250111 0.054737
C81   C     C_R   0.355759 0.960283 0.638566 -0.035527
C82   C     C_R   0.629339 0.967041 0.652762 -0.053440
C83   C     C_R   0.854896 0.460373 0.637753 -0.034701
C84   C     C_R   0.145100 0.460366 0.637765 -0.034437
C85   C     C_R   0.857465 0.960425 0.139800 -0.054286
C86   C     C_R   0.142534 0.960419 0.139807 -0.054891
C87   C     C_R   0.369724 0.465561 0.152048 -0.039237
C88   C     C_R   0.644339 0.460283 0.138479 -0.035925
C89   C     C_R   0.341652 0.001294 0.656904 -0.219956
C90   C     C_R   0.658033 0.003535 0.656568 -0.215285
C91   C     C_R   0.841601 0.501305 0.656861 -0.218548
C92   C     C_R   0.158399 0.501300 0.656861 -0.218394
C93   C     C_R   0.841910 0.001313 0.157101 -0.202318
C94   C     C_R   0.158089 0.001307 0.157102 -0.202785
C95   C     C_R   0.341915 0.502835 0.156507 -0.235095
C96   C     C_R   0.658354 0.501287 0.156899 -0.219673
C97   C     C_R   0.351921 0.043317 0.637151 0.233251
C98   C     C_R   0.660905 0.036109 0.622664 0.228861
C99   C     C_R   0.852472 0.543474 0.637711 0.232711
C100  C     C_R   0.147531 0.543467 0.637700 0.232472
C101  C     C_R   0.851043 0.043084 0.136288 0.236344
C102  C     C_R   0.148954 0.043077 0.136284 0.236835
C103  C     C_R   0.339579 0.536158 0.123248 0.218793
C104  C     C_R   0.648012 0.543327 0.137211 0.232955
C105  C     C_R   0.382441 0.043698 0.603030 0.213889
C106  C     C_R   0.630054 0.034611 0.588584 0.206700
C107  C     C_R   0.882899 0.543877 0.603500 0.213063
C108  C     C_R   0.117103 0.543869 0.603491 0.212956
C109  C     C_R   0.881521 0.043472 0.102071 0.211291
C110  C     C_R   0.118476 0.043466 0.102068 0.211747
C111  C     C_R   0.370351 0.534835 0.089171 0.217559
C112  C     C_R   0.617500 0.543711 0.103084 0.214369
C113  C     C_R   0.401991 0.001635 0.589574 -0.258957
C114  C     C_R   0.598040 0.999652 0.588797 -0.245578
C115  C     C_R   0.901894 0.501718 0.589490 -0.258279
C116  C     C_R   0.098105 0.501711 0.589491 -0.258364
C117  C     C_R   0.901545 0.001510 0.088981 -0.269799
C118  C     C_R   0.098456 0.001504 0.088980 -0.269752
C119  C     C_R   0.402132 0.499697 0.089053 -0.190733
C120  C     C_R   0.598014 0.501638 0.089569 -0.256132
C121  C     C_R   0.385786 0.960388 0.605485 0.002421
C122  C     C_R   0.600922 0.964035 0.618595 0.039585
C123  C     C_R   0.884964 0.460500 0.604717 -0.000371
C124  C     C_R   0.115033 0.460493 0.604728 0.000111
C125  C     C_R   0.886005 0.960297 0.105561 0.022194
C126  C     C_R   0.113996 0.960291 0.105565 0.021584
C127  C     C_R   0.399104 0.463719 0.118460 0.037626
C128  C     C_R   0.614302 0.460392 0.105408 0.001848
C129  C     C_3   0.408944 0.918697 0.621984 -0.477336
C130  C     C_3   0.566603 0.940366 0.644976 -0.496822
C131  C     C_3   0.907230 0.417941 0.620429 -0.475577
C132  C     C_3   0.092764 0.417945 0.620452 -0.475592
C133  C     C_3   0.909223 0.918086 0.120762 -0.464615
C134  C     C_3   0.090777 0.918088 0.120769 -0.464547
C135  C     C_3   0.433705 0.441412 0.145447 -0.528023
C136  C     C_3   0.591242 0.418612 0.121828 -0.477045
C137  C     C_3   0.375723 0.918633 0.659145 0.484710
C138  C     C_3   0.597860 0.944765 0.683711 0.505594
C139  C     C_3   0.873907 0.417809 0.657513 0.484988
C140  C     C_3   0.126085 0.417815 0.657536 0.484661
C141  C     C_3   0.878101 0.918659 0.159737 0.480055
C142  C     C_3   0.121894 0.918660 0.159747 0.480937
C143  C     C_3   0.401407 0.444062 0.183325 0.514093
C144  C     C_3   0.624482 0.418535 0.158973 0.485941
H1    H     H_    0.405679 0.889248 0.598861 0.219075
H2    H     H_    0.536423 0.961290 0.648163 0.204262
H3    H     H_    0.561019 0.904556 0.633490 0.235636
H4    H     H_    0.442971 0.926133 0.632322 0.216114
H5    H     H_    0.903435 0.389078 0.596724 0.217099
H6    H     H_    0.058632 0.424409 0.631014 0.222482
H7    H     H_    0.096556 0.389073 0.596755 0.217309
H8    H     H_    0.941361 0.424391 0.630994 0.222526
H9    H     H_    0.904485 0.888665 0.097887 0.225106
H10   H     H_    0.056188 0.925049 0.129441 0.209873
H11   H     H_    0.095519 0.888662 0.097898 0.224777
H12   H     H_    0.943811 0.925040 0.129440 0.209854
H13   H     H_    0.440635 0.405902 0.133793 0.227275
H14   H     H_    0.557205 0.425951 0.132199 0.216175
H15   H     H_    0.594559 0.389224 0.098642 0.219057
H16   H     H_    0.463112 0.463348 0.149459 0.216665
C145  C     C_R   0.168390 0.002131 0.887096 0.104560
C146  C     C_R   0.831610 0.002130 0.887097 0.105624
C147  C     C_R   0.668276 0.503161 0.887042 0.105815
C148  C     C_R   0.349633 0.461037 0.866973 0.074719
C149  C     C_R   0.650226 0.960950 0.366869 0.042439
C150  C     C_R   0.331713 0.003095 0.387047 0.105386
C151  C     C_R   0.168193 0.503617 0.387004 0.106146
C152  C     C_R   0.831808 0.503634 0.387003 0.105257
C153  C     C_R   0.157402 0.994898 0.843360 -0.079258
C154  C     C_R   0.842600 0.994904 0.843360 -0.080323
C155  C     C_R   0.657433 0.495093 0.843391 -0.079925
C156  C     C_R   0.343129 0.500046 0.842030 -0.054927
C157  C     C_R   0.656910 0.000006 0.342047 -0.024888
C158  C     C_R   0.342570 0.995087 0.343389 -0.079799
C159  C     C_R   0.157431 0.495174 0.343394 -0.078939
C160  C     C_R   0.842570 0.495179 0.343394 -0.078433
C161  C     C_R   0.114516 0.982367 0.832421 -0.183215
C162  C     C_R   0.885490 0.982382 0.832419 -0.182093
C163  C     C_R   0.614762 0.481670 0.832589 -0.183400
C164  C     C_R   0.373055 0.536265 0.843879 -0.195289
C165  C     C_R   0.627212 0.036421 0.344139 -0.187450
C166  C     C_R   0.385260 0.981731 0.332578 -0.184174
C167  C     C_R   0.114857 0.481368 0.332642 -0.183414
C168  C     C_R   0.885145 0.481366 0.332644 -0.183706
H17   H     H_    0.105587 0.973423 0.799162 0.173703
H18   H     H_    0.894422 0.973443 0.799160 0.173744
H19   H     H_    0.606010 0.472070 0.799443 0.175279
H20   H     H_    0.370118 0.565373 0.822222 0.156252
H21   H     H_    0.630247 0.065600 0.322582 0.151005
H22   H     H_    0.394027 0.972178 0.299424 0.173909
H23   H     H_    0.106195 0.471485 0.299546 0.172738
H24   H     H_    0.893806 0.471475 0.299549 0.172963
C169  C     C_R   0.082338 0.983639 0.864451 -0.175994
C170  C     C_R   0.917668 0.983657 0.864449 -0.175628
C171  C     C_R   0.582554 0.482822 0.864590 -0.171756
C172  C     C_R   0.405339 0.536089 0.875764 -0.176878
C173  C     C_R   0.594992 0.036292 0.376093 -0.149690
C174  C     C_R   0.417464 0.982892 0.364582 -0.176916
C175  C     C_R   0.082623 0.482472 0.364619 -0.177080
C176  C     C_R   0.917379 0.482472 0.364620 -0.177288
H25   H     H_    0.049026 0.975086 0.855956 0.137994
H26   H     H_    0.950983 0.975109 0.855953 0.137916
H27   H     H_    0.549387 0.473581 0.856180 0.150506
H28   H     H_    0.427144 0.565194 0.878637 0.176535
H29   H     H_    0.573281 0.065472 0.379048 0.168826
H30   H     H_    0.450644 0.973702 0.356166 0.145574
H31   H     H_    0.049519 0.472942 0.356240 0.138229
H32   H     H_    0.950483 0.472934 0.356242 0.138287
C177  C     C_R   0.093072 0.998792 0.906620 -0.089455
C178  C     C_R   0.906929 0.998801 0.906619 -0.089587
C179  C     C_R   0.593020 0.498752 0.906573 -0.090361
C180  C     C_R   0.407990 0.499080 0.904732 -0.152511
C181  C     C_R   0.592228 0.999196 0.404969 -0.099087
C182  C     C_R   0.406974 0.998765 0.406578 -0.090411
C183  C     C_R   0.092962 0.498736 0.406520 -0.089667
C184  C     C_R   0.907040 0.498745 0.406519 -0.089574
C185  C     C_R   0.136405 0.005293 0.918157 -0.107334
C186  C     C_R   0.863594 0.005293 0.918158 -0.106618
C187  C     C_R   0.636234 0.506167 0.918050 -0.105760
C188  C     C_R   0.381736 0.460511 0.898177 0.134628
C189  C     C_R   0.618359 0.960564 0.398273 -0.034765
C190  C     C_R   0.363749 0.006112 0.418060 -0.106131
C191  C     C_R   0.136117 0.506556 0.417980 -0.105634
C192  C     C_R   0.863885 0.506573 0.417978 -0.106044
C193  C     C_3   0.159591 0.042841 0.942794 -0.132917
C194  C     C_3   0.840397 0.042836 0.942799 -0.135230
C195  C     C_3   0.658798 0.544363 0.942342 -0.131930
C196  C     C_3   0.354088 0.433259 0.929296 -0.103086
C197  C     C_3   0.645562 0.932370 0.428904 -0.108800
C198  C     C_3   0.341133 0.044261 0.442378 -0.132142
C199  C     C_3   0.158383 0.545057 0.442104 -0.132688
C200  C     C_3   0.841618 0.545081 0.442097 -0.131942
C201  C     C_3   0.195685 0.038433 0.908431 -0.421461
C202  C     C_3   0.804304 0.038427 0.908435 -0.420163
C203  C     C_3   0.694942 0.540243 0.907979 -0.424715
C204  C     C_3   0.318529 0.434091 0.894215 -0.633546
C205  C     C_3   0.681101 0.933142 0.393548 -0.477200
C206  C     C_3   0.304994 0.040121 0.408014 -0.424196
C207  C     C_3   0.194560 0.541056 0.407756 -0.425605
C208  C     C_3   0.805443 0.541083 0.407748 -0.425811
H33   H     H_    0.199856 0.069011 0.887227 0.191630
H34   H     H_    0.773213 0.024030 0.920988 0.225849
H35   H     H_    0.800125 0.069007 0.887234 0.192013
H36   H     H_    0.226781 0.024040 0.920984 0.224993
H37   H     H_    0.698549 0.570645 0.886446 0.190480
H38   H     H_    0.311314 0.400105 0.879023 0.210512
H39   H     H_    0.289013 0.454264 0.903152 0.225005
H40   H     H_    0.726297 0.526614 0.920655 0.226330
H41   H     H_    0.710995 0.952825 0.402018 0.256567
H42   H     H_    0.273659 0.026437 0.420679 0.226371
H43   H     H_    0.301343 0.070537 0.386505 0.190491
H44   H     H_    0.687731 0.899236 0.377937 0.180098
H45   H     H_    0.197919 0.571366 0.386066 0.189939
H46   H     H_    0.773978 0.527820 0.420497 0.226777
H47   H     H_    0.802084 0.571389 0.386053 0.189888
H48   H     H_    0.226024 0.527783 0.420503 0.227287
O65   O     O_R   0.954170 0.964330 0.954180 -0.612676
O66   O     O_R   0.045830 0.035670 0.954180 -0.634967
O67   O     O_R   0.045830 0.964330 0.954180 -0.613029
O68   O     O_R   0.954170 0.035670 0.954180 -0.635037
O69   O     O_R   0.454170 0.464330 0.954180 -0.587232
O70   O     O_R   0.545830 0.535670 0.954180 -0.642882
O71   O     O_R   0.545830 0.464330 0.954180 -0.608429
O72   O     O_R   0.454170 0.535670 0.954180 -0.606164
O73   O     O_R   0.454170 0.964330 0.454180 -0.611597
O74   O     O_R   0.545830 0.035670 0.454180 -0.593481
O75   O     O_R   0.545830 0.964330 0.454180 -0.635561
O76   O     O_R   0.454170 0.035670 0.454180 -0.639749
O77   O     O_R   0.954170 0.464330 0.454180 -0.613600
O78   O     O_R   0.045830 0.535670 0.454180 -0.635675
O79   O     O_R   0.045830 0.464330 0.454180 -0.613426
O80   O     O_R   0.954170 0.535670 0.454180 -0.635627
C209  C     C_R   0.939367 0.999845 0.939410 0.868996
C210  C     C_R   0.060632 0.999842 0.939410 0.868886
C211  C     C_R   0.438829 0.499832 0.939624 0.931942
C212  C     C_R   0.560515 0.499835 0.939294 0.863569
C213  C     C_R   0.439472 0.999838 0.439307 0.868092
C214  C     C_R   0.561131 0.999848 0.439603 0.884781
C215  C     C_R   0.939578 0.499835 0.439203 0.868157
C216  C     C_R   0.060423 0.499832 0.439204 0.868214
O81   O     O_R   0.454180 0.964360 0.545790 -0.625914
O82   O     O_R   0.545820 0.035640 0.545790 -0.572631
O83   O     O_R   0.545820 0.964360 0.545790 -0.621062
O84   O     O_R   0.454180 0.035640 0.545790 -0.577853
O85   O     O_R   0.954180 0.464360 0.545790 -0.626389
O86   O     O_R   0.045820 0.535640 0.545790 -0.572207
O87   O     O_R   0.045820 0.464360 0.545790 -0.626304
O88   O     O_R   0.954180 0.535640 0.545790 -0.572195
O89   O     O_R   0.954180 0.964360 0.045790 -0.627655
O90   O     O_R   0.045820 0.035640 0.045790 -0.571012
O91   O     O_R   0.045820 0.964360 0.045790 -0.627832
O92   O     O_R   0.954180 0.035640 0.045790 -0.571096
O93   O     O_R   0.454180 0.464360 0.045790 -0.610499
O94   O     O_R   0.545820 0.535640 0.045790 -0.579695
O95   O     O_R   0.545820 0.464360 0.045790 -0.630164
O96   O     O_R   0.454180 0.535640 0.045790 -0.582814
C217  C     C_R   0.438480 0.000385 0.560153 0.938286
C218  C     C_R   0.561846 0.000063 0.559502 0.964081
C219  C     C_R   0.938449 0.500392 0.560130 0.948136
C220  C     C_R   0.061551 0.500389 0.560131 0.948140
C221  C     C_R   0.938176 0.000368 0.059779 0.947493
C222  C     C_R   0.061825 0.000366 0.059779 0.947517
C223  C     C_R   0.438239 0.500078 0.059618 0.989924
C224  C     C_R   0.561519 0.500383 0.060155 0.932226
Zn17  Zn    Zn3+2 0.000000 0.952400 0.999990 1.004646
Zn18  Zn    Zn3+2 0.000000 0.047600 0.999990 1.108260
Zn19  Zn    Zn3+2 0.500000 0.452400 0.999990 1.063627
Zn20  Zn    Zn3+2 0.500000 0.547600 0.999990 1.111541
Zn21  Zn    Zn3+2 0.500000 0.952400 0.499990 1.026393
Zn22  Zn    Zn3+2 0.500000 0.047600 0.499990 1.112607
Zn23  Zn    Zn3+2 1.000000 0.452400 0.499990 1.004665
Zn24  Zn    Zn3+2 0.000000 0.547600 0.499990 1.111165
N1    N     N_R   0.332880 0.085492 0.652592 0.221655
O97   O     O_R   0.335089 0.096632 0.693804 -0.376809
O98   O     O_R   0.315714 0.114185 0.625124 -0.279331
N2    N     N_R   0.693690 0.071302 0.623563 0.242315
O99   O     O_R   0.699549 0.096156 0.658597 -0.380286
O100  O     O_R   0.717094 0.079348 0.588988 -0.283913
N3    N     N_R   0.834057 0.585713 0.653769 0.220541
O101  O     O_R   0.836427 0.596167 0.695131 -0.376110
O102  O     O_R   0.817229 0.615079 0.626741 -0.282013
N4    N     N_R   0.165949 0.585705 0.653748 0.220728
O103  O     O_R   0.163579 0.596172 0.695107 -0.375818
O104  O     O_R   0.182778 0.615059 0.626711 -0.280871
N5    N     N_R   0.831073 0.085099 0.150884 0.222909
O105  O     O_R   0.833038 0.097186 0.191872 -0.377070
O106  O     O_R   0.813394 0.112810 0.122832 -0.278414
N6    N     N_R   0.168923 0.085091 0.150875 0.222723
O107  O     O_R   0.166966 0.097179 0.191863 -0.377503
O108  O     O_R   0.186596 0.112797 0.122819 -0.282127
N7    N     N_R   0.307305 0.571859 0.124778 0.242150
O109  O     O_R   0.302177 0.596490 0.160069 -0.382643
O110  O     O_R   0.283686 0.580609 0.090512 -0.301044
N8    N     N_R   0.666979 0.585510 0.152718 0.221459
O111  O     O_R   0.664751 0.596577 0.193947 -0.377640
O112  O     O_R   0.684105 0.614275 0.125297 -0.280423
N9    N     N_R   0.395896 0.086878 0.585295 0.251981
O113  O     O_R   0.386738 0.096933 0.544977 -0.329938
O114  O     O_R   0.413236 0.117983 0.610611 -0.285558
N10   N     N_R   0.629965 0.069523 0.555638 0.248298
O115  O     O_R   0.629619 0.058259 0.514387 -0.382875
O116  O     O_R   0.630756 0.112718 0.566771 -0.283431
N11   N     N_R   0.896773 0.587090 0.586166 0.252675
O117  O     O_R   0.887345 0.597822 0.546070 -0.325648
O118  O     O_R   0.914725 0.617609 0.611695 -0.277370
N12   N     N_R   0.103228 0.587082 0.586151 0.252676
O119  O     O_R   0.112656 0.597806 0.546053 -0.325709
O120  O     O_R   0.085276 0.617608 0.611676 -0.277218
N13   N     N_R   0.894451 0.086626 0.083876 0.253937
O121  O     O_R   0.886141 0.095669 0.043157 -0.334918
O122  O     O_R   0.910702 0.118559 0.108989 -0.278712
N14   N     N_R   0.105541 0.086620 0.083871 0.253787
O123  O     O_R   0.113852 0.095663 0.043154 -0.335594
O124  O     O_R   0.089285 0.118554 0.108984 -0.279766
N15   N     N_R   0.370655 0.570125 0.056594 0.243758
O125  O     O_R   0.371092 0.559318 0.015237 -0.393544
O126  O     O_R   0.370217 0.613204 0.068164 -0.287204
N16   N     N_R   0.603993 0.586897 0.085394 0.252113
O127  O     O_R   0.613188 0.597030 0.045102 -0.329620
O128  O     O_R   0.586578 0.617936 0.110734 -0.286508
N17   N     N_R   0.347131 0.878307 0.658227 0.208378
O129  O     O_R   0.363503 0.837585 0.663872 -0.323759
O130  O     O_R   0.305149 0.882872 0.654229 -0.392687
N18   N     N_R   0.580134 0.974769 0.718332 0.221018
O131  O     O_R   0.550471 0.958711 0.744468 -0.275516
O132  O     O_R   0.587323 0.018809 0.718316 -0.352170
N19   N     N_R   0.614347 0.900833 0.700201 0.200375
O133  O     O_R   0.628304 0.869394 0.673134 -0.369563
O134  O     O_R   0.619729 0.894793 0.741978 -0.317338
N20   N     N_R   0.394661 0.927543 0.702535 0.206429
O135  O     O_R   0.382617 0.903401 0.736059 -0.309785
O136  O     O_R   0.422223 0.961003 0.708408 -0.343786
N21   N     N_R   0.844462 0.378198 0.655698 0.207788
O137  O     O_R   0.859959 0.336963 0.660425 -0.324033
O138  O     O_R   0.802575 0.383869 0.651988 -0.392143
N22   N     N_R   0.107115 0.425318 0.701140 0.205296
O139  O     O_R   0.078971 0.458082 0.707790 -0.345668
O140  O     O_R   0.119744 0.400682 0.734118 -0.314924
N23   N     N_R   0.155528 0.378195 0.655734 0.208067
O141  O     O_R   0.140028 0.336966 0.660470 -0.324218
O142  O     O_R   0.197416 0.383854 0.652033 -0.390140
N24   N     N_R   0.892878 0.425293 0.701118 0.205271
O143  O     O_R   0.921022 0.458048 0.707779 -0.345580
O144  O     O_R   0.880250 0.400647 0.734088 -0.313921
N25   N     N_R   0.848108 0.879389 0.160970 0.195999
O145  O     O_R   0.825772 0.867829 0.126402 -0.368291
O146  O     O_R   0.841387 0.857460 0.197255 -0.345758
N26   N     N_R   0.098649 0.926398 0.201274 0.211761
O147  O     O_R   0.077180 0.892606 0.218623 -0.284562
O148  O     O_R   0.091819 0.967730 0.216220 -0.345303
N27   N     N_R   0.151884 0.879382 0.160990 0.195712
O149  O     O_R   0.174240 0.867825 0.126433 -0.370958
O150  O     O_R   0.158566 0.857428 0.197268 -0.346282
N28   N     N_R   0.901339 0.926385 0.201268 0.211828
O151  O     O_R   0.922786 0.892580 0.218628 -0.284432
O152  O     O_R   0.908192 0.967715 0.216205 -0.345068
N29   N     N_R   0.387659 0.398766 0.198716 0.219285
O153  O     O_R   0.346770 0.386987 0.198220 -0.399988
O154  O     O_R   0.416211 0.370862 0.215303 -0.306119
N30   N     N_R   0.605550 0.427294 0.202392 0.206261
O155  O     O_R   0.617660 0.403089 0.235853 -0.310089
O156  O     O_R   0.577932 0.460691 0.208359 -0.348877
N31   N     N_R   0.653169 0.378280 0.157951 0.208309
O157  O     O_R   0.695141 0.382957 0.153971 -0.392653
O158  O     O_R   0.636894 0.337503 0.163501 -0.322778
N32   N     N_R   0.415334 0.474836 0.218987 0.218695
O159  O     O_R   0.413375 0.461490 0.259455 -0.289562
O160  O     O_R   0.428866 0.516220 0.210655 -0.356235
C225  C     C_2   0.137237 0.088972 0.941789 0.523796
H49   H     H_    0.105538 0.092866 0.926638 0.065204
O161  O     O_2   0.155320 0.122864 0.956941 -0.461910
C226  C     C_2   0.827409 0.027979 0.988033 0.568107
H50   H     H_    0.847007 0.003048 0.005431 0.016954
O162  O     O_2   0.795672 0.044864 0.006050 -0.483818
C227  C     C_2   0.862739 0.088970 0.941798 0.524785
H51   H     H_    0.894440 0.092867 0.926654 0.065097
O163  O     O_2   0.844643 0.122860 0.956946 -0.459093
C228  C     C_2   0.172585 0.027989 0.988030 0.566619
H52   H     H_    0.152993 0.003058 0.005431 0.016939
O164  O     O_2   0.204318 0.044877 0.006044 -0.485585
C229  C     C_2   0.635646 0.590043 0.940947 0.518167
H53   H     H_    0.604568 0.593484 0.924443 0.063942
O165  O     O_2   0.652494 0.624129 0.957123 -0.459589
C230  C     C_2   0.371153 0.385437 0.937709 0.551818
H54   H     H_    0.349549 0.359841 0.951455 0.081205
O166  O     O_2   0.408872 0.375118 0.929594 -0.547527
C231  C     C_2   0.341722 0.459569 0.970303 0.401753
H55   H     H_    0.327260 0.493435 0.967616 0.129733
O167  O     O_2   0.347807 0.443499 0.006567 -0.552750
C232  C     C_2   0.671971 0.530150 0.987721 0.572341
H56   H     H_    0.652291 0.505685 0.005613 0.015220
O168  O     O_2   0.703914 0.547093 0.005308 -0.486145
C233  C     C_2   0.656865 0.957225 0.471148 0.611367
H57   H     H_    0.631087 0.966433 0.493804 0.058253
O169  O     O_2   0.694528 0.966104 0.480849 -0.521155
C234  C     C_2   0.327975 0.029999 0.487747 0.571919
H58   H     H_    0.347669 0.005520 0.505612 0.015111
O170  O     O_2   0.296029 0.046916 0.505356 -0.485639
C235  C     C_2   0.364220 0.089973 0.441015 0.518618
H59   H     H_    0.395346 0.093446 0.424612 0.063928
O171  O     O_2   0.347274 0.124046 0.457118 -0.459313
C236  C     C_2   0.626085 0.885323 0.435581 0.432786
H60   H     H_    0.615637 0.865133 0.407477 0.080757
O172  O     O_2   0.621740 0.869396 0.472157 -0.534702
C237  C     C_2   0.134862 0.590519 0.440501 0.516365
H61   H     H_    0.104124 0.593761 0.423324 0.064727
O173  O     O_2   0.151077 0.624676 0.457193 -0.458641
C238  C     C_2   0.828369 0.531194 0.487549 0.573399
H62   H     H_    0.847986 0.506803 0.505604 0.014108
O174  O     O_2   0.796443 0.548324 0.505008 -0.486160
C239  C     C_2   0.865140 0.590538 0.440488 0.516505
H63   H     H_    0.895873 0.593773 0.423302 0.064588
O175  O     O_2   0.848931 0.624699 0.457185 -0.458171
C240  C     C_2   0.171632 0.531160 0.487555 0.574287
H64   H     H_    0.152017 0.506768 0.505605 0.014234
O176  O     O_2   0.203556 0.548285 0.505018 -0.485891

loop_
_geom_bond_atom_site_label_1
_geom_bond_atom_site_label_2
_geom_bond_distance
_ccdc_geom_bond_type
Zn16  O64   2.018654 S    
N23   O141  1.301068 A    
C25   C153  1.431371 S    
O29   C21   1.299484 A    
C50   C66   1.455654 S    
C130  H2    1.112965 S    
C227  H51   1.084264 S    
C170  H26   1.083876 S    
C68   C71   1.232601 T    
C112  N16   1.434503 S    
N30   O155  1.301386 A    
O34   C10   1.299566 A    
O24   Zn3   1.879325 S    
C82   C138  1.503578 S    
C193  C228  1.506327 S    
C85   C141  1.504953 S    
C83   C123  1.368530 A    
O94   C224  1.219482 A    
O38   C14   1.299274 A    
O68   C209  1.221588 A    
C191  C199  1.502159 S    
N10   O115  1.300887 A    
N2    O100  1.301153 A    
C81   C137  1.501865 S    
C192  C200  1.502156 S    
C207  H45   1.113257 S    
C30   C158  1.431098 S    
N24   O144  1.301394 A    
C231  O167  1.221423 D    
C115  C123  1.391973 A    
C157  C165  1.399843 A    
C144  N31   1.466673 S    
C113  C121  1.391900 A    
O12   Zn12  2.021701 S    
C96   C104  1.405185 A    
C121  C129  1.498194 S    
O47   Zn16  1.879093 S    
C193  C225  1.509427 S    
C84   C124  1.368539 A    
O86   C220  1.219438 A    
C239  H63   1.084597 S    
C238  H62   1.085608 S    
O48   C24   1.299709 A    
C88   C128  1.368682 A    
O3    C3    1.276110 A    
O66   Zn18  2.013796 S    
O70   C212  1.221717 A    
C49   C65   1.455585 S    
C203  H40   1.112253 S    
C3    C91   1.411723 S    
O57   C25   1.280880 A    
C22   C46   1.480525 S    
C37   C53   1.232496 T    
C120  C128  1.391888 A    
N8    O112  1.301107 A    
C34   C50   1.232568 T    
C169  C177  1.398974 A    
C62   C78   1.455644 S    
C133  H9    1.111538 S    
O20   Zn1   1.879325 S    
C14   C38   1.480505 S    
C56   C72   1.455613 S    
C2    C90   1.422179 S    
C31   C159  1.431029 S    
C16   C40   1.480457 S    
C86   C94   1.384441 A    
C131  H8    1.112229 S    
C194  C202  1.531877 S    
O51   C27   1.279914 A    
C161  H17   1.083114 S    
O68   Zn18  2.013845 S    
O36   Zn9   1.874992 S    
C132  C140  1.527335 S    
C204  H39   1.112955 S    
C205  H41   1.111782 S    
C149  C157  1.387893 A    
O10   Zn10  2.021701 S    
C52   C68   1.455661 S    
C136  C144  1.527029 S    
C147  C187  1.368687 A    
N25   O146  1.301102 A    
O22   Zn4   1.879376 S    
O46   C22   1.299474 A    
C108  N12   1.434445 S    
O12   C4    1.273953 A    
C228  H52   1.085629 S    
C57   C73   1.455565 S    
C47   C63   1.232498 T    
C63   C79   1.455579 S    
C48   C64   1.232553 T    
O14   Zn14  2.021699 S    
O89   Zn17  2.013519 S    
O76   C213  1.221708 A    
C60   C76   1.455636 S    
O38   Zn12  1.874940 S    
C61   C77   1.455611 S    
N14   O123  1.299967 A    
C4    C92   1.411715 S    
C159  C167  1.405952 A    
C5    C93   1.412665 S    
C160  C168  1.405950 A    
O72   Zn20  2.013845 S    
O75   C214  1.223620 A    
O5    Zn5   2.018652 S    
C8    C96   1.411783 S    
C230  H54   1.085206 S    
C156  C164  1.399977 A    
C134  H11   1.111540 S    
O7    Zn7   2.018652 S    
O91   Zn17  2.013564 S    
C109  C117  1.422877 A    
N3    O102  1.301103 A    
C151  C191  1.368653 A    
C152  C192  1.368656 A    
O85   C219  1.232857 A    
C234  H58   1.085633 S    
C19   C43   1.480322 S    
C200  C208  1.532514 S    
O28   C20   1.300553 A    
N1    O97   1.300589 A    
O27   Zn6   1.875225 S    
O58   C26   1.280880 A    
C138  N19   1.469127 S    
C136  H14   1.112368 S    
O31   Zn8   1.875225 S    
C26   C154  1.431374 S    
C177  C185  1.389112 A    
N29   O154  1.301115 A    
N5    O105  1.300548 A    
O46   Zn16  1.874941 S    
C187  C195  1.502284 S    
N28   O151  1.301268 A    
O65   C209  1.219893 A    
O10   C2    1.277001 A    
O37   C13   1.300393 A    
C175  C183  1.399045 A    
C112  C120  1.422313 A    
N32   O159  1.301382 A    
O40   C16   1.299345 A    
O33   C9    1.300390 A    
C98   C106  1.408709 A    
C229  O165  1.220870 D    
O5    C5    1.274674 A    
C199  C240  1.506571 S    
O13   Zn13  2.021699 S    
O31   C23   1.299391 A    
C240  H64   1.085607 S    
C102  C110  1.403838 A    
C88   C96   1.385149 A    
C33   C49   1.232500 T    
C85   C125  1.365291 A    
O47   C23   1.300413 A    
C129  C137  1.526987 S    
N15   O126  1.301183 A    
C83   C139  1.501608 S    
N20   O136  1.302256 A    
C162  C170  1.391488 A    
C147  C203  1.495444 S    
O87   Zn23  2.013564 S    
C94   C102  1.405899 A    
O23   Zn4   1.875225 S    
C193  C201  1.531874 S    
N13   O121  1.299969 A    
N23   O142  1.301734 A    
C122  C130  1.498472 S    
C82   C122  1.363470 A    
C198  C235  1.509456 S    
O63   C31   1.281045 A    
C239  O175  1.220863 D    
Zn6   O54   2.021701 S    
N27   O150  1.301096 A    
C181  C214  1.425946 S    
O74   Zn22  2.013796 S    
C167  C175  1.391459 A    
O6    Zn6   2.018651 S    
C64   C80   1.455631 S    
N3    O101  1.300614 A    
C174  C182  1.399018 A    
C43   C59   1.232555 T    
C109  N13   1.434760 S    
C177  C210  1.413470 S    
C41   C57   1.232550 T    
C73   C78   1.232585 T    
C149  C205  1.493548 S    
C102  N6    1.436789 S    
O52   C28   1.278820 A    
C45   C61   1.232543 T    
C141  N28   1.472442 S    
O78   Zn24  2.013796 S    
C51   C67   1.455630 S    
C135  H13   1.111923 S    
C129  H4    1.112369 S    
O27   C19   1.299629 A    
C164  H20   1.083751 S    
C171  H27   1.083809 S    
C165  H21   1.083762 S    
C65   C70   1.232586 T    
C38   C54   1.232549 T    
Zn3   O51   2.021699 S    
C81   C89   1.385129 A    
C167  H23   1.083145 S    
C237  H61   1.084595 S    
O81   C217  1.232540 A    
C99   C107  1.402675 A    
O66   C210  1.221589 A    
C123  C131  1.498164 S    
O37   Zn11  1.879041 S    
C133  C141  1.527552 S    
C131  H5    1.111907 S    
C89   C97   1.405189 A    
N9    O114  1.301054 A    
O20   C12   1.300486 A    
O94   Zn20  2.017336 S    
C141  N25   1.469358 S    
O21   C13   1.299407 A    
N7    O110  1.301148 A    
O60   C28   1.274574 A    
C197  C233  1.516078 S    
O23   C15   1.299346 A    
O44   C20   1.299286 A    
O24   C16   1.300447 A    
C84   C140  1.501606 S    
O64   C32   1.281042 A    
C9    C33   1.480307 S    
C172  H28   1.083378 S    
O45   C21   1.300315 A    
C173  H29   1.083386 S    
N18   O131  1.301164 A    
C233  O169  1.221101 D    
C175  H31   1.083878 S    
C15   C39   1.480260 S    
O65   Zn17  2.017608 S    
N31   O157  1.301728 A    
C36   C52   1.232563 T    
C59   C75   1.455558 S    
C145  C201  1.495175 S    
O79   Zn23  2.017653 S    
O32   Zn7   1.879325 S    
C117  C221  1.436319 S    
O45   Zn15  1.879042 S    
O43   C19   1.300200 A    
C170  C178  1.398971 A    
C119  C223  1.428131 S    
O56   C32   1.279893 A    
C151  C207  1.495573 S    
C152  C208  1.495576 S    
C208  H47   1.113255 S    
C206  H43   1.113264 S    
C12   C36   1.480544 S    
C195  C203  1.532356 S    
C181  C189  1.395828 A    
Zn14  O62   2.018654 S    
O79   C216  1.219648 A    
C148  C188  1.372047 A    
C183  C191  1.388974 A    
N4    O103  1.300614 A    
C149  C189  1.371078 A    
C235  O171  1.220875 D    
O32   C24   1.300122 A    
C111  N15   1.437126 S    
O73   C213  1.219724 A    
O96   Zn20  2.017386 S    
C106  C114  1.415516 A    
N30   O156  1.302253 A    
C131  C139  1.527328 S    
O1    C1    1.275862 A    
O40   Zn11  1.874992 S    
C106  N10   1.437131 S    
O14   C6    1.276067 A    
N10   O116  1.301175 A    
C168  C176  1.391456 A    
C103  N7    1.436899 S    
C126  C134  1.498338 S    
C186  C194  1.502624 S    
O7    C7    1.278484 A    
Zn2   O50   2.021699 S    
C176  C184  1.399043 A    
O17   Zn1   1.875277 S    
O78   C216  1.221767 A    
C196  C231  1.512812 S    
C98   N2    1.436969 S    
O72   C211  1.225796 A    
C84   C92   1.385149 A    
C236  H60   1.085992 S    
C93   C101  1.405905 A    
C164  C172  1.390428 A    
O92   Zn18  2.017386 S    
N26   O147  1.301270 A    
C158  C166  1.405938 A    
C238  O174  1.220918 D    
O49   C25   1.280175 A    
C10   C34   1.480488 S    
C104  N8    1.436956 S    
N17   O130  1.301727 A    
C58   C74   1.455603 S    
C115  C219  1.437601 S    
C162  H18   1.083115 S    
O30   C22   1.300348 A    
Zn10  O58   2.018649 S    
C117  C125  1.391285 A    
C178  C186  1.389107 A    
C86   C142  1.504975 S    
C105  N9    1.434512 S    
C183  C216  1.413338 S    
N11   O118  1.301048 A    
O11   C3    1.273953 A    
C87   C95   1.387123 A    
O88   Zn24  2.017386 S    
O67   Zn17  2.017653 S    
O28   Zn5   1.879325 S    
O39   C15   1.300434 A    
O90   C222  1.219478 A    
C32   C160  1.431026 S    
C7    C95   1.421659 S    
N12   O119  1.300305 A    
O61   C29   1.274630 A    
C197  C236  1.510669 S    
O6    C6    1.274672 A    
C97   C105  1.402495 A    
C226  H50   1.085629 S    
C184  C192  1.388971 A    
C18   C42   1.480489 S    
O71   Zn19  2.017653 S    
C190  C198  1.502304 S    
N21   O138  1.301733 A    
C11   C35   1.480353 S    
N16   O127  1.300192 A    
O74   C214  1.225096 A    
Zn13  O61   2.018654 S    
C100  C108  1.402665 A    
C155  C163  1.405934 A    
C101  C109  1.403845 A    
O67   C210  1.219898 A    
C199  C207  1.532511 S    
C228  O164  1.220927 D    
C104  C112  1.402496 A    
C163  C171  1.391439 A    
C17   C41   1.480294 S    
C83   C91   1.385147 A    
O95   C224  1.232591 A    
C92   C100  1.405237 A    
N14   O124  1.301087 A    
C21   C45   1.480393 S    
C114  C218  1.427494 S    
C168  H24   1.083143 S    
Zn11  O59   2.018649 S    
C23   C47   1.480297 S    
C134  H10   1.112879 S    
C140  N23   1.466664 S    
C129  H1    1.111904 S    
C120  C224  1.437176 S    
C196  C230  1.512237 S    
O43   Zn14  1.879093 S    
C230  O166  1.221473 D    
C207  H48   1.112240 S    
O73   Zn21  2.017608 S    
C13   C37   1.480288 S    
N19   O133  1.302071 A    
C146  C154  1.393693 A    
C235  H59   1.084466 S    
C107  N11   1.434447 S    
N2    O99   1.300766 A    
C42   C58   1.232519 T    
C74   C77   1.232578 T    
C234  O170  1.220927 D    
C105  C113  1.422280 A    
C132  H7    1.111905 S    
N24   O143  1.302215 A    
C145  C185  1.368820 A    
C150  C158  1.393826 A    
O11   Zn11  2.021701 S    
C137  N17   1.466672 S    
O54   C30   1.279928 A    
C39   C55   1.232489 T    
C135  C143  1.526263 S    
C40   C56   1.232520 T    
Zn12  O60   2.018649 S    
N27   O149  1.302113 A    
C176  H32   1.083876 S    
Zn7   O55   2.021701 S    
N29   O153  1.301613 A    
C113  C217  1.437136 S    
C166  H22   1.083133 S    
C66   C69   1.232587 T    
O29   Zn7   1.875277 S    
N28   O152  1.301441 A    
C82   C90   1.384996 A    
O33   Zn9   1.879041 S    
C169  H25   1.083879 S    
O82   C218  1.224226 A    
C127  C135  1.496740 S    
C145  C153  1.393689 A    
O39   Zn12  1.879092 S    
C204  H38   1.112562 S    
N32   O160  1.302206 A    
C148  C204  1.494177 S    
O50   C26   1.280178 A    
N6    O108  1.301115 A    
C138  N18   1.471779 S    
C203  H37   1.113264 S    
N31   O158  1.301067 A    
C28   C156  1.415633 S    
O81   Zn21  2.013519 S    
C97   N1    1.436943 S    
O92   C221  1.219500 A    
O22   C14   1.300562 A    
N8    O111  1.300592 A    
C240  O176  1.220923 D    
O62   C30   1.281026 A    
C201  H36   1.112288 S    
C139  N21   1.466667 S    
C110  C118  1.422888 A    
O71   C212  1.219715 A    
O44   Zn13  1.874992 S    
C174  H30   1.083804 S    
O87   C220  1.232871 A    
C208  H46   1.112241 S    
C44   C60   1.232547 T    
C153  C161  1.406135 A    
C130  C138  1.529055 S    
C100  N4    1.437034 S    
C142  N26   1.472445 S    
O89   C221  1.231884 A    
O59   C27   1.281036 A    
C146  C202  1.495179 S    
C143  N32   1.469807 S    
C27   C155  1.431083 S    
O1    Zn1   2.018652 S    
O77   C215  1.219642 A    
C91   C99   1.405247 A    
C147  C155  1.393826 A    
Zn1   O49   2.021699 S    
C171  C179  1.399024 A    
O69   Zn19  2.017608 S    
C184  C215  1.413334 S    
O70   Zn20  2.013796 S    
O36   C12   1.299346 A    
C55   C71   1.455588 S    
C29   C157  1.415303 S    
N12   O120  1.301051 A    
C46   C62   1.232549 T    
C180  C211  1.426560 S    
C182  C190  1.389002 A    
C163  H19   1.083137 S    
C202  H35   1.113278 S    
O82   Zn22  2.017336 S    
N6    O107  1.300551 A    
C150  C190  1.368693 A    
N22   O140  1.301393 A    
N7    O109  1.300729 A    
O16   Zn16  2.021699 S    
Zn9   O57   2.018649 S    
O19   C11   1.299405 A    
C135  H16   1.112456 S    
C86   C126  1.365305 A    
C195  C232  1.506491 S    
C90   C98   1.413658 A    
C54   C70   1.455638 S    
O85   Zn23  2.013519 S    
C130  H3    1.111408 S    
O86   Zn24  2.017336 S    
O34   Zn10  1.874940 S    
O84   C217  1.219511 A    
O25   Zn5   1.875277 S    
C20   C44   1.480541 S    
N19   O134  1.301408 A    
N9    O113  1.300178 A    
C142  N27   1.469353 S    
O96   C223  1.224122 A    
O25   C17   1.299589 A    
C231  H55   1.085529 S    
O80   Zn24  2.013845 S    
C35   C51   1.232555 T    
C101  N5    1.436783 S    
N1    O98   1.301104 A    
O91   C222  1.231907 A    
O41   C17   1.300218 A    
C24   C48   1.480478 S    
C81   C121  1.368687 A    
C194  C227  1.509426 S    
C195  C229  1.509465 S    
C111  C119  1.414122 A    
C182  C213  1.413413 S    
C99   N3    1.437031 S    
N5    O106  1.301114 A    
C1    C89   1.411793 S    
C85   C93   1.384424 A    
C166  C174  1.391432 A    
C178  C209  1.413460 S    
N18   O132  1.301761 A    
C233  H57   1.084158 S    
C196  C204  1.530957 S    
O8    C8    1.275897 A    
C197  C205  1.536391 S    
O18   C10   1.300280 A    
O75   Zn21  2.017653 S    
C132  H6    1.112230 S    
O95   Zn19  2.013564 S    
C125  C133  1.498350 S    
C199  C237  1.509524 S    
Zn8   O56   2.021701 S    
C133  H12   1.112877 S    
C179  C187  1.389000 A    
C225  H49   1.084263 S    
O2    Zn2   2.018651 S    
C110  N14   1.434763 S    
C188  C196  1.506130 S    
O15   C7    1.276523 A    
N20   O135  1.301382 A    
C189  C197  1.503814 S    
C128  C136  1.498186 S    
C124  C132  1.498166 S    
C88   C144  1.501843 S    
O26   C18   1.300414 A    
C6    C94   1.412665 S    
C202  H34   1.112287 S    
N4    O104  1.301101 A    
N13   O122  1.301087 A    
C205  H44   1.112383 S    
O13   C5    1.276059 A    
O17   C9    1.299417 A    
O41   Zn13  1.879042 S    
C139  N24   1.469751 S    
C53   C69   1.455583 S    
O88   C219  1.219450 A    
C232  O168  1.220926 D    
N11   O117  1.300307 A    
N22   O139  1.302217 A    
O48   Zn15  1.874992 S    
C198  C206  1.532331 S    
C225  O161  1.220897 D    
C87   C127  1.367699 A    
O84   Zn22  2.017386 S    
C232  H56   1.085628 S    
O69   C211  1.223388 A    
C118  C126  1.391272 A    
O93   C223  1.222253 A    
C116  C124  1.391974 A    
C151  C159  1.393856 A    
C87   C143  1.504203 S    
C118  C222  1.436316 S    
C200  C239  1.509522 S    
C119  C127  1.389428 A    
N25   O145  1.302107 A    
C165  C173  1.390498 A    
C227  O163  1.220895 D    
C194  C226  1.506327 S    
O42   C18   1.299377 A    
C95   C103  1.413261 A    
C236  O172  1.221523 D    
Zn4   O52   2.021699 S    
C137  N20   1.469829 S    
O9    C1    1.274242 A    
C185  C193  1.502626 S    
N26   O148  1.301439 A    
C237  O173  1.220863 D    
C198  C234  1.506479 S    
Zn15  O63   2.018654 S    
C134  C142  1.527538 S    
C179  C212  1.413415 S    
O19   Zn2   1.875225 S    
O3    Zn3   2.018652 S    
Zn5   O53   2.021701 S    
O15   Zn15  2.021699 S    
C146  C186  1.368826 A    
C148  C156  1.387993 A    
C107  C115  1.422492 A    
C75   C80   1.232571 T    
C140  N22   1.469754 S    
C136  H15   1.111900 S    
C76   C79   1.232584 T    
O76   Zn22  2.013845 S    
C201  H33   1.113279 S    
O2    C2    1.278395 A    
O77   Zn23  2.017608 S    
C103  C111  1.406903 A    
C152  C160  1.393852 A    
O21   Zn3   1.875277 S    
O4    C4    1.276109 A    
O35   C11   1.300406 A    
C161  C169  1.391492 A    
O83   C218  1.221821 A    
C67   C72   1.232587 T    
O83   Zn21  2.013564 S    
O55   C31   1.279894 A    
O26   Zn6   1.879376 S    
C150  C206  1.495427 S    
O90   Zn18  2.017336 S    
C116  C220  1.437601 S    
N17   O129  1.301068 A    
C143  N29   1.466512 S    
O30   Zn8   1.879376 S    
O18   Zn2   1.879376 S    
C226  O162  1.220927 D    
N21   O137  1.301067 A    
O93   Zn19  2.013519 S    
N16   O128  1.301055 A    
O4    Zn4   2.018651 S    
C180  C188  1.396054 A    
O42   Zn14  1.874941 S    
N15   O125  1.300863 A    
C172  C180  1.403055 A    
C173  C181  1.403438 A    
C108  C116  1.422502 A    
C114  C122  1.389053 A    
O16   C8    1.274207 A    
O80   C215  1.221772 A    
O53   C29   1.278600 A    
O8    Zn8   2.018651 S    
O35   Zn10  1.879092 S    
C206  H42   1.112252 S    
C229  H53   1.084482 S    
C154  C162  1.406133 A    
O9    Zn9   2.021701 S    
C144  N30   1.469804 S    
C200  C238  1.506574 S    
