data_mof_unit_pretest_349.cif
_audit_creation_date              2012-12-10T20:09:38-0500
_audit_creation_method            fapswitch 2.2
_symmetry_space_group_name_H-M    P1
_symmetry_Int_Tables_number       1
_space_group_crystal_system       triclinic
_cell_length_a                    15.685119
_cell_length_b                    18.537352
_cell_length_c                    19.128006
_cell_angle_alpha                 89.974736
_cell_angle_beta                  91.591213
_cell_angle_gamma                 68.20114
_cell_volume                      5161.63510101

loop_
_atom_site_label
_atom_site_type_symbol
_atom_type_description
_atom_site_fract_x
_atom_site_fract_y
_atom_site_fract_z
_atom_type_partial_charge
C1    C     C_R   0.500624 0.499673 0.634215 0.877736
C2    C     C_R   0.499056 0.500237 0.365654 0.855619
C3    C     C_R   0.096434 0.420465 0.543160 0.254836
C4    C     C_R   0.897539 0.597238 0.479866 0.373302
C5    C     C_R   0.062022 0.360705 0.531815 -0.141339
C6    C     C_R   0.933638 0.654516 0.496587 -0.158542
C7    C     C_R   0.534680 0.535352 0.248563 -0.150709
C8    C     C_R   0.560643 0.466973 0.754885 -0.171934
C9    C     C_R   0.521113 0.537095 0.176351 -0.022158
C10   C     C_R   0.545148 0.469479 0.826201 -0.086900
C11   C     C_R   0.454632 0.511443 0.146690 0.117586
C12   C     C_R   0.455798 0.507226 0.850018 0.163150
C13   C     C_R   0.403471 0.482460 0.189428 -0.118434
C14   C     C_R   0.381926 0.541795 0.802825 0.028205
C15   C     C_R   0.420909 0.476419 0.260989 -0.155935
C16   C     C_R   0.397592 0.539902 0.731826 -0.124302
C17   C     C_R   0.485821 0.503549 0.290594 -0.031399
C18   C     C_R   0.486864 0.503292 0.708186 -0.039033
C19   C     C_R   0.453726 0.442778 0.035074 -0.194697
C20   C     C_R   0.425982 0.580847 0.959979 -0.175476
C21   C     C_R   0.447272 0.442462 0.961653 0.407803
C22   C     C_R   0.419189 0.583497 0.032857 0.319004
C23   C     C_R   0.676194 0.451611 0.503981 0.939526
C24   C     C_R   0.324066 0.549036 0.501382 0.952856
C25   C     C_R   0.439646 0.510719 0.924716 -0.169506
C26   C     C_R   0.440367 0.513042 0.070504 -0.177749
C27   C     C_R   0.434695 0.294779 0.461686 0.070808
C28   C     C_R   0.486009 0.730742 0.560313 0.063495
C29   C     C_R   0.430921 0.220295 0.463310 -0.142913
C30   C     C_R   0.484195 0.806894 0.560633 -0.127453
C31   C     C_R   0.503225 0.157405 0.494751 0.187924
C32   C     C_R   0.502047 0.839854 0.499167 0.213106
C33   C     C_R   0.573989 0.175036 0.528763 -0.156714
C34   C     C_R   0.516669 0.795663 0.437806 -0.112362
C35   C     C_R   0.566915 0.252202 0.535230 0.135310
C36   C     C_R   0.513383 0.721243 0.439044 0.131365
C37   C     C_R   0.540079 0.024599 0.553706 -0.171701
C38   C     C_R   0.454230 0.974344 0.444917 -0.156029
C39   C     C_R   0.555114 0.944528 0.548946 0.380590
C40   C     C_R   0.469360 0.044830 0.436349 0.269018
C41   C     C_R   0.503671 0.920507 0.498210 -0.062375
C42   C     C_R   0.503734 0.075096 0.494638 -0.045477
C43   C     C_R   0.778050 0.422712 0.509200 -0.272606
C44   C     C_R   0.222823 0.581933 0.502949 -0.236494
C45   C     C_R   0.930171 0.323033 0.499613 0.331407
C46   C     C_R   0.074002 0.688342 0.499072 0.282405
C47   C     C_R   0.835766 0.343481 0.510096 0.289811
C48   C     C_R   0.169853 0.661887 0.512998 0.367021
C49   C     C_R   0.817948 0.478646 0.510832 -0.193052
C50   C     C_R   0.177887 0.530559 0.493500 -0.177967
C51   C     C_R   0.912047 0.459657 0.504343 0.092786
C52   C     C_R   0.084659 0.553144 0.505734 0.099053
C53   C     C_R   0.969741 0.380164 0.508748 -0.095864
C54   C     C_R   0.029738 0.633363 0.501881 -0.168011
C55   C     C_R   0.950141 0.517987 0.499054 -0.072331
C56   C     C_R   0.044984 0.496776 0.515892 -0.042599
H1    H     H_    0.382583 0.341102 0.432520 0.121921
H2    H     H_    0.476325 0.704749 0.608468 0.136739
H3    H     H_    0.372002 0.212212 0.439527 0.189848
H4    H     H_    0.471603 0.839005 0.608949 0.185572
H5    H     H_    0.633321 0.129876 0.552460 0.166958
H6    H     H_    0.530154 0.818709 0.389105 0.161935
H7    H     H_    0.615802 0.265280 0.567683 0.219458
H8    H     H_    0.523521 0.688412 0.391271 0.138012
H9    H     H_    0.216268 0.471111 0.479620 0.180052
H10   H     H_    0.775256 0.537906 0.521161 0.225079
H11   H     H_    0.584218 0.557220 0.271459 0.148977
H12   H     H_    0.629402 0.436947 0.736189 0.148572
H13   H     H_    0.561454 0.559163 0.143668 0.167426
H14   H     H_    0.602173 0.441746 0.862788 0.158636
H15   H     H_    0.351038 0.463576 0.167265 0.192552
H16   H     H_    0.312665 0.570023 0.821171 0.182508
H17   H     H_    0.382301 0.452262 0.293457 0.158880
H18   H     H_    0.340056 0.565619 0.695383 0.200256
N1    N     N_R   0.499990 0.310560 0.500020 -0.103527
N2    N     N_R   0.500010 0.689440 0.499980 -0.097859
O1    O     O_R   0.500000 0.439160 0.601820 -0.569775
O2    O     O_R   0.500000 0.560840 0.398180 -0.630363
O3    O     O_R   0.500040 0.560780 0.601820 -0.626855
O4    O     O_R   0.499960 0.439220 0.398180 -0.616016
O5    O     O_R   0.632210 0.404460 0.499990 -0.544112
O6    O     O_R   0.367790 0.595540 0.500010 -0.542113
O7    O     O_R   0.632250 0.526070 0.500000 -0.619427
O8    O     O_R   0.367750 0.473930 0.500000 -0.610160
Zn1   Zn    Zn3+2 0.499970 0.418800 0.500000 1.057814
Zn2   Zn    Zn3+2 0.500030 0.581200 0.500000 1.027337
C57   C     C_2   0.114672 0.279667 0.555749 0.386176
H19   H     H_    0.187341 0.251122 0.546526 -0.033518
O9    O     O_2   0.196522 0.247520 0.545353 0.009289
C58   C     C_2   0.871372 0.731754 0.520059 0.680927
H20   H     H_    0.887017 0.754335 0.569114 0.086027
O10   O     O_2   0.805007 0.772073 0.484437 -0.386210
C59   C     C_2   0.483890 0.368344 0.074896 0.568117
H21   H     H_    0.555047 0.341830 0.093570 0.073819
O11   O     O_2   0.428913 0.338763 0.089548 -0.470059
C60   C     C_2   0.428424 0.649781 0.921789 0.550590
H22   H     H_    0.481374 0.672694 0.935895 0.096439
O12   O     O_2   0.369916 0.682686 0.876550 -0.521446
S1    S     S_3+6 0.456735 0.355113 0.916743 0.074920
O13   O     O_2   0.556026 0.301304 0.918829 -0.279272
O14   O     O_2   0.400926 0.315966 0.952508 -0.186294
O15   O     O_3   0.418930 0.371912 0.832871 -0.522714
H23   H     H_    0.423858 0.320504 0.814661 0.417124
S2    S     S_3+6 0.382518 0.675363 0.075735 0.065821
O16   O     O_2   0.463458 0.699634 0.085600 -0.261363
O17   O     O_2   0.310262 0.735788 0.031394 -0.213368
O18   O     O_3   0.338485 0.671718 0.154274 -0.489212
H24   H     H_    0.283851 0.658422 0.143974 0.367888
C61   C     C_2   0.555122 0.055169 0.622981 0.504038
H25   H     H_    0.614439 0.023566 0.656158 0.159933
O19   O     O_2   0.498939 0.115540 0.644670 -0.513766
C62   C     C_2   0.382235 0.959762 0.401280 0.431452
H26   H     H_    0.371278 0.975838 0.346436 0.138489
O20   O     O_2   0.331568 0.931457 0.427304 -0.507135
S3    S     S_3+6 0.640994 0.876625 0.604763 0.011529
O21   O     O_2   0.668653 0.794648 0.579349 -0.277976
O22   O     O_2   0.724835 0.897718 0.607409 -0.273533
O23   O     O_3   0.600776 0.881487 0.685849 -0.566152
H27   H     H_    0.650268 0.840868 0.712996 0.399149
S4    S     S_3+6 0.454389 0.087321 0.350639 0.057221
O24   O     O_2   0.513905 0.134385 0.342696 -0.209986
O25   O     O_2   0.481779 0.024817 0.296475 -0.239689
O26   O     O_3   0.344112 0.145519 0.335163 -0.515369
H28   H     H_    0.307681 0.112232 0.341421 0.355336
S5    S     S_3+6 0.219040 0.727210 0.548561 0.099106
O27   O     O_2   0.267595 0.752622 0.492567 -0.226321
O28   O     O_2   0.146230 0.797533 0.578416 -0.202565
O29   O     O_3   0.295046 0.682459 0.613309 -0.585526
H29   H     H_    0.317844 0.722289 0.631311 0.377218
S6    S     S_3+6 0.796962 0.272705 0.543993 0.078599
O30   O     O_2   0.746111 0.248292 0.486848 -0.239431
O31   O     O_2   0.874786 0.202338 0.571727 -0.179109
O32   O     O_3   0.727421 0.312236 0.610629 -0.591281
H30   H     H_    0.764121 0.331707 0.643083 0.345418
S7    S     S_3+6 0.991049 0.233684 0.457161 0.093286
O33   O     O_2   0.925379 0.210094 0.412811 -0.186948
O34   O     O_2   0.062034 0.243812 0.411085 -0.294080
O35   O     O_3   0.043515 0.163142 0.516688 -0.506745
H31   H     H_    0.077472 0.116755 0.488986 0.404067
S8    S     S_3+6 0.019329 0.781998 0.458874 0.111060
O36   O     O_2   0.953151 0.778633 0.401774 -0.208077
O37   O     O_2   0.968413 0.840036 0.512722 -0.245248
O38   O     O_3   0.097229 0.811834 0.422584 -0.454269
H32   H     H_    0.067287 0.869146 0.419222 0.412999
S9    S     S_3+6 0.192919 0.402562 0.603039 0.056828
O39   O     O_2   0.195219 0.476558 0.633356 -0.251698
O40   O     O_2   0.189033 0.350785 0.662373 -0.222010
O41   O     O_3   0.290592 0.357324 0.561081 -0.513525
H33   H     H_    0.270329 0.342406 0.515637 0.302471
S10   S     S_3+6 0.799522 0.625712 0.421391 0.061097
O42   O     O_2   0.714939 0.665317 0.462646 -0.324510
O43   O     O_2   0.807438 0.682347 0.368112 -0.168145
O44   O     O_3   0.789649 0.549907 0.378327 -0.538669
H34   H     H_    0.723272 0.566036 0.366294 0.368799

loop_
_geom_bond_atom_site_label_1
_geom_bond_atom_site_label_2
_ccdc_geom_bond_type
S7    O35   S    
C38   C40   A    
C57   H19   S    
C59   H21   S    
C31   C42   S    
C27   C29   A    
C1    O1    A    
S8    O38   S    
C55   C56   A    
O29   H29   S    
C49   C51   A    
C62   O20   D    
S9    O39   D    
C23   C43   S    
O26   H28   S    
C39   C41   A    
C51   C55   A    
C35   N1    A    
C1    C18   S    
C23   O7    A    
C16   H18   S    
C5    C53   A    
C19   C21   A    
C9    H13   S    
C61   O19   D    
C21   S1    S    
C20   C25   A    
O38   H32   S    
C34   H6    S    
C22   S2    S    
C7    C9    A    
C37   C42   A    
C19   C26   A    
C24   O6    A    
O23   H27   S    
C62   H26   S    
C36   N2    A    
C48   S5    S    
N1    Zn1   S    
C29   H3    S    
C52   C54   A    
C7    C17   A    
S10   O44   S    
C60   O12   D    
S5    O29   S    
C50   C52   A    
O18   H24   S    
C31   C33   A    
C14   C16   A    
C37   C61   S    
C19   C59   S    
S4    O26   S    
O2    Zn2   S    
C40   C42   A    
C20   C60   S    
C45   C53   A    
C59   O11   D    
C2    C17   S    
C29   C31   A    
C6    C54   A    
C27   N1    A    
S2    O17   D    
S2    O16   D    
S9    O40   D    
C3    S9    S    
S4    O25   D    
C45   C47   A    
C46   C48   A    
C45   S7    S    
C49   H10   S    
C47   S6    S    
S7    O33   D    
O8    Zn1   S    
C38   C41   A    
C4    C6    A    
C27   H1    S    
C43   C49   A    
C13   H15   S    
C11   C26   S    
S3    O22   D    
O6    Zn2   S    
C7    H11   S    
C8    C18   A    
C30   H4    S    
C51   C53   A    
C32   C34   A    
S6    O31   D    
O4    Zn1   S    
C2    O2    A    
C3    C56   A    
C58   O10   D    
S1    O13   D    
C32   C41   S    
S3    O23   S    
C60   H22   S    
C46   C54   A    
O7    Zn2   S    
C16   C18   A    
S8    O36   D    
C9    C11   A    
C10   C12   A    
C10   H14   S    
C8    C10   A    
S1    O14   D    
C12   C14   A    
C8    H12   S    
C39   S3    S    
C15   H17   S    
C13   C15   A    
C4    C55   A    
S5    O27   D    
C24   C44   S    
S10   O43   D    
S6    O32   S    
C38   C62   S    
C28   N2    A    
N2    Zn2   S    
S9    O41   S    
S4    O24   D    
C46   S8    S    
C44   C50   A    
S7    O34   D    
C21   C25   A    
C23   O5    A    
C40   S4    S    
C14   H16   S    
C20   C22   A    
C3    C5    A    
C15   C17   A    
S8    O37   D    
C28   H2    S    
C4    S10   S    
C12   C25   S    
C57   O9    D    
S6    O30   D    
C24   O8    A    
C37   C39   A    
C6    C58   S    
C61   H25   S    
C30   C32   A    
C11   C13   A    
C58   H20   S    
O32   H30   S    
C1    O3    A    
C28   C30   A    
C33   C35   A    
C34   C36   A    
O41   H33   S    
O3    Zn2   S    
O15   H23   S    
C50   H9    S    
C2    O4    A    
O35   H31   S    
O1    Zn1   S    
C5    C57   S    
C44   C48   A    
S1    O15   S    
C33   H5    S    
C22   C26   A    
S5    O28   D    
S10   O42   D    
C35   H7    S    
S3    O21   D    
O44   H34   S    
C36   H8    S    
C43   C47   A    
S2    O18   S    
O5    Zn1   S    
C52   C56   A    
