data_mof_unit_pretest_1554.cif
_audit_creation_date              2013-03-05T16:08:09-0500
_audit_creation_method            fapswitch 2.2
_symmetry_space_group_name_H-M    P1
_symmetry_Int_Tables_number       1
_space_group_crystal_system       triclinic
_cell_length_a                    38.830395
_cell_length_b                    38.828566
_cell_length_c                    47.201865
_cell_angle_alpha                 90.000103
_cell_angle_beta                  90.000023
_cell_angle_gamma                 90.005573
_cell_volume                      71167.599376

loop_
_atom_site_label
_atom_site_type_symbol
_atom_site_description
_atom_site_fract_x
_atom_site_fract_y
_atom_site_fract_z
_atom_type_partial_charge
O1    O     O_R   0.549940 0.971070 0.000000 -0.577507
O2    O     O_R   0.971070 0.450060 0.000000 -0.577176
O3    O     O_R   0.450060 0.028930 0.000000 -0.577507
O4    O     O_R   0.028930 0.549940 0.000000 -0.577176
O5    O     O_R   0.549940 0.028930 0.000000 -0.575521
O6    O     O_R   0.971070 0.549940 0.000000 -0.577243
O7    O     O_R   0.450060 0.971070 0.000000 -0.575521
O8    O     O_R   0.028930 0.450060 0.000000 -0.577243
O9    O     O_R   0.049940 0.471070 0.500000 -0.577219
O10   O     O_R   0.471070 0.950060 0.500000 -0.578291
O11   O     O_R   0.950060 0.528930 0.500000 -0.577219
O12   O     O_R   0.528930 0.049940 0.500000 -0.578291
O13   O     O_R   0.049940 0.528930 0.500000 -0.577275
O14   O     O_R   0.471070 0.049940 0.500000 -0.574922
O15   O     O_R   0.950060 0.471070 0.500000 -0.577275
O16   O     O_R   0.528930 0.950060 0.500000 -0.574922
C1    C     C_R   0.566403 0.000002 0.000023 0.838389
C2    C     C_R   0.999999 0.433597 0.999999 0.843923
C3    C     C_R   0.433597 0.999998 0.000023 0.838389
C4    C     C_R   0.000001 0.566403 0.999999 0.843917
C5    C     C_R   0.066404 0.500001 0.499999 0.844162
C6    C     C_R   0.500001 0.933605 0.499887 0.834398
C7    C     C_R   0.933596 0.499999 0.499999 0.844162
C8    C     C_R   0.499999 0.066395 0.499887 0.834398
O17   O     O_R   0.499990 0.971070 0.958930 -0.553135
O18   O     O_R   0.971070 0.500010 0.958930 -0.553448
O19   O     O_R   0.500010 0.028930 0.958930 -0.553135
O20   O     O_R   0.028930 0.499990 0.958930 -0.553445
O21   O     O_R   0.499990 0.028930 0.041070 -0.550664
O22   O     O_R   0.971070 0.499990 0.041070 -0.553512
O23   O     O_R   0.500010 0.971070 0.041070 -0.550664
O24   O     O_R   0.028930 0.500010 0.041070 -0.553512
O25   O     O_R   0.999990 0.471070 0.458930 -0.553544
O26   O     O_R   0.471070 0.000010 0.458930 -0.551353
O27   O     O_R   0.000010 0.528930 0.458930 -0.553544
O28   O     O_R   0.528930 0.999990 0.458930 -0.551354
O29   O     O_R   0.999990 0.528930 0.541070 -0.553571
O30   O     O_R   0.471070 0.999990 0.541070 -0.552775
O31   O     O_R   0.000010 0.471070 0.541070 -0.553571
O32   O     O_R   0.528930 0.000010 0.541070 -0.552776
C9    C     C_R   0.500000 1.000000 0.945439 0.936077
C10   C     C_R   1.000000 0.500000 0.945439 0.935372
C11   C     C_R   0.500000 0.000000 0.054602 0.925949
C12   C     C_R   1.000000 0.500000 0.054560 0.935615
C13   C     C_R   0.000000 0.500000 0.445439 0.935637
C14   C     C_R   0.500000 0.000000 0.445507 0.915967
C15   C     C_R   1.000000 0.500000 0.554560 0.935779
C16   C     C_R   0.500000 0.000000 0.554560 0.937983
Cu1   Cu    Cu3+1 0.500000 0.965750 0.000000 1.112356
Cu2   Cu    Cu3+1 0.965750 0.500000 0.000000 1.110106
Cu3   Cu    Cu3+1 0.500000 0.034250 0.000000 1.112356
Cu4   Cu    Cu3+1 0.034250 0.500000 0.000000 1.110111
Cu5   Cu    Cu3+1 1.000000 0.465750 0.500000 1.109937
Cu6   Cu    Cu3+1 0.465750 0.000000 0.500000 1.107355
Cu7   Cu    Cu3+1 1.000000 0.534250 0.500000 1.109937
Cu8   Cu    Cu3+1 0.534250 0.000000 0.500000 1.107355
C17   C     C_R   0.523289 0.019912 0.690036 0.630022
C18   C     C_R   0.019870 0.476678 0.690033 0.630004
C19   C     C_R   0.476711 0.980088 0.690035 0.630021
C20   C     C_R   0.980133 0.523323 0.690033 0.630003
C21   C     C_R   0.527073 0.985682 0.310174 0.629624
C22   C     C_R   0.019921 0.523281 0.309965 0.630006
C23   C     C_R   0.472927 0.014319 0.310174 0.629624
C24   C     C_R   0.980079 0.476719 0.309965 0.630005
C25   C     C_R   0.023282 0.519921 0.190035 0.630005
C26   C     C_R   0.523693 0.980588 0.190274 0.630099
C27   C     C_R   0.976719 0.480079 0.190035 0.630003
C28   C     C_R   0.476308 0.019412 0.190274 0.630097
C29   C     C_R   0.023232 0.480023 0.809963 0.630001
C30   C     C_R   0.519928 0.023276 0.809965 0.629990
C31   C     C_R   0.976772 0.519975 0.809963 0.630000
C32   C     C_R   0.480072 0.976724 0.809965 0.629990
N1    N     N_R   0.500000 1.000000 0.675992 -0.443615
N2    N     N_R   0.000002 0.500000 0.675990 -0.443623
N3    N     N_R   0.500000 0.000000 0.324248 -0.444101
N4    N     N_R   1.000000 0.500000 0.324008 -0.443623
N5    N     N_R   1.000000 0.500000 0.175992 -0.443629
N6    N     N_R   0.500000 0.000000 0.176205 -0.443454
N7    N     N_R   0.000002 0.499999 0.824006 -0.443628
N8    N     N_R   0.500000 1.000000 0.824008 -0.443649
C33   C     C_R   0.477607 0.977557 0.719929 -0.107170
C34   C     C_R   0.977605 0.522435 0.719927 -0.107191
C35   C     C_R   0.522393 0.022442 0.719929 -0.107170
C36   C     C_R   0.022399 0.477566 0.719927 -0.107191
C37   C     C_R   0.473461 0.017306 0.280298 -0.107460
C38   C     C_R   0.977549 0.477616 0.280071 -0.107179
C39   C     C_R   0.526539 0.982695 0.280298 -0.107461
C40   C     C_R   0.022451 0.522384 0.280071 -0.107179
C41   C     C_R   0.977615 0.477549 0.219929 -0.107185
C42   C     C_R   0.473784 0.017800 0.220154 -0.106821
C43   C     C_R   0.022385 0.522450 0.219929 -0.107186
C44   C     C_R   0.526216 0.982200 0.220154 -0.106821
C45   C     C_R   0.977675 0.522503 0.780069 -0.107188
C46   C     C_R   0.477542 0.977622 0.780071 -0.107195
C47   C     C_R   0.022329 0.477496 0.780069 -0.107189
C48   C     C_R   0.522458 0.022377 0.780071 -0.107195
C49   C     C_R   0.500000 1.000000 0.734981 -0.063415
C50   C     C_R   0.000002 0.500000 0.734978 -0.063412
C51   C     C_R   0.500000 0.000000 0.265242 -0.063633
C52   C     C_R   1.000000 0.500000 0.265019 -0.063413
C53   C     C_R   1.000000 0.500000 0.234980 -0.063413
C54   C     C_R   0.500000 0.000000 0.235208 -0.063572
C55   C     C_R   0.000002 0.500000 0.765018 -0.063412
C56   C     C_R   0.500000 1.000000 0.765020 -0.063412
C57   C     C_R   0.456313 0.954235 0.735126 0.157580
C58   C     C_R   0.954331 0.543777 0.735125 0.157588
C59   C     C_R   0.543688 0.045764 0.735126 0.157580
C60   C     C_R   0.045674 0.456224 0.735124 0.157588
C61   C     C_R   0.448026 0.036046 0.265129 0.157260
C62   C     C_R   0.954220 0.456329 0.264873 0.157597
C63   C     C_R   0.551974 0.963955 0.265129 0.157260
C64   C     C_R   0.045780 0.543670 0.264874 0.157597
C65   C     C_R   0.956328 0.454220 0.235126 0.157605
C66   C     C_R   0.446695 0.034059 0.235333 0.156985
C67   C     C_R   0.043672 0.545779 0.235126 0.157605
C68   C     C_R   0.553305 0.965942 0.235333 0.156985
C69   C     C_R   0.956448 0.545883 0.764873 0.157591
C70   C     C_R   0.454206 0.956344 0.764874 0.157606
C71   C     C_R   0.043557 0.454118 0.764872 0.157590
C72   C     C_R   0.545794 0.043656 0.764874 0.157605
O33   O     O_2   0.547644 0.036217 0.674816 -0.470565
O34   O     O_2   0.036134 0.452298 0.674812 -0.470512
O35   O     O_2   0.452356 0.963783 0.674816 -0.470565
O36   O     O_2   0.963869 0.547702 0.674813 -0.470511
O37   O     O_2   0.554591 0.975423 0.325317 -0.469765
O38   O     O_2   0.036238 0.547629 0.325185 -0.470534
O39   O     O_2   0.445409 0.024578 0.325317 -0.469765
O40   O     O_2   0.963762 0.452370 0.325184 -0.470533
O41   O     O_2   0.047630 0.536235 0.174815 -0.470501
O42   O     O_2   0.543861 0.959259 0.175115 -0.470894
O43   O     O_2   0.952370 0.463764 0.174815 -0.470500
O44   O     O_2   0.456139 0.040741 0.175115 -0.470894
O45   O     O_2   0.047539 0.463650 0.825182 -0.470509
O46   O     O_2   0.536250 0.047620 0.825185 -0.470456
O47   O     O_2   0.952466 0.536348 0.825183 -0.470510
O48   O     O_2   0.463750 0.952379 0.825184 -0.470456
C73   C     C_R   0.523472 0.979173 0.869354 0.130952
C74   C     C_R   0.979121 0.476570 0.869352 0.130862
C75   C     C_R   0.476528 0.020827 0.869354 0.130953
C76   C     C_R   0.020883 0.523427 0.869352 0.130859
C77   C     C_R   0.521402 0.022940 0.130826 0.128508
C78   C     C_R   0.979178 0.523476 0.130645 0.130895
C79   C     C_R   0.478598 0.977060 0.130826 0.128509
C80   C     C_R   0.020822 0.476524 0.130645 0.130895
C81   C     C_R   0.023474 0.479175 0.369354 0.130884
C82   C     C_R   0.488876 0.970644 0.369654 0.138414
C83   C     C_R   0.976526 0.520825 0.369354 0.130883
C84   C     C_R   0.511124 0.029356 0.369654 0.138415
C85   C     C_R   0.023502 0.520799 0.630644 0.130925
C86   C     C_R   0.479192 0.023488 0.630646 0.130914
C87   C     C_R   0.976500 0.479201 0.630644 0.130925
C88   C     C_R   0.520809 0.976512 0.630646 0.130913
C89   C     C_R   0.523457 0.978967 0.899145 0.228538
C90   C     C_R   0.978916 0.476585 0.899143 0.228537
C91   C     C_R   0.476543 0.021032 0.899145 0.228537
C92   C     C_R   0.021086 0.523413 0.899143 0.228539
C93   C     C_R   0.521519 0.023010 0.101026 0.229143
C94   C     C_R   0.978972 0.523461 0.100854 0.228534
C95   C     C_R   0.478481 0.976990 0.101026 0.229143
C96   C     C_R   0.021028 0.476539 0.100854 0.228533
C97   C     C_R   0.023459 0.478969 0.399145 0.228520
C98   C     C_R   0.488888 0.970560 0.399433 0.231263
C99   C     C_R   0.976541 0.521031 0.399145 0.228521
C100  C     C_R   0.511112 0.029440 0.399433 0.231261
C101  C     C_R   0.023485 0.521007 0.600853 0.228534
C102  C     C_R   0.478987 0.023474 0.600855 0.228703
C103  C     C_R   0.976516 0.478994 0.600853 0.228533
C104  C     C_R   0.521013 0.976526 0.600855 0.228703
C105  C     C_R   0.500000 1.000000 0.914147 -0.321501
C106  C     C_R   0.000000 0.499999 0.914146 -0.321296
C107  C     C_R   0.500000 0.000000 0.085971 -0.322804
C108  C     C_R   1.000000 0.500000 0.085852 -0.321257
C109  C     C_R   1.000000 0.500000 0.414147 -0.321274
C110  C     C_R   0.500000 1.000000 0.414355 -0.313606
C111  C     C_R   0.000000 0.500000 0.585851 -0.321254
C112  C     C_R   0.500000 1.000000 0.585853 -0.322033
Cu9   Cu    Cu3+1 1.000000 1.000000 0.971840 0.981706
Cu10  Cu    Cu3+1 1.000000 1.000000 0.028160 0.981712
Cu11  Cu    Cu3+1 0.500000 0.500000 0.471840 0.981818
Cu12  Cu    Cu3+1 0.500000 0.500000 0.528160 0.981711
C113  C     C_R   0.500000 1.000000 0.854518 0.128382
C114  C     C_R   0.000002 0.499999 0.854516 0.128392
C115  C     C_R   0.500000 0.000000 0.145677 0.129971
C116  C     C_R   1.000000 0.500000 0.145481 0.128373
C117  C     C_R   0.000000 0.500000 0.354518 0.128377
C118  C     C_R   0.500000 0.000000 0.354773 0.123314
C119  C     C_R   0.000001 0.500000 0.645480 0.128364
C120  C     C_R   0.500000 1.000000 0.645482 0.128397
C121  C     C_R   0.622713 0.029139 0.009193 -0.114931
C122  C     C_R   0.029159 0.377284 0.009085 -0.109814
C123  C     C_R   0.377287 0.970861 0.009193 -0.114931
C124  C     C_R   0.970841 0.622716 0.009085 -0.109815
C125  C     C_R   0.622717 0.970870 0.990890 -0.108963
C126  C     C_R   0.029169 0.622719 0.990915 -0.109966
C127  C     C_R   0.377283 0.029130 0.990890 -0.108963
C128  C     C_R   0.970830 0.377281 0.990916 -0.109964
C129  C     C_R   0.122720 0.529171 0.509081 -0.109820
C130  C     C_R   0.528902 0.877287 0.509359 -0.103820
C131  C     C_R   0.877280 0.470829 0.509081 -0.109822
C132  C     C_R   0.471098 0.122713 0.509359 -0.103820
C133  C     C_R   0.122717 0.470839 0.490915 -0.109846
C134  C     C_R   0.528823 0.122650 0.489928 -0.110417
C135  C     C_R   0.877283 0.529161 0.490915 -0.109846
C136  C     C_R   0.471177 0.877350 0.489928 -0.110418
H1    H     H_    0.609219 0.051901 0.016449 0.189766
H2    H     H_    0.051947 0.390776 0.016292 0.188710
H3    H     H_    0.390781 0.948099 0.016449 0.189766
H4    H     H_    0.948054 0.609224 0.016293 0.188711
H5    H     H_    0.609228 0.948105 0.983629 0.188932
H6    H     H_    0.051955 0.609229 0.983707 0.188740
H7    H     H_    0.390772 0.051895 0.983629 0.188933
H8    H     H_    0.948044 0.390771 0.983709 0.188738
H9    H     H_    0.109231 0.551959 0.516288 0.188646
H10   H     H_    0.551450 0.890762 0.517079 0.189273
H11   H     H_    0.890769 0.448041 0.516288 0.188646
H12   H     H_    0.448550 0.109238 0.517079 0.189272
H13   H     H_    0.109226 0.448050 0.483709 0.188691
H14   H     H_    0.551347 0.109116 0.482232 0.187239
H15   H     H_    0.890774 0.551950 0.483709 0.188691
H16   H     H_    0.448653 0.890883 0.482232 0.187238
C137  C     C_R   0.658692 0.029018 0.009467 -0.129869
C138  C     C_R   0.029030 0.341305 0.009362 -0.129983
C139  C     C_R   0.341308 0.970982 0.009467 -0.129870
C140  C     C_R   0.970970 0.658695 0.009362 -0.129983
C141  C     C_R   0.658695 0.971003 0.990614 -0.130199
C142  C     C_R   0.029044 0.658699 0.990639 -0.129982
C143  C     C_R   0.341305 0.028997 0.990614 -0.130199
C144  C     C_R   0.970956 0.341301 0.990640 -0.129981
C145  C     C_R   0.158699 0.529046 0.509357 -0.130016
C146  C     C_R   0.528762 0.841311 0.509568 -0.128847
C147  C     C_R   0.841301 0.470954 0.509357 -0.130015
C148  C     C_R   0.471238 0.158689 0.509568 -0.128847
C149  C     C_R   0.158696 0.470968 0.490638 -0.129947
C150  C     C_R   0.528698 0.158634 0.489598 -0.122568
C151  C     C_R   0.841304 0.529032 0.490638 -0.129947
C152  C     C_R   0.471302 0.841366 0.489598 -0.122569
H17   H     H_    0.672156 0.051792 0.016731 0.168989
H18   H     H_    0.051825 0.327840 0.016576 0.168842
H19   H     H_    0.327844 0.948208 0.016731 0.168989
H20   H     H_    0.948175 0.672160 0.016576 0.168842
H21   H     H_    0.672161 0.948233 0.983347 0.168778
H22   H     H_    0.051839 0.672166 0.983425 0.168847
H23   H     H_    0.327839 0.051767 0.983347 0.168778
H24   H     H_    0.948160 0.327834 0.983427 0.168846
H25   H     H_    0.172165 0.551843 0.516570 0.168790
H26   H     H_    0.551318 0.827832 0.517255 0.168988
H27   H     H_    0.827834 0.448157 0.516570 0.168790
H28   H     H_    0.448682 0.172168 0.517254 0.168988
H29   H     H_    0.172159 0.448172 0.483425 0.168855
H30   H     H_    0.551257 0.172076 0.481868 0.168139
H31   H     H_    0.827841 0.551828 0.483425 0.168855
H32   H     H_    0.448743 0.827924 0.481868 0.168139
C153  C     C_R   0.677033 0.000014 0.000037 0.036829
C154  C     C_R   0.999992 0.322964 0.000001 0.036554
C155  C     C_R   0.322967 0.999986 0.000037 0.036829
C156  C     C_R   0.000008 0.677036 0.000001 0.036555
C157  C     C_R   0.177036 0.500008 0.499997 0.036546
C158  C     C_R   0.500014 0.822995 0.499586 0.036355
C159  C     C_R   0.822963 0.499992 0.499997 0.036546
C160  C     C_R   0.499986 0.177004 0.499586 0.036355
C161  C     C_R   0.604401 0.000003 0.000037 -0.033210
C162  C     C_R   0.999996 0.395597 0.000000 -0.030624
C163  C     C_R   0.395599 0.999996 0.000037 -0.033210
C164  C     C_R   0.000004 0.604403 1.000000 -0.030627
C165  C     C_R   0.104404 0.500004 0.499998 -0.030516
C166  C     C_R   0.500020 0.895621 0.499725 -0.030653
C167  C     C_R   0.895596 0.499996 0.499998 -0.030517
C168  C     C_R   0.499980 0.104378 0.499725 -0.030653
N9    N     N_R   0.732912 0.978651 0.982605 -0.215068
N10   N     N_R   0.978583 0.267079 0.982615 -0.215166
N11   N     N_R   0.267088 0.021349 0.982606 -0.215068
N12   N     N_R   0.021417 0.732921 0.982614 -0.215166
N13   N     N_R   0.732923 0.021394 0.017443 -0.215435
N14   N     N_R   0.978600 0.732916 0.017389 -0.215155
N15   N     N_R   0.267077 0.978606 0.017443 -0.215435
N16   N     N_R   0.021400 0.267084 0.017389 -0.215155
N17   N     N_R   0.232917 0.478597 0.482611 -0.215121
N18   N     N_R   0.478916 0.767073 0.481991 -0.213549
N19   N     N_R   0.767083 0.521402 0.482611 -0.215121
N20   N     N_R   0.521084 0.232927 0.481991 -0.213549
N21   N     N_R   0.232921 0.521419 0.517383 -0.215190
N22   N     N_R   0.479022 0.232862 0.517381 -0.215511
N23   N     N_R   0.767079 0.478581 0.517384 -0.215190
N24   N     N_R   0.520978 0.767138 0.517381 -0.215511
N25   N     N_R   0.767209 0.978759 0.982511 -0.219460
N26   N     N_R   0.978688 0.232780 0.982527 -0.219466
N27   N     N_R   0.232791 0.021241 0.982512 -0.219461
N28   N     N_R   0.021312 0.767220 0.982527 -0.219467
N29   N     N_R   0.767221 0.021292 0.017523 -0.219472
N30   N     N_R   0.978705 0.767215 0.017476 -0.219464
N31   N     N_R   0.232779 0.978708 0.017523 -0.219472
N32   N     N_R   0.021296 0.232785 0.017476 -0.219464
N33   N     N_R   0.267215 0.478702 0.482524 -0.219394
N34   N     N_R   0.478982 0.732772 0.481983 -0.219135
N35   N     N_R   0.732785 0.521298 0.482524 -0.219395
N36   N     N_R   0.521018 0.267228 0.481983 -0.219135
N37   N     N_R   0.267219 0.521313 0.517471 -0.219513
N38   N     N_R   0.479164 0.267160 0.517540 -0.219379
N39   N     N_R   0.732781 0.478687 0.517471 -0.219512
N40   N     N_R   0.520836 0.732840 0.517540 -0.219379
C169  C     C_R   0.785052 0.000026 0.000013 0.409898
C170  C     C_R   0.999992 0.214946 0.000002 0.409813
C171  C     C_R   0.214948 0.999974 0.000013 0.409899
C172  C     C_R   0.000008 0.785054 0.000001 0.409815
C173  C     C_R   0.285054 0.500008 0.499998 0.409814
C174  C     C_R   0.499889 0.714967 0.499802 0.410050
C175  C     C_R   0.714946 0.499993 0.499998 0.409814
C176  C     C_R   0.500111 0.285033 0.499802 0.410050
C177  C     C_R   0.715081 0.000021 0.000028 0.420659
C178  C     C_R   0.999991 0.284918 0.000002 0.420845
C179  C     C_R   0.284919 0.999979 0.000028 0.420659
C180  C     C_R   0.000009 0.715082 0.000001 0.420845
C181  C     C_R   0.215083 0.500008 0.499997 0.420832
C182  C     C_R   0.499971 0.784944 0.499645 0.421522
C183  C     C_R   0.784917 0.499992 0.499997 0.420832
C184  C     C_R   0.500028 0.215056 0.499645 0.421522
C185  C     C_R   0.841447 0.011616 0.023823 -0.135208
C186  C     C_R   0.011614 0.158560 0.023810 -0.135209
C187  C     C_R   0.158553 0.988384 0.023823 -0.135208
C188  C     C_R   0.988386 0.841440 0.023809 -0.135210
C189  C     C_R   0.841434 0.988427 0.976189 -0.135188
C190  C     C_R   0.011625 0.841443 0.976192 -0.135211
C191  C     C_R   0.158566 0.011573 0.976189 -0.135187
C192  C     C_R   0.988375 0.158557 0.976192 -0.135212
C193  C     C_R   0.341443 0.511627 0.523807 -0.135206
C194  C     C_R   0.511240 0.658626 0.523794 -0.135174
C195  C     C_R   0.658557 0.488373 0.523807 -0.135204
C196  C     C_R   0.488760 0.341374 0.523793 -0.135173
C197  C     C_R   0.341440 0.488384 0.476191 -0.135141
C198  C     C_R   0.511487 0.341486 0.476010 -0.134988
C199  C     C_R   0.658560 0.511616 0.476191 -0.135141
C200  C     C_R   0.488513 0.658514 0.476011 -0.134988
H33   H     H_    0.827986 0.020555 0.042523 0.162441
H34   H     H_    0.020570 0.172028 0.042502 0.162442
H35   H     H_    0.172014 0.979445 0.042523 0.162440
H36   H     H_    0.979430 0.827972 0.042502 0.162442
H37   H     H_    0.827964 0.979492 0.957492 0.162447
H38   H     H_    0.020582 0.827977 0.957500 0.162438
H39   H     H_    0.172036 0.020508 0.957492 0.162447
H40   H     H_    0.979418 0.172023 0.957500 0.162438
H41   H     H_    0.327977 0.520585 0.542498 0.162421
H42   H     H_    0.519992 0.672134 0.542531 0.162509
H43   H     H_    0.672022 0.479415 0.542498 0.162421
H44   H     H_    0.480007 0.327866 0.542531 0.162509
H45   H     H_    0.327973 0.479426 0.457499 0.162470
H46   H     H_    0.520249 0.328069 0.457232 0.162834
H47   H     H_    0.672027 0.520573 0.457499 0.162470
H48   H     H_    0.479751 0.671931 0.457233 0.162834
C201  C     C_R   0.877428 0.011286 0.023923 -0.167811
C202  C     C_R   0.011293 0.122577 0.023912 -0.167847
C203  C     C_R   0.122572 0.988714 0.023923 -0.167812
C204  C     C_R   0.988707 0.877423 0.023912 -0.167847
C205  C     C_R   0.877416 0.988743 0.976083 -0.167835
C206  C     C_R   0.011299 0.877425 0.976088 -0.167848
C207  C     C_R   0.122584 0.011257 0.976083 -0.167836
C208  C     C_R   0.988700 0.122575 0.976088 -0.167847
C209  C     C_R   0.377424 0.511301 0.523911 -0.167834
C210  C     C_R   0.510950 0.622641 0.523942 -0.167890
C211  C     C_R   0.622575 0.488699 0.523911 -0.167836
C212  C     C_R   0.489050 0.377359 0.523942 -0.167890
C213  C     C_R   0.377422 0.488705 0.476088 -0.167732
C214  C     C_R   0.511143 0.377466 0.475961 -0.167740
C215  C     C_R   0.622578 0.511295 0.476088 -0.167732
C216  C     C_R   0.488857 0.622533 0.475962 -0.167741
H49   H     H_    0.890928 0.020225 0.042607 0.159988
H50   H     H_    0.020255 0.109082 0.042591 0.159975
H51   H     H_    0.109072 0.979775 0.042607 0.159988
H52   H     H_    0.979745 0.890917 0.042591 0.159975
H53   H     H_    0.890906 0.979798 0.957397 0.159980
H54   H     H_    0.020260 0.890922 0.957409 0.159971
H55   H     H_    0.109094 0.020202 0.957397 0.159980
H56   H     H_    0.979740 0.109078 0.957409 0.159970
H57   H     H_    0.390921 0.520263 0.542590 0.159941
H58   H     H_    0.519728 0.609190 0.542701 0.160105
H59   H     H_    0.609079 0.479737 0.542590 0.159942
H60   H     H_    0.480272 0.390810 0.542701 0.160105
H61   H     H_    0.390916 0.479742 0.457409 0.160011
H62   H     H_    0.519897 0.391000 0.457234 0.160228
H63   H     H_    0.609084 0.520258 0.457409 0.160011
H64   H     H_    0.480103 0.609000 0.457234 0.160228
C217  C     C_R   0.895737 0.000010 0.000002 -0.040877
C218  C     C_R   0.999998 0.104262 0.000000 -0.040843
C219  C     C_R   0.104263 0.999990 0.000002 -0.040877
C220  C     C_R   0.000002 0.895738 0.000000 -0.040843
C221  C     C_R   0.395738 0.500002 0.500000 -0.040860
C222  C     C_R   0.499926 0.604270 0.499973 -0.041062
C223  C     C_R   0.604262 0.499998 0.500000 -0.040859
C224  C     C_R   0.500073 0.395730 0.499973 -0.041062
C225  C     C_R   0.823100 0.000024 0.000008 0.048937
C226  C     C_R   0.999993 0.176898 0.000001 0.048988
C227  C     C_R   0.176900 0.999976 0.000008 0.048937
C228  C     C_R   0.000006 0.823102 0.000001 0.048989
C229  C     C_R   0.323101 0.500006 0.499998 0.048952
C230  C     C_R   0.499870 0.676914 0.499873 0.048838
C231  C     C_R   0.676899 0.499994 0.499999 0.048951
C232  C     C_R   0.500129 0.323086 0.499873 0.048838
O49   O     O_R   0.000030 0.049790 0.976210 -0.580352
O50   O     O_R   0.049790 0.999970 0.976210 -0.580355
O51   O     O_R   0.999970 0.950210 0.976210 -0.580353
O52   O     O_R   0.950210 0.000030 0.976210 -0.580355
O53   O     O_R   0.000030 0.950210 0.023790 -0.580353
O54   O     O_R   0.049790 0.000030 0.023790 -0.580357
O55   O     O_R   0.999970 0.049790 0.023790 -0.580354
O56   O     O_R   0.950210 0.999970 0.023790 -0.580356
O57   O     O_R   0.500030 0.549790 0.476210 -0.580421
O58   O     O_R   0.549790 0.499970 0.476210 -0.580325
O59   O     O_R   0.499970 0.450210 0.476210 -0.580420
O60   O     O_R   0.450210 0.500030 0.476210 -0.580325
O61   O     O_R   0.500030 0.450210 0.523790 -0.580405
O62   O     O_R   0.549790 0.500030 0.523790 -0.580326
O63   O     O_R   0.499970 0.549790 0.523790 -0.580405
O64   O     O_R   0.450210 0.499970 0.523790 -0.580326
C233  C     C_R   1.000000 0.066259 0.000000 0.789758
C234  C     C_R   0.066260 0.999998 0.000000 0.789731
C235  C     C_R   0.000000 0.933740 1.000000 0.789758
C236  C     C_R   0.933740 0.000002 0.000000 0.789731
C237  C     C_R   0.499982 0.566262 0.499997 0.789836
C238  C     C_R   0.566260 0.500000 0.500000 0.789799
C239  C     C_R   0.500018 0.433738 0.499997 0.789837
C240  C     C_R   0.433740 0.500000 0.500000 0.789800
I1    I     I_    0.431190 0.911126 0.714903 -0.102911
I2    I     I_    0.911275 0.568985 0.714907 -0.102710
I3    I     I_    0.568811 0.088874 0.714904 -0.102911
I4    I     I_    0.088730 0.431017 0.714905 -0.102711
I5    I     I_    0.414618 0.072877 0.285606 -0.097925
I6    I     I_    0.911101 0.431223 0.285096 -0.102840
I7    I     I_    0.585382 0.927123 0.285606 -0.097926
I8    I     I_    0.088899 0.568776 0.285096 -0.102841
I9    I     I_    0.931220 0.411102 0.214903 -0.102776
I10   I     I_    0.399842 0.050774 0.214889 -0.103922
I11   I     I_    0.068780 0.588898 0.214904 -0.102776
I12   I     I_    0.600158 0.949227 0.214889 -0.103922
I13   I     I_    0.931459 0.589065 0.785095 -0.102733
I14   I     I_    0.411080 0.931251 0.785097 -0.102649
I15   I     I_    0.068548 0.410935 0.785093 -0.102730
I16   I     I_    0.588920 0.068749 0.785097 -0.102649
I17   I     I_    0.560275 0.949541 0.846318 -0.110644
I18   I     I_    0.949402 0.439831 0.846315 -0.110738
I19   I     I_    0.439725 0.050458 0.846318 -0.110644
I20   I     I_    0.050604 0.560165 0.846317 -0.110740
I21   I     I_    0.554833 0.056357 0.153851 -0.110434
I22   I     I_    0.949554 0.560286 0.153682 -0.110718
I23   I     I_    0.445167 0.943643 0.153851 -0.110433
I24   I     I_    0.050446 0.439713 0.153682 -0.110718
I25   I     I_    0.060280 0.449547 0.346318 -0.110741
I26   I     I_    0.470578 0.926895 0.346918 -0.107950
I27   I     I_    0.939720 0.550452 0.346318 -0.110741
I28   I     I_    0.529422 0.073106 0.346918 -0.107950
I29   I     I_    0.060352 0.550380 0.653679 -0.110828
I30   I     I_    0.449588 0.060315 0.653682 -0.111029
I31   I     I_    0.939650 0.449620 0.653680 -0.110827
I32   I     I_    0.550412 0.939685 0.653682 -0.111029
N41   N     N_R   0.548160 0.958414 0.914124 0.155748
O65   O     O_R   0.570017 0.972882 0.931291 -0.373561
O66   O     O_R   0.547946 0.925061 0.911531 -0.286551
N42   N     N_R   0.958307 0.451923 0.914119 0.155861
O67   O     O_R   0.972725 0.430026 0.931279 -0.373968
O68   O     O_R   0.924955 0.452213 0.911533 -0.286607
N43   N     N_R   0.451840 0.041586 0.914124 0.155749
O69   O     O_R   0.429983 0.027118 0.931291 -0.373560
O70   O     O_R   0.452054 0.074938 0.911531 -0.286551
N44   N     N_R   0.041695 0.548075 0.914119 0.155860
O71   O     O_R   0.027277 0.569974 0.931277 -0.373963
O72   O     O_R   0.075047 0.547780 0.911537 -0.286610
N45   N     N_R   0.544519 0.045514 0.086112 0.158617
O73   O     O_R   0.567965 0.032839 0.069409 -0.368653
O74   O     O_R   0.541138 0.078743 0.088250 -0.286202
N46   N     N_R   0.958421 0.548167 0.085876 0.155786
O75   O     O_R   0.972890 0.570023 0.068708 -0.374063
O76   O     O_R   0.925071 0.547958 0.088470 -0.286649
N47   N     N_R   0.455481 0.954486 0.086111 0.158617
O77   O     O_R   0.432035 0.967161 0.069409 -0.368653
O78   O     O_R   0.458862 0.921257 0.088250 -0.286202
N48   N     N_R   0.041579 0.451833 0.085876 0.155786
O79   O     O_R   0.027110 0.429977 0.068708 -0.374063
O80   O     O_R   0.074929 0.452042 0.088470 -0.286649
N49   N     N_R   0.048162 0.458416 0.414124 0.155792
O81   O     O_R   0.070018 0.472884 0.431292 -0.374085
O82   O     O_R   0.047950 0.425064 0.411530 -0.286693
N50   N     N_R   0.478431 0.940265 0.414497 0.131512
O83   O     O_R   0.497103 0.912490 0.413331 -0.316750
O84   O     O_R   0.450074 0.940238 0.429162 -0.331455
N51   N     N_R   0.951838 0.541584 0.414124 0.155791
O85   O     O_R   0.929982 0.527115 0.431292 -0.374084
O86   O     O_R   0.952050 0.574936 0.411530 -0.286693
N52   N     N_R   0.521569 0.059735 0.414497 0.131512
O87   O     O_R   0.502897 0.087510 0.413332 -0.316751
O88   O     O_R   0.549926 0.059762 0.429162 -0.331456
N53   N     N_R   0.048211 0.541536 0.585873 0.155744
O89   O     O_R   0.070045 0.527048 0.568699 -0.374141
O90   O     O_R   0.048043 0.574888 0.588472 -0.286733
N54   N     N_R   0.458459 0.048197 0.585876 0.155693
O91   O     O_R   0.472950 0.070046 0.568716 -0.374687
O92   O     O_R   0.425107 0.048013 0.588464 -0.286977
N55   N     N_R   0.951789 0.458464 0.585874 0.155744
O93   O     O_R   0.929956 0.472952 0.568700 -0.374139
O94   O     O_R   0.951958 0.425112 0.588473 -0.286733
N56   N     N_R   0.541541 0.951803 0.585876 0.155694
O95   O     O_R   0.527050 0.929954 0.568716 -0.374687
O96   O     O_R   0.574893 0.951988 0.588464 -0.286977

loop_
_geom_bond_atom_site_label_1
_geom_bond_atom_site_label_2
_geom_bond_distance
_ccdc_geom_bond_type
C78   C116  1.405414 A    
N43   O69   1.300941 A    
C128  C144  1.397106 A    
C123  C139  1.397170 A    
O25   C13   1.291243 A    
N55   O93   1.300944 A    
C208  H56   1.083069 S    
N50   O83   1.300751 A    
C150  H30   1.082943 S    
C80   C116  1.405414 A    
C129  H9    1.083079 S    
C187  H35   1.082969 S    
O63   C237  1.292422 A    
C150  C160  1.405067 A    
C204  H52   1.083068 S    
Cu11  O57   1.944248 S    
N21   C181  1.358049 A    
C126  C164  1.404294 A    
C62   I6    2.159720 S    
C38   C62   1.420637 A    
C152  H32   1.082938 S    
C2    C162  1.475486 S    
O18   Cu2   1.949561 S    
C149  C157  1.404855 A    
C185  C201  1.397248 A    
N15   C179  1.358054 A    
C90   C106  1.413591 A    
O32   C16   1.291283 A    
C155  C179  1.477392 S    
C131  C147  1.397141 A    
O24   Cu4   1.949556 S    
C10   C106  1.477097 S    
C122  H2    1.083081 S    
O19   Cu3   1.949559 S    
Cu1   Cu3   2.659753 S    
Cu2   Cu4   2.659878 S    
C14   C110  1.470461 S    
O3    C3    1.292473 A    
C80   C96   1.406214 A    
C19   N1    1.361914 A    
C63   I7    2.159304 S    
C146  H26   1.082952 S    
C191  C207  1.397257 A    
C32   C46   1.414889 A    
C74   C90   1.406213 A    
C72   I16   2.159722 S    
C46   C56   1.421269 A    
C200  C216  1.397154 A    
C23   C37   1.415126 A    
C7    C167  1.475563 S    
C34   C50   1.421276 A    
Cu10  O54   1.944339 S    
C133  C165  1.404309 A    
C78   C94   1.406214 A    
C196  H44   1.082958 S    
O62   C238  1.292276 A    
C33   C57   1.420634 A    
C138  C154  1.404843 A    
C41   C65   1.420635 A    
C18   O34   1.345800 S    
C25   N5    1.361918 A    
C149  H29   1.082960 S    
C192  H40   1.082963 S    
C19   C33   1.414889 A    
C215  C223  1.404306 A    
O17   C9    1.291243 A    
C22   O38   1.345807 S    
C213  C221  1.404306 A    
C47   C71   1.420628 A    
N36   C176  1.358132 A    
C147  C159  1.404855 A    
C202  H50   1.083068 S    
C137  H17   1.082958 S    
C187  C227  1.404874 A    
C191  C227  1.404893 A    
C12   C108  1.477045 S    
N17   C181  1.358052 A    
C13   C109  1.477045 S    
C134  C150  1.397307 A    
C6    C166  1.474865 S    
C25   O41   1.345803 S    
C144  H24   1.082963 S    
C159  C183  1.477368 S    
C158  C182  1.477504 S    
N56   O95   1.300930 A    
C96   C108  1.413575 A    
O13   C5    1.292497 A    
C79   C95   1.406635 A    
C44   C68   1.420698 A    
C219  C234  1.475672 S    
O60   C240  1.292271 A    
C76   C92   1.406204 A    
C31   C45   1.414882 A    
C77   C93   1.406635 A    
N10   C178  1.358043 A    
O61   C239  1.292420 A    
O26   Cu6   1.949561 S    
O59   C239  1.292190 A    
C48   C56   1.421270 A    
C57   C70   1.408908 A    
C154  C178  1.477287 S    
O57   C237  1.292188 A    
C205  H53   1.083070 S    
C130  H10   1.083094 S    
N13   C177  1.358051 A    
C59   C72   1.408909 A    
N1    C120  1.440143 S    
C140  C156  1.404844 A    
O31   C15   1.291232 A    
N2    C119  1.440153 S    
C87   I31   2.132764 S    
C25   C43   1.414891 A    
C73   C89   1.406209 A    
C41   C53   1.421271 A    
C147  H27   1.082961 S    
C29   C47   1.414884 A    
C131  C167  1.404308 A    
C194  C210  1.397315 A    
N34   C174  1.358133 A    
C200  C230  1.404830 A    
O50   C234  1.292287 A    
C152  C158  1.405066 A    
N7    C114  1.440143 S    
C127  C143  1.397114 A    
C209  H57   1.083067 S    
C186  C226  1.404867 A    
C192  C226  1.404868 A    
C125  C141  1.397114 A    
N49   O82   1.300826 A    
C139  H19   1.082958 S    
C93   C107  1.414691 A    
C94   C108  1.413573 A    
N48   O79   1.300943 A    
C81   C97   1.406214 A    
C87   C103  1.406219 A    
C92   C106  1.413591 A    
C176  C232  1.477559 S    
N44   O72   1.300832 A    
C42   C66   1.420698 A    
N52   O87   1.300753 A    
C74   C114  1.405412 A    
C201  C217  1.404313 A    
Cu12  O62   1.944339 S    
O4    C4    1.292514 A    
N23   N39   1.331806 A    
C39   C63   1.420489 A    
C197  C229  1.404879 A    
C141  C153  1.404863 A    
N25   C169  1.358051 A    
C190  H38   1.082967 S    
C30   O46   1.345806 S    
O5    Cu3   1.950181 S    
N15   N31   1.331809 A    
C132  C148  1.396918 A    
C77   C115  1.405445 A    
C134  C168  1.404088 A    
C4    C164  1.475486 S    
Cu9   O49   1.944248 S    
C27   N5    1.361917 A    
O9    C5    1.292487 A    
C45   C55   1.421266 A    
C31   N7    1.361909 A    
O52   C236  1.292283 A    
C214  C224  1.404382 A    
N43   O70   1.300827 A    
O23   C11   1.292214 A    
C131  H11   1.083077 S    
C98   N50   1.433230 S    
C157  C181  1.477368 S    
N47   O78   1.300833 A    
N22   C184  1.358068 A    
C86   C120  1.405410 A    
N19   N35   1.331801 A    
C142  H22   1.082957 S    
C73   C113  1.405412 A    
N18   N34   1.331842 A    
C75   I19   2.132760 S    
N41   O66   1.300827 A    
O11   C7    1.292487 A    
C172  C228  1.477334 S    
O12   Cu8   1.950091 S    
C42   C54   1.420927 A    
C21   C39   1.415125 A    
C81   I25   2.132764 S    
C125  H5    1.083084 S    
C61   I5    2.159304 S    
N42   O67   1.300940 A    
O28   C14   1.289708 A    
O26   C14   1.289712 A    
O29   C15   1.291231 A    
O8    Cu4   1.950055 S    
O30   C16   1.291286 A    
C210  H58   1.083057 S    
N14   C180  1.358045 A    
C145  H25   1.082958 S    
C213  H61   1.083066 S    
C1    C161  1.475493 S    
C64   I8    2.159723 S    
C45   C69   1.420628 A    
C43   C53   1.421269 A    
N37   C173  1.358056 A    
C57   I1    2.159720 S    
C59   I3    2.159718 S    
C202  C218  1.404288 A    
C193  C229  1.404882 A    
C137  C153  1.404885 A    
C84   C100  1.405619 A    
C85   C101  1.406214 A    
N16   C178  1.358040 A    
C11   C107  1.480661 S    
C26   C44   1.415177 A    
C76   C114  1.405397 A    
C221  C240  1.475652 S    
C81   C117  1.405410 A    
C148  H28   1.082954 S    
C128  H8    1.083081 S    
C30   C48   1.414884 A    
O16   Cu8   1.950055 S    
C101  N53   1.434242 S    
C101  C111  1.413560 A    
C37   C51   1.420789 A    
C203  C219  1.404314 A    
C126  H6    1.083077 S    
N14   N30   1.331781 A    
C28   C42   1.415177 A    
N51   O85   1.300944 A    
C156  C180  1.477291 S    
C75   C91   1.406214 A    
N20   C184  1.358043 A    
C17   C35   1.414884 A    
C123  H3    1.083071 S    
O6    Cu2   1.950051 S    
N53   O90   1.300826 A    
C61   C66   1.409479 A    
C200  H48   1.082959 S    
C190  C228  1.404866 A    
Cu9   O51   1.944252 S    
C222  C237  1.475775 S    
N42   O68   1.300837 A    
N20   N36   1.331846 A    
C35   C49   1.421273 A    
C195  H43   1.082969 S    
C29   N7    1.361911 A    
N3    C118  1.440861 S    
C89   N41   1.434237 S    
C201  H49   1.083064 S    
O55   C233  1.292252 A    
C18   N2    1.361914 A    
C100  N52   1.433233 S    
O21   Cu3   1.949555 S    
C104  C112  1.413556 A    
N26   C170  1.358049 A    
C211  H59   1.083063 S    
N50   O84   1.300579 A    
C75   C113  1.405413 A    
N18   C182  1.358042 A    
C44   C54   1.420929 A    
C92   N44   1.434228 S    
O12   C8    1.292452 A    
O1    C1    1.292473 A    
C134  H14   1.083092 S    
C32   N8    1.361910 A    
C83   C99   1.406214 A    
C46   C70   1.420636 A    
C71   I15   2.159732 S    
C99   N51   1.434242 S    
C52   C53   1.417916 A    
N45   O74   1.300833 A    
C69   I13   2.159726 S    
C34   C58   1.420646 A    
C129  C165  1.404307 A    
C78   I22   2.132763 S    
C189  C225  1.404892 A    
C68   I12   2.159316 S    
O29   Cu7   1.949555 S    
C99   C109  1.413574 A    
C132  C168  1.404088 A    
N46   O75   1.300942 A    
O64   C240  1.292275 A    
N38   C176  1.357994 A    
C170  C226  1.477330 S    
C153  C177  1.477392 S    
C15   C111  1.477008 S    
N4    C117  1.440148 S    
C16   C112  1.477069 S    
C194  H42   1.082958 S    
N35   C175  1.358052 A    
C188  C228  1.404869 A    
C199  C215  1.397250 A    
C173  C229  1.477407 S    
N29   C169  1.358066 A    
C88   C120  1.405408 A    
N31   C171  1.358065 A    
C185  C225  1.404877 A    
O10   C6    1.292452 A    
N19   C183  1.358049 A    
C82   C98   1.405614 A    
O18   C10   1.291298 A    
C95   C107  1.414695 A    
C136  H16   1.083093 S    
O15   Cu5   1.950184 S    
C103  C111  1.413556 A    
N10   N26   1.331786 A    
C188  H36   1.082964 S    
C37   C61   1.420490 A    
O53   C235  1.292254 A    
O5    C1    1.292477 A    
C141  H21   1.082960 S    
C50   C55   1.417916 A    
N54   O91   1.300931 A    
C133  H13   1.083078 S    
C65   I9    2.159721 S    
C80   I24   2.132766 S    
C28   O44   1.345860 S    
C5    C165  1.475563 S    
C79   I23   2.132977 S    
C121  H1    1.083073 S    
O32   Cu8   1.949556 S    
N56   O96   1.300822 A    
C100  C110  1.410262 A    
C63   C68   1.409484 A    
C151  H31   1.082961 S    
C38   C52   1.421271 A    
C216  C222  1.404381 A    
O22   Cu2   1.949556 S    
O21   C11   1.292212 A    
C28   N6    1.362225 A    
C60   C71   1.408907 A    
O22   C12   1.291282 A    
O23   Cu1   1.949554 S    
C74   I18   2.132769 S    
Cu10  O53   1.944252 S    
C24   C38   1.414892 A    
C88   C104  1.406209 A    
Cu11  O60   1.944343 S    
C19   O35   1.345807 S    
C191  H39   1.082965 S    
C26   N6    1.362222 A    
C96   N48   1.434241 S    
C30   N8    1.361917 A    
C124  C140  1.397094 A    
N21   N37   1.331806 A    
O3    Cu3   1.950144 S    
N44   O71   1.300952 A    
C82   I26   2.131189 S    
C87   C119  1.405417 A    
C198  C232  1.404832 A    
N24   N40   1.331743 A    
O8    C2    1.292504 A    
C79   C115  1.405448 A    
Cu10  O55   1.944249 S    
N47   O77   1.301041 A    
C135  C151  1.397129 A    
N49   O81   1.300941 A    
O28   Cu8   1.949560 S    
C97   C109  1.413572 A    
C197  C213  1.397250 A    
O30   Cu6   1.949556 S    
C160  C184  1.477504 S    
C121  C161  1.404280 A    
Cu12  O64   1.944342 S    
C175  C231  1.477407 S    
N52   O88   1.300576 A    
C188  C204  1.397216 A    
C40   C52   1.421272 A    
N13   N29   1.331809 A    
C58   I2    2.159733 S    
O49   C233  1.292254 A    
N51   O86   1.300826 A    
C85   C119  1.405418 A    
C129  C145  1.397141 A    
C83   C117  1.405413 A    
C58   C69   1.408906 A    
O9    Cu5   1.950141 S    
O11   Cu7   1.950144 S    
N40   C174  1.357994 A    
C195  C211  1.397255 A    
C86   I30   2.132762 S    
O16   C6    1.292274 A    
C171  C227  1.477431 S    
C102  C112  1.413557 A    
C186  H34   1.082967 S    
C104  N56   1.434213 S    
C210  C222  1.404280 A    
C83   I27   2.132764 S    
C195  C231  1.404879 A    
C174  C230  1.477559 S    
N11   N27   1.331799 A    
O54   C234  1.292267 A    
C207  H55   1.083067 S    
C193  C209  1.397255 A    
O6    C4    1.292504 A    
C216  H64   1.083064 S    
C169  C225  1.477431 S    
C126  C142  1.397106 A    
C122  C138  1.397094 A    
C224  C239  1.475775 S    
C140  H20   1.082961 S    
C135  C167  1.404307 A    
C143  H23   1.082961 S    
C189  C205  1.397257 A    
C198  H46   1.082961 S    
N39   C175  1.358058 A    
O31   Cu5   1.949554 S    
C22   C40   1.414887 A    
C91   N43   1.434241 S    
C103  N55   1.434242 S    
C36   C60   1.420646 A    
C43   C67   1.420638 A    
C102  N54   1.434210 S    
O17   Cu1   1.949560 S    
C49   C56   1.417911 A    
C206  H54   1.083067 S    
C3    C163  1.475493 S    
Cu11  Cu12  2.658414 S    
C40   C64   1.420636 A    
C39   C51   1.420785 A    
C196  C232  1.405002 A    
C51   C54   1.417666 A    
C77   I21   2.132979 S    
C151  C159  1.404857 A    
Cu9   Cu10  2.658414 S    
C148  C160  1.404892 A    
C89   C105  1.413573 A    
N23   C183  1.358054 A    
Cu11  O58   1.944339 S    
N11   C179  1.358053 A    
O13   Cu7   1.950181 S    
C145  C157  1.404860 A    
C67   I11   2.159720 S    
C9    C105  1.477045 S    
O2    C2    1.292514 A    
C90   N42   1.434236 S    
C215  H63   1.083067 S    
C124  C164  1.404296 A    
C217  C236  1.475672 S    
N54   O92   1.300826 A    
C21   N3    1.362222 A    
C93   N45   1.434075 S    
C23   N3    1.362220 A    
O4    Cu4   1.950091 S    
C208  C218  1.404294 A    
C70   I14   2.159719 S    
N9    N25   1.331795 A    
C130  C166  1.404089 A    
C31   O47   1.345808 S    
C121  C137  1.397170 A    
C32   O48   1.345807 S    
C198  C214  1.397154 A    
O14   C8    1.292274 A    
C187  C203  1.397248 A    
C27   C41   1.414887 A    
N5    C116  1.440148 S    
C204  C220  1.404290 A    
N6    C115  1.440945 S    
Cu11  O59   1.944252 S    
O20   C10   1.291295 A    
C20   O36   1.345803 S    
C91   C105  1.413577 A    
C133  C149  1.397129 A    
C136  C152  1.397307 A    
C132  H12   1.083096 S    
Cu12  O61   1.944252 S    
N48   O80   1.300825 A    
C146  C158  1.404891 A    
C185  H33   1.082968 S    
C24   O40   1.345809 S    
C211  C223  1.404307 A    
N32   C170  1.358046 A    
O2    Cu2   1.950095 S    
N53   O89   1.300943 A    
C199  H47   1.082967 S    
O56   C236  1.292271 A    
Cu9   O50   1.944339 S    
C24   N4    1.361915 A    
O15   C7    1.292497 A    
C203  H51   1.083064 S    
N27   C171  1.358048 A    
N28   C172  1.358045 A    
C214  H62   1.083063 S    
C20   C34   1.414888 A    
C84   C118  1.406827 A    
N9    C177  1.358057 A    
Cu5   Cu7   2.659753 S    
O25   Cu5   1.949560 S    
O58   C238  1.292271 A    
Cu6   Cu8   2.659878 S    
C86   C102  1.406209 A    
C47   C55   1.421267 A    
O27   Cu7   1.949559 S    
C66   I10   2.159314 S    
O7    Cu1   1.950184 S    
C205  C217  1.404304 A    
Cu10  O56   1.944342 S    
C143  C155  1.404864 A    
C196  C212  1.397315 A    
C223  C238  1.475652 S    
C138  H18   1.082960 S    
C125  C161  1.404296 A    
C8    C168  1.474865 S    
C123  C163  1.404282 A    
C84   I28   2.131192 S    
C127  C163  1.404297 A    
N12   C180  1.358039 A    
C207  C219  1.404305 A    
C18   C36   1.414890 A    
N33   C173  1.358055 A    
C127  H7    1.083081 S    
O19   C9    1.291244 A    
C189  H37   1.082964 S    
C192  C208  1.397220 A    
C142  C156  1.404846 A    
N45   O73   1.301042 A    
O24   C12   1.291279 A    
N17   N33   1.331801 A    
N55   O94   1.300827 A    
N8    C113  1.440143 S    
C62   C65   1.408908 A    
C76   I20   2.132777 S    
C144  C154  1.404846 A    
O14   Cu6   1.950051 S    
N46   O76   1.300825 A    
C124  H4    1.083079 S    
C186  C202  1.397216 A    
C73   I17   2.132765 S    
C193  H41   1.082965 S    
N22   N38   1.331743 A    
C218  C233  1.475579 S    
C20   N2    1.361913 A    
C29   O45   1.345808 S    
C22   N4    1.361917 A    
C17   N1    1.361915 A    
C48   C72   1.420636 A    
C27   O43   1.345807 S    
C97   N49   1.434245 S    
C130  C146  1.396918 A    
C194  C230  1.405005 A    
C98   C110  1.410264 A    
C136  C166  1.404089 A    
N12   N28   1.331790 A    
O7    C3    1.292477 A    
O51   C235  1.292252 A    
C135  H15   1.083076 S    
C36   C50   1.421275 A    
C122  C162  1.404298 A    
C128  C162  1.404294 A    
C60   I4    2.159733 S    
C197  H45   1.082967 S    
C199  C231  1.404879 A    
Cu12  O63   1.944249 S    
O20   Cu4   1.949560 S    
C33   C49   1.421269 A    
C206  C220  1.404292 A    
N24   C182  1.358065 A    
C35   C59   1.420636 A    
C94   N46   1.434240 S    
N41   O65   1.300942 A    
O10   Cu6   1.950095 S    
C23   O39   1.345901 S    
C95   N47   1.434075 S    
C88   I32   2.132764 S    
C17   O33   1.345805 S    
N16   N32   1.331785 A    
Cu9   O52   1.944343 S    
C139  C155  1.404885 A    
C190  C206  1.397220 A    
N30   C172  1.358045 A    
C212  C224  1.404282 A    
C85   I29   2.132767 S    
C21   O37   1.345901 S    
C26   O42   1.345857 S    
O1    Cu1   1.950141 S    
C64   C67   1.408908 A    
C82   C118  1.406831 A    
C220  C235  1.475579 S    
C209  C221  1.404303 A    
C212  H60   1.083058 S    
O27   C13   1.291244 A    
