data_mof_unit_pretest_566.cif
_audit_creation_date              2012-12-10T20:30:09-0500
_audit_creation_method            fapswitch 2.2
_symmetry_space_group_name_H-M    P1
_symmetry_Int_Tables_number       1
_space_group_crystal_system       triclinic
_cell_length_a                    9.886079
_cell_length_b                    10.723646
_cell_length_c                    13.134854
_cell_angle_alpha                 89.735659
_cell_angle_beta                  69.945513
_cell_angle_gamma                 89.749513
_cell_volume                      1308.03851144

loop_
_atom_site_label
_atom_site_type_symbol
_atom_type_description
_atom_site_fract_x
_atom_site_fract_y
_atom_site_fract_z
_atom_type_partial_charge
C1    C     C_R   0.500152 0.739627 0.499591 0.917172
C2    C     C_R   0.431792 0.475214 0.984632 0.090312
C3    C     C_R   0.461242 0.440689 0.875922 0.075236
C4    C     C_R   0.542222 0.460404 0.029329 0.078422
C5    C     C_R   0.669829 0.393516 0.972325 0.171295
C6    C     C_R   0.686808 0.343430 0.871132 -0.262261
C7    C     C_R   0.583571 0.366256 0.823523 -0.198335
C8    C     C_R   0.529922 0.512305 0.128808 -0.263943
C9    C     C_R   0.755037 0.418025 0.123395 -0.211796
C10   C     C_R   0.368202 0.483194 0.822125 -0.116843
C11   C     C_R   0.426268 0.937206 0.442664 0.120441
C12   C     C_R   0.420090 0.493188 0.704093 0.857555
C13   C     C_R   0.505881 0.871232 0.494016 -0.165996
C14   C     C_R   0.600359 0.933040 0.534927 -0.321372
C15   C     C_R   0.602930 0.061935 0.535637 0.442059
C16   C     C_R   0.506968 0.127806 0.496411 -0.214228
C17   C     C_R   0.426941 0.064930 0.443928 0.066432
C18   C     C_3   0.269578 0.072905 0.462516 -0.460023
C19   C     C_3   0.268853 0.931905 0.460616 -0.463574
C20   C     C_R   0.886691 0.524604 0.592698 0.221636
C21   C     C_R   0.968758 0.464828 0.410805 -0.150019
C22   C     C_R   0.112479 0.464766 0.410787 -0.145675
C23   C     C_R   0.500122 0.260068 0.501514 0.912837
C24   C     C_R   0.028707 0.523642 0.593031 0.209920
C25   C     C_3   0.003120 0.639353 0.659557 -0.520047
C26   C     C_3   0.849862 0.640330 0.658689 -0.484139
C27   C     C_R   0.580050 0.499741 0.295820 0.866276
C28   C     C_R   0.776991 0.375365 0.018792 -0.201698
C29   C     C_R   0.628594 0.483257 0.179280 -0.053167
C30   C     C_R   0.232433 0.531883 0.881872 -0.190694
C31   C     C_R   0.193387 0.547101 0.993134 -0.150597
C32   C     C_R   0.293020 0.522586 0.044134 -0.198249
H1    H     H_    0.832533 0.394871 0.162193 0.146604
H2    H     H_    0.208352 0.111630 0.543663 0.213030
H3    H     H_    0.246894 0.116462 0.393072 0.199421
H4    H     H_    0.205415 0.890733 0.540281 0.201940
H5    H     H_    0.246488 0.893031 0.389712 0.198779
H6    H     H_    0.947811 0.438125 0.338314 0.139519
H7    H     H_    0.198909 0.437573 0.338088 0.153912
H8    H     H_    0.008577 0.621994 0.741433 0.195910
H9    H     H_    0.068461 0.718977 0.615162 0.209058
H10   H     H_    0.767792 0.623239 0.739922 0.213844
H11   H     H_    0.780805 0.287992 0.828227 0.155597
H12   H     H_    0.826591 0.720423 0.613210 0.206011
H13   H     H_    0.874346 0.323748 0.976235 0.140793
H14   H     H_    0.440369 0.571991 0.171332 0.147250
H15   H     H_    0.158294 0.561784 0.842224 0.148733
H16   H     H_    0.257325 0.538294 0.130405 0.124180
H17   H     H_    0.087804 0.583296 0.039310 0.145729
H18   H     H_    0.599408 0.323543 0.745879 0.207616
H19   H     H_    0.664786 0.882083 0.573373 0.174477
N1    N     N_R   0.856940 0.500860 0.500710 -0.102711
N2    N     N_R   0.142580 0.500820 0.500710 -0.102117
O1    O     O_R   0.385310 0.683210 0.499990 -0.614837
O2    O     O_R   0.614650 0.683240 0.500000 -0.619353
O3    O     O_R   0.328390 0.499940 0.653610 -0.613204
O4    O     O_R   0.557730 0.499980 0.653620 -0.615150
O5    O     O_R   0.385350 0.316760 0.500000 -0.619628
O6    O     O_R   0.614690 0.316790 0.500010 -0.592538
O7    O     O_R   0.442270 0.500020 0.346380 -0.621591
O8    O     O_R   0.671610 0.500060 0.346390 -0.625541
Zn1   Zn    Zn3+2 0.346870 0.499980 0.499990 0.935139
Zn2   Zn    Zn3+2 0.653130 0.500020 0.500010 0.941876
O9    O     O_3   0.679039 0.121503 0.591907 -0.608139
C33   C     C_3   0.826548 0.121988 0.527960 0.140559
H20   H     H_    0.843922 0.169817 0.448955 0.144162
H21   H     H_    0.871125 0.025583 0.512459 0.125715
C34   C     C_3   0.908483 0.192913 0.588047 -0.833625
H22   H     H_    0.923293 0.133587 0.652980 0.234416
H23   H     H_    0.014743 0.221992 0.530668 0.207752
H24   H     H_    0.847920 0.277742 0.625302 0.259476

loop_
_geom_bond_atom_site_label_1
_geom_bond_atom_site_label_2
_ccdc_geom_bond_type
O5    Zn1   S    
C23   O5    A    
C2    C4    A    
C15   O9    S    
C9    C28   A    
C6    C7    A    
C27   C29   S    
C5    C28   A    
C11   C13   A    
C18   H3    S    
C10   C30   A    
O6    Zn2   S    
C31   C32   A    
C33   H21   S    
C9    C29   A    
C19   H4    S    
C6    H11   S    
C33   C34   S    
O9    C33   S    
C17   C18   S    
C1    O2    A    
C26   H12   S    
C20   N1    A    
C3    C10   A    
C13   C14   A    
C24   C25   S    
C23   O6    A    
C32   H16   S    
C30   C31   A    
C11   C19   S    
C12   O3    A    
C20   C26   S    
C31   H17   S    
C34   H24   S    
C8    C29   A    
C10   C12   S    
C2    C32   A    
C27   O8    A    
O4    Zn2   S    
C22   N2    A    
C2    C3    A    
C27   O7    A    
C18   H2    S    
C25   H8    S    
C5    C6    A    
O3    Zn1   S    
C28   H13   S    
C1    C13   S    
C12   O4    A    
C15   C16   A    
C16   C17   A    
C20   C24   A    
C30   H15   S    
C24   N2    A    
C16   C23   S    
C26   H10   S    
O7    Zn1   S    
C33   H20   S    
N2    Zn1   S    
C25   H9    S    
C4    C8    A    
O8    Zn2   S    
C34   H23   S    
C14   C15   A    
C18   C19   S    
C19   H5    S    
C3    C7    A    
C8    H14   S    
C25   C26   S    
C21   C22   A    
C22   H7    S    
C1    O1    A    
C34   H22   S    
C21   N1    A    
O1    Zn1   S    
C21   H6    S    
C14   H19   S    
C7    H18   S    
O2    Zn2   S    
C4    C5    A    
C9    H1    S    
N1    Zn2   S    
C11   C17   A    
