data_mof_unit_pretest_1841.cif
_audit_creation_date              2012-12-10T18:16:13-0500
_audit_creation_method            fapswitch 2.2
_symmetry_space_group_name_H-M    P1
_symmetry_Int_Tables_number       1
_space_group_crystal_system       triclinic
_cell_length_a                    42.4147
_cell_length_b                    29.208664
_cell_length_c                    29.202715
_cell_angle_alpha                 89.998329
_cell_angle_beta                  133.895886
_cell_angle_gamma                 90.001063
_cell_volume                      26070.3055549

loop_
_atom_site_label
_atom_site_type_symbol
_atom_type_description
_atom_site_fract_x
_atom_site_fract_y
_atom_site_fract_z
_atom_type_partial_charge
C1    C     C_R   0.499982 0.586679 0.500002 0.907128
C2    C     C_1   0.834529 0.999997 0.333834 0.082141
C3    C     C_3   0.761622 0.962017 0.236987 -0.269138
C4    C     C_1   0.372559 0.500005 0.372712 -0.173868
C5    C     C_1   0.872559 0.999999 0.372712 -0.173866
C6    C     C_1   0.121195 0.499999 0.119534 -0.152845
C7    C     C_1   0.621195 0.999998 0.119540 -0.152859
C8    C     C_3   0.260576 0.499942 0.300929 0.551185
C9    C     C_3   0.760579 0.000097 0.300938 0.551199
C10   C     C_3   0.289044 0.500009 0.286811 -0.106727
C11   C     C_3   0.789044 0.999995 0.286815 -0.106722
C12   C     C_1   0.159186 0.500000 0.155865 0.105249
C13   C     C_1   0.659187 0.999996 0.155876 0.105253
C14   C     C_1   0.499969 0.637262 0.499962 -0.210451
C15   C     C_1   0.499968 0.362738 0.499964 -0.210431
C16   C     C_1   0.999969 0.137262 0.499962 -0.210426
C17   C     C_1   0.999969 0.862738 0.499964 -0.210455
C18   C     C_1   0.499960 0.679400 0.499947 0.014096
C19   C     C_1   0.499960 0.320600 0.499949 0.014114
C20   C     C_1   0.999960 0.179400 0.499947 0.014118
C21   C     C_R   0.499982 0.413321 0.500002 0.907138
C22   C     C_1   0.999960 0.820600 0.499950 0.014092
C23   C     C_1   0.499954 0.729136 0.499944 0.016254
C24   C     C_1   0.499954 0.270864 0.499946 0.016270
C25   C     C_1   0.999954 0.229136 0.499944 0.016273
C26   C     C_1   0.999954 0.770864 0.499946 0.016251
C27   C     C_1   0.499951 0.771272 0.499948 0.015298
C28   C     C_1   0.499951 0.228728 0.499949 0.015312
C29   C     C_1   0.999951 0.271272 0.499947 0.015314
C30   C     C_1   0.999952 0.728728 0.499950 0.015295
C31   C     C_1   0.499951 0.821008 0.499957 0.012406
C32   C     C_R   0.999982 0.086679 0.500002 0.907140
C33   C     C_1   0.499951 0.178992 0.499959 0.012418
C34   C     C_1   0.999951 0.321008 0.499957 0.012419
C35   C     C_1   0.999951 0.678992 0.499959 0.012405
C36   C     C_1   0.499952 0.863146 0.499968 -0.205686
C37   C     C_1   0.499952 0.136854 0.499969 -0.205678
C38   C     C_1   0.999952 0.363146 0.499968 -0.205677
C39   C     C_1   0.999952 0.636854 0.499969 -0.205688
C40   C     C_R   0.417116 0.499999 0.417248 0.940687
C41   C     C_R   0.917116 0.000001 0.417247 0.940687
C42   C     C_1   0.635843 0.500000 0.635577 -0.214168
C43   C     C_R   0.999982 0.913321 0.500002 0.907125
C44   C     C_1   0.135843 1.000000 0.635577 -0.214168
C45   C     C_1   0.677114 0.500000 0.676832 0.022300
C46   C     C_1   0.177114 1.000000 0.676832 0.022300
C47   C     C_1   0.726260 0.500000 0.726029 0.009392
C48   C     C_1   0.226260 0.000000 0.726029 0.009392
C49   C     C_1   0.767533 0.500000 0.767367 0.009376
C50   C     C_1   0.267533 1.000000 0.767367 0.009376
C51   C     C_1   0.816680 0.500000 0.816603 0.022218
C52   C     C_1   0.316680 1.000000 0.816603 0.022218
C53   C     C_1   0.857952 0.500000 0.857950 -0.213967
C54   C     C_3   0.204683 0.500004 0.200683 -0.135076
C55   C     C_1   0.357952 1.000000 0.857950 -0.213967
C56   C     C_R   0.994858 0.500000 0.081679 0.910808
C57   C     C_R   0.494858 1.000000 0.081679 0.910809
C58   C     C_R   0.076694 0.499999 0.077210 0.941277
C59   C     C_R   0.576694 0.999999 0.077210 0.941275
C60   C     C_R   0.992994 0.500000 0.906366 0.904089
C61   C     C_R   0.492994 0.000000 0.906366 0.904088
C62   C     C_R   0.907987 0.500000 0.908066 0.886043
C63   C     C_R   0.407987 1.000000 0.908066 0.886044
C64   C     C_R   0.585808 0.500000 0.585732 0.887179
C65   C     C_3   0.704683 0.999993 0.200695 -0.135067
C66   C     C_R   0.085808 0.000000 0.585732 0.887179
C67   C     C_R   0.499037 1.000000 0.412849 0.896197
C68   C     C_R   0.999037 0.500000 0.412849 0.896197
C69   C     C_R   0.499957 0.913729 0.499984 0.895806
C70   C     C_R   0.499957 0.086270 0.499984 0.895809
C71   C     C_R   0.999957 0.413729 0.499984 0.895809
C72   C     C_R   0.999957 0.586271 0.499984 0.895806
C73   C     C_R   0.500809 1.000000 0.587098 0.895467
C74   C     C_R   0.000809 0.500000 0.587098 0.895467
C75   C     C_1   0.995590 0.499999 0.132977 -0.202910
C76   C     C_3   0.232987 0.500072 0.185861 -0.267767
C77   C     C_1   0.495590 0.999999 0.132977 -0.202911
C78   C     C_1   0.996204 0.499999 0.175726 0.019516
C79   C     C_1   0.496204 0.999999 0.175726 0.019516
C80   C     C_1   0.996923 0.499999 0.226170 0.020420
C81   C     C_1   0.496923 0.999999 0.226170 0.020420
C82   C     C_1   0.497511 0.999999 0.268890 0.018201
C83   C     C_1   0.997511 0.499999 0.268890 0.018201
C84   C     C_1   0.498159 0.999999 0.319263 0.014048
C85   C     C_1   0.998159 0.499999 0.319263 0.014048
C86   C     C_1   0.498632 1.000000 0.361869 -0.204693
C87   C     C_3   0.732984 0.999890 0.185868 -0.267792
C88   C     C_1   0.998632 0.500000 0.361869 -0.204694
C89   C     C_1   0.994074 0.500001 0.856847 -0.212845
C90   C     C_1   0.494074 0.000001 0.856847 -0.212846
C91   C     C_3   0.232521 0.537260 0.250707 0.570840
C92   C     C_3   0.232526 0.462685 0.250599 0.570844
C93   C     C_3   0.732521 0.037332 0.250571 0.570835
C94   C     C_3   0.732530 0.962758 0.250757 0.570869
C95   C     C_1   0.995325 0.500001 0.815967 0.011542
C96   C     C_1   0.495325 0.000001 0.815967 0.011541
C97   C     C_1   0.996983 0.500001 0.767896 0.013884
C98   C     C_1   0.334529 0.500008 0.333833 0.082142
C99   C     C_1   0.496983 0.000001 0.767896 0.013884
C100  C     C_1   0.498372 0.000001 0.727160 0.013475
C101  C     C_1   0.998372 0.500001 0.727160 0.013475
C102  C     C_1   0.499827 0.000000 0.678879 0.011336
C103  C     C_1   0.999826 0.500000 0.678879 0.011336
C104  C     C_1   0.500670 0.000000 0.637576 -0.206851
C105  C     C_1   0.000670 0.500000 0.637576 -0.206851
C106  C     C_3   0.261617 0.537966 0.236941 -0.269187
C107  C     C_3   0.261622 0.462116 0.236831 -0.269197
C108  C     C_3   0.761614 0.037867 0.236797 -0.269263
F1    F     F_    0.216053 0.575350 0.256339 -0.611591
F2    F     F_    0.216063 0.424525 0.256122 -0.611583
F3    F     F_    0.716052 0.075510 0.256055 -0.611569
F4    F     F_    0.716071 0.924686 0.256434 -0.611608
F5    F     F_    0.276092 0.499875 0.361027 -0.595696
F6    F     F_    0.776099 0.000203 0.361038 -0.595702
H1    H     H_    0.275033 0.568822 0.233251 0.188645
H2    H     H_    0.275042 0.431315 0.233053 0.188649
H3    H     H_    0.775025 0.068653 0.232981 0.188669
H4    H     H_    0.775043 0.931148 0.233329 0.188630
H5    H     H_    0.220073 0.500125 0.137326 0.192843
H6    H     H_    0.720068 0.999806 0.137332 0.192848
O1    O     O_R   0.500400 0.563130 0.536080 -0.592989
O2    O     O_R   0.963990 0.500000 0.400890 -0.593089
O3    O     O_R   0.534410 1.000000 0.471310 -0.590499
O4    O     O_R   0.034410 0.500000 0.471310 -0.590499
O5    O     O_R   0.464750 0.936830 0.464780 -0.591917
O6    O     O_R   0.464750 0.063170 0.464780 -0.591912
O7    O     O_R   0.964750 0.436830 0.464780 -0.591912
O8    O     O_R   0.964750 0.563170 0.464780 -0.591918
O9    O     O_R   0.535170 0.936820 0.535200 -0.592313
O10   O     O_R   0.535170 0.063180 0.535200 -0.592313
O11   O     O_R   0.035170 0.436820 0.535200 -0.592313
O12   O     O_R   0.500400 0.436870 0.536080 -0.592979
O13   O     O_R   0.035170 0.563180 0.535200 -0.592313
O14   O     O_R   0.465520 0.000000 0.528690 -0.591673
O15   O     O_R   0.965520 0.500000 0.528690 -0.591673
O16   O     O_R   0.535930 1.000000 0.599110 -0.592872
O17   O     O_R   0.035930 0.500000 0.599110 -0.592872
O18   O     O_R   0.499540 0.563080 0.463930 -0.597141
O19   O     O_R   0.499540 0.436920 0.463930 -0.597144
O20   O     O_R   0.999540 0.063080 0.463930 -0.597142
O21   O     O_R   0.999540 0.936920 0.463930 -0.597143
O22   O     O_R   0.438030 0.500000 0.473700 -0.595923
O23   O     O_R   0.000400 0.063130 0.536080 -0.592980
O24   O     O_R   0.938030 1.000000 0.473700 -0.595921
O25   O     O_R   0.437170 0.500000 0.401550 -0.617666
O26   O     O_R   0.937170 1.000000 0.401550 -0.617667
O27   O     O_R   0.562760 0.500000 0.598450 -0.591670
O28   O     O_R   0.062760 1.000000 0.598450 -0.591670
O29   O     O_R   0.561900 0.500000 0.526300 -0.591245
O30   O     O_R   0.061900 0.000000 0.526300 -0.591245
O31   O     O_R   0.994600 0.535610 0.057840 -0.593952
O32   O     O_R   0.994600 0.464390 0.057840 -0.593948
O33   O     O_R   0.494600 0.035610 0.057840 -0.593948
O34   O     O_R   0.000400 0.936870 0.536080 -0.592989
O35   O     O_R   0.494600 0.964390 0.057840 -0.593952
O36   O     O_R   0.056200 0.535620 0.056290 -0.604990
O37   O     O_R   0.056200 0.464380 0.056290 -0.604968
O38   O     O_R   0.556200 0.035620 0.056290 -0.604941
O39   O     O_R   0.556200 0.964380 0.056290 -0.605017
O40   O     O_R   0.993060 0.535640 0.930020 -0.595760
O41   O     O_R   0.993060 0.464360 0.930020 -0.595750
O42   O     O_R   0.493060 0.035640 0.930020 -0.595744
O43   O     O_R   0.493060 0.964360 0.930020 -0.595766
O44   O     O_R   0.931470 0.535630 0.931560 -0.591873
O45   O     O_R   0.931470 0.464370 0.931560 -0.591869
O46   O     O_R   0.431470 0.035630 0.931560 -0.591869
O47   O     O_R   0.431470 0.964370 0.931560 -0.591872
O48   O     O_R   0.463990 1.000000 0.400890 -0.593089
Zn1   Zn    Zn3+2 0.500540 0.500000 0.548170 1.002904
Zn2   Zn    Zn3+2 0.952950 0.500000 0.452980 0.984296
Zn3   Zn    Zn3+2 0.546980 1.000000 0.547020 0.984581
Zn4   Zn    Zn3+2 0.046980 0.500000 0.547020 0.984581
Zn5   Zn    Zn3+2 0.000540 1.000000 0.548170 1.002906
Zn6   Zn    Zn3+2 0.499390 0.500000 0.451830 0.981532
Zn7   Zn    Zn3+2 0.999390 0.000000 0.451830 0.981532
Zn8   Zn    Zn3+2 0.993830 0.547580 0.993940 0.997212
Zn9   Zn    Zn3+2 0.993830 0.452420 0.993940 0.997252
Zn10  Zn    Zn3+2 0.493830 0.047580 0.993940 0.997266
Zn11  Zn    Zn3+2 0.493830 0.952420 0.993940 0.997195
Zn12  Zn    Zn3+2 0.452950 1.000000 0.452980 0.984296

loop_
_geom_bond_atom_site_label_1
_geom_bond_atom_site_label_2
_ccdc_geom_bond_type
C67   O48   A    
O1    Zn1   S    
O8    Zn2   S    
C4    C98   T    
O45   Zn9   S    
C6    C58   S    
C44   C66   S    
C68   O4    A    
C81   C82   T    
C47   C49   T    
C13   C65   S    
C60   C89   S    
C36   C69   S    
O7    Zn2   S    
C15   C19   T    
C57   O35   A    
C40   O25   A    
C72   O8    A    
C9    F6    S    
O13   Zn4   S    
C84   C86   T    
C66   O30   A    
C40   O22   A    
C93   C108  S    
C6    C12   T    
C59   O38   A    
C78   C80   S    
C20   C25   S    
C96   C99   S    
C70   O10   A    
O29   Zn6   S    
O15   Zn2   S    
O32   Zn9   S    
C10   C98   S    
C14   C18   T    
O17   Zn4   S    
C38   C71   S    
C59   O39   A    
C73   C104  S    
C62   O44   A    
C87   C108  S    
C4    C40   S    
O35   Zn11  S    
O2    Zn2   S    
C55   C63   S    
O24   Zn5   S    
O18   Zn6   S    
C50   C52   S    
C39   C72   S    
O16   Zn3   S    
O6    Zn12  S    
O46   Zn10  S    
C17   C22   T    
C23   C27   T    
C56   O32   A    
C43   O34   A    
C24   C28   T    
C66   O28   A    
C52   C55   T    
C70   O6    A    
C63   O47   A    
O30   Zn7   S    
C69   O5    A    
C101  C103  S    
C56   C75   S    
C34   C38   T    
C37   C70   S    
C74   O15   A    
O40   Zn8   S    
C91   C106  S    
C71   O7    A    
C10   C107  S    
C80   C83   T    
C2    C11   S    
C7    C59   S    
C44   C46   T    
C65   C87   S    
C63   O46   A    
C25   C29   T    
C74   O17   A    
C46   C48   S    
O11   Zn4   S    
C76   H5    S    
C41   O26   A    
C27   C31   S    
C61   O42   A    
C57   C77   S    
C41   O24   A    
C68   O2    A    
C79   C81   S    
C49   C51   S    
O48   Zn12  S    
C3    C87   S    
C29   C34   S    
C33   C37   T    
C18   C23   S    
C51   C53   T    
C42   C45   T    
C89   C95   T    
C35   C39   T    
C17   C43   S    
C21   O12   A    
C54   C92   S    
C3    H4    S    
C53   C62   S    
C92   C107  S    
C99   C100  T    
O4    Zn4   S    
C73   O16   A    
C7    C13   T    
O10   Zn3   S    
C16   C20   T    
C12   C54   S    
C97   C101  T    
O26   Zn7   S    
O5    Zn12  S    
C100  C102  S    
C60   O41   A    
C77   C79   T    
C103  C105  T    
C8    C91   S    
O37   Zn9   S    
C73   O14   A    
C56   O31   A    
C102  C104  T    
C48   C50   T    
C9    C11   S    
C58   O36   A    
C8    F5    S    
C93   F3    S    
O22   Zn1   S    
C8    C92   S    
C30   C35   S    
C87   H6    S    
C65   C94   S    
C83   C85   S    
C28   C33   S    
C26   C30   T    
C76   C107  S    
C82   C84   S    
C64   O27   A    
O43   Zn11  S    
C68   C88   S    
C54   C76   S    
C10   C106  S    
C2    C5    T    
O12   Zn1   S    
O23   Zn5   S    
O41   Zn9   S    
C9    C93   S    
C61   C90   S    
C85   C88   T    
C5    C41   S    
O33   Zn10  S    
O36   Zn8   S    
C67   C86   S    
C76   C106  S    
O31   Zn8   S    
O34   Zn5   S    
C61   O43   A    
C108  H3    S    
O9    Zn3   S    
C8    C10   S    
C60   O40   A    
O39   Zn11  S    
C58   O37   A    
C67   O3    A    
C42   C64   S    
C95   C97   S    
C90   C96   T    
C16   C32   S    
C64   O29   A    
O28   Zn5   S    
C106  H1    S    
C91   F1    S    
C19   C24   S    
O38   Zn10  S    
C54   C91   S    
O47   Zn11  S    
C74   C105  S    
C32   O23   A    
C92   F2    S    
C72   O13   A    
C57   O33   A    
O20   Zn7   S    
C94   F4    S    
C65   C93   S    
O44   Zn8   S    
C3    C94   S    
C32   O20   A    
C75   C78   T    
C1    O1    A    
C107  H2    S    
O42   Zn10  S    
C3    C11   S    
C71   O11   A    
C15   C21   S    
C62   O45   A    
C45   C47   S    
O25   Zn6   S    
C69   O9    A    
C22   C26   S    
C11   C108  S    
O21   Zn7   S    
C21   O19   A    
C31   C36   T    
O19   Zn6   S    
C1    C14   S    
O14   Zn12  S    
C9    C94   S    
O3    Zn3   S    
C1    O18   A    
O27   Zn1   S    
C43   O21   A    
