data_mof_unit_pretest_1964.cif
_audit_creation_date              2012-10-26T21:17:02-0400
_audit_creation_method            fapswitch 2.2
_symmetry_space_group_name_H-M    P1
_symmetry_Int_Tables_number       1
_space_group_crystal_system       triclinic
_cell_length_a                    14.33681
_cell_length_b                    10.973182
_cell_length_c                    9.733939
_cell_angle_alpha                 89.525027
_cell_angle_beta                  89.196164
_cell_angle_gamma                 89.748995
_cell_volume                      1531.13018055

loop_
_atom_site_label
_atom_site_type_symbol
_atom_type_description
_atom_site_fract_x
_atom_site_fract_y
_atom_site_fract_z
_atom_type_partial_charge
C1    C     C_R   0.493765 0.265954 0.500816 0.560009
C2    C     C_R   0.503260 0.733857 0.499323 0.548208
C3    C     C_R   0.668825 0.500060 0.499166 0.518171
C4    C     C_1   0.228844 0.500425 0.502115 -0.037153
C5    C     C_1   0.143412 0.500592 0.501793 -0.051404
C6    C     C_1   0.042744 0.500691 0.500536 -0.014136
C7    C     C_1   0.957308 0.500684 0.499276 -0.012717
C8    C     C_1   0.856631 0.500565 0.498057 -0.055925
C9    C     C_3   0.306302 0.854748 0.408394 -0.284245
C10   C     C_3   0.668099 0.856779 0.572919 -0.127903
C11   C     C_3   0.574486 0.037940 0.198076 -0.140554
C12   C     C_1   0.771188 0.500364 0.497795 -0.059227
C13   C     C_3   0.349055 0.129374 0.659117 -0.134336
C14   C     C_3   0.288944 0.401915 0.960734 -0.138741
C15   C     C_3   0.344387 0.718718 0.040213 -0.125207
C16   C     C_3   0.641291 0.389536 0.113149 -0.239103
C17   C     C_2   0.463634 0.933843 0.410839 0.146096
C18   C     C_2   0.516127 0.865269 0.495864 0.294003
C19   C     C_2   0.485098 0.064438 0.395401 0.279305
C20   C     C_2   0.471593 0.136106 0.505773 0.301158
C21   C     C_2   0.425705 0.506349 0.926049 0.380260
C22   C     C_2   0.435368 0.546737 0.075629 0.408226
C23   C     C_R   0.331182 0.500196 0.500811 0.526238
Cu1   Cu    Cu3+1 0.500020 0.500020 0.638630 0.977483
Cu2   Cu    Cu3+1 0.499980 0.499980 0.361370 0.992020
H1    H     H_    0.560598 0.528040 0.888620 0.186435
H2    H     H_    0.633221 0.009105 0.264809 0.117701
H3    H     H_    0.604835 0.089716 0.110015 0.144918
H4    H     H_    0.303208 0.129422 0.567630 0.075411
H5    H     H_    0.351736 0.222179 0.703463 0.164228
H6    H     H_    0.316487 0.068635 0.737616 0.134518
H7    H     H_    0.261833 0.451015 0.052417 0.146152
H8    H     H_    0.331763 0.321654 0.992141 0.110005
H9    H     H_    0.227886 0.366799 0.904850 0.127378
H10   H     H_    0.293551 0.681690 0.966739 0.152115
H11   H     H_    0.404936 0.760865 0.985174 0.114136
H12   H     H_    0.376145 0.934090 0.244452 0.250844
H13   H     H_    0.307186 0.791976 0.096266 0.129661
H14   H     H_    0.506566 0.315828 0.121565 0.297466
H15   H     H_    0.671583 0.340979 0.023371 0.116416
H16   H     H_    0.659633 0.337499 0.207330 0.176544
H17   H     H_    0.672022 0.482304 0.115670 0.146778
H18   H     H_    0.256323 0.807964 0.340815 0.153627
H19   H     H_    0.273140 0.939671 0.446978 0.120483
H20   H     H_    0.321170 0.793186 0.496488 0.156340
H21   H     H_    0.689086 0.832548 0.465887 0.083154
H22   H     H_    0.664952 0.774044 0.639303 0.141861
H23   H     H_    0.723260 0.916374 0.613937 0.140631
H24   H     H_    0.538595 0.957284 0.155676 0.138279
N1    N     N_2   0.499070 0.498660 0.846910 -0.314608
N2    N     N_2   0.499040 0.498630 0.153040 -0.140601
N3    N     N_2   0.390627 0.883255 0.331188 -0.515015
N4    N     N_2   0.541262 0.395704 0.099156 -0.464084
O1    O     O_R   0.500010 0.321960 0.617040 -0.471437
O2    O     O_3   0.510946 0.114515 0.268541 -0.608136
O3    O     O_3   0.439650 0.085134 0.629014 -0.554994
O4    O     O_3   0.338960 0.481097 0.872080 -0.550397
O5    O     O_3   0.373010 0.628872 0.135601 -0.539754
O6    O     O_R   0.499990 0.321920 0.382900 -0.479573
O7    O     O_R   0.376070 0.500020 0.617100 -0.431045
O8    O     O_R   0.376040 0.499980 0.382950 -0.447540
O9    O     O_R   0.500010 0.678080 0.617100 -0.502602
O10   O     O_R   0.499990 0.678040 0.382960 -0.463336
O11   O     O_R   0.623960 0.500020 0.617050 -0.495508
O12   O     O_R   0.623930 0.499980 0.382900 -0.494847
O13   O     O_3   0.582584 0.921024 0.577511 -0.562129

loop_
_geom_bond_atom_site_label_1
_geom_bond_atom_site_label_2
_ccdc_geom_bond_type
C14   H9    S    
C1    O1    A    
Cu2   N2    S    
C15   H13   S    
C9    H20   S    
C6    C7    T    
C11   H24   S    
C19   O2    S    
C18   O13   S    
C15   H11   S    
C19   C20   D    
C11   H2    S    
C8    C12   T    
C13   O3    S    
C14   H8    S    
C1    O6    A    
C17   C18   D    
C3    C12   S    
C10   O13   S    
C7    C8    S    
Cu1   O11   S    
Cu2   O8    S    
C3    O11   A    
C2    O10   A    
C21   O4    S    
C23   O7    A    
H14   N4    S    
Cu1   N1    S    
C22   O5    S    
C3    O12   A    
C9    N3    S    
C11   H3    S    
C16   H15   S    
C17   N3    S    
C15   H10   S    
C21   N1    D    
C17   C19   S    
C20   O3    S    
H1    N1    S    
C10   H23   S    
C5    C6    S    
C15   O5    S    
C9    H18   S    
C2    C18   S    
H12   N3    S    
C10   H21   S    
C16   H17   S    
C13   H5    S    
C23   O8    A    
C11   O2    S    
Cu2   O12   S    
Cu1   Cu2   S    
Cu2   O10   S    
C13   H4    S    
C10   H22   S    
C4    C23   S    
C14   O4    S    
C16   N4    S    
C22   N2    D    
C9    H19   S    
Cu1   O9    S    
Cu1   O7    S    
Cu2   O6    S    
N2    N4    S    
C21   C22   S    
Cu1   O1    S    
C16   H16   S    
C13   H6    S    
C2    O9    A    
C14   H7    S    
C4    C5    T    
C1    C20   S    
