data_mof_unit_pretest_211.cif
_audit_creation_date              2012-12-10T17:33:41-0500
_audit_creation_method            fapswitch 2.2
_symmetry_space_group_name_H-M    P1
_symmetry_Int_Tables_number       1
_space_group_crystal_system       triclinic
_cell_length_a                    11.698718
_cell_length_b                    12.374625
_cell_length_c                    13.252025
_cell_angle_alpha                 117.071743
_cell_angle_beta                  77.627658
_cell_angle_gamma                 101.374142
_cell_volume                      1657.59526372

loop_
_atom_site_label
_atom_site_type_symbol
_atom_type_description
_atom_site_fract_x
_atom_site_fract_y
_atom_site_fract_z
_atom_type_partial_charge
C1    C     C_R   0.513652 0.854879 0.286541 0.879634
C2    C     C_R   0.500623 0.228864 0.831426 -0.064763
C3    C     C_R   0.436049 0.807591 0.111019 -0.211607
C4    C     C_R   0.398426 0.722785 0.008145 -0.120759
C5    C     C_R   0.423450 0.602507 0.960713 -0.126452
C6    C     C_R   0.493849 0.566086 0.012087 0.021852
C7    C     C_R   0.542246 0.656933 0.110590 -0.021253
C8    C     C_R   0.518002 0.443059 0.969518 0.029064
C9    C     C_R   0.594068 0.414900 0.022711 0.072274
C10   C     C_R   0.654400 0.509872 0.107287 -0.251208
C11   C     C_R   0.630271 0.629440 0.149858 0.528576
C12   C     C_R   0.715679 0.999809 0.499754 0.856260
C13   C     C_R   0.471934 0.347499 0.873748 -0.205079
C14   C     C_R   0.566076 0.200189 0.890609 -0.236586
C15   C     C_R   0.504003 0.774390 0.165306 -0.060147
C16   C     C_R   0.691222 0.351874 0.338562 -0.284750
C17   C     C_R   0.337661 0.761883 0.640562 -0.071904
C18   C     C_R   0.291550 0.664266 0.666547 0.574333
C19   C     C_R   0.344975 0.556497 0.613079 0.045942
C20   C     C_R   0.453135 0.549032 0.535358 -0.131492
C21   C     C_R   0.493176 0.652403 0.509386 0.202323
C22   C     C_R   0.522310 0.446220 0.478800 0.009972
C23   C     C_R   0.487065 0.145321 0.712927 0.791886
C24   C     C_R   0.624004 0.450278 0.398583 0.165000
C25   C     C_R   0.659615 0.552742 0.378398 -0.255315
C26   C     C_R   0.593592 0.649266 0.429730 -0.113409
C27   C     C_R   0.500202 0.340544 0.498968 0.020339
C28   C     C_R   0.659675 0.249058 0.358606 0.080815
C29   C     C_R   0.284323 0.000137 0.500171 0.807103
C30   C     C_1   0.837476 0.999707 0.499714 -0.143816
C31   C     C_1   0.940039 0.999748 0.499754 0.020810
C32   C     C_1   0.059957 0.999921 0.499880 0.016799
C33   C     C_1   0.162522 0.000066 0.500019 -0.164221
C34   C     C_R   0.613715 0.292688 0.985973 0.187020
Cu1   Cu    Cu3+1 0.526510 0.098270 0.475420 0.952783
Cu2   Cu    Cu3+1 0.473490 0.901730 0.524580 0.954404
H1    H     H_    0.588493 0.108039 0.857546 0.153278
H2    H     H_    0.740069 0.558686 0.321993 0.173833
H3    H     H_    0.767660 0.354579 0.276480 0.156535
H4    H     H_    0.434765 0.330042 0.564108 0.130259
H5    H     H_    0.293403 0.843472 0.681295 0.174829
H6    H     H_    0.623439 0.720420 0.403782 0.253944
H7    H     H_    0.723597 0.491980 0.138071 0.190536
H8    H     H_    0.418698 0.362983 0.825623 0.127899
H9    H     H_    0.406879 0.897665 0.151221 0.154656
H10   H     H_    0.386951 0.541165 0.883593 0.127062
H11   H     H_    0.344746 0.748928 0.967512 0.171780
H12   H     H_    0.710694 0.172308 0.312900 0.137604
N1    N     N_R   0.566700 0.246290 0.438210 -0.187790
N2    N     N_R   0.434010 0.754320 0.561170 -0.244161
O1    O     O_R   0.533340 0.972510 0.318140 -0.589106
O2    O     O_R   0.488570 0.806530 0.359650 -0.576354
O3    O     O_R   0.685190 0.083000 0.479260 -0.570932
O4    O     O_R   0.640410 0.917020 0.520770 -0.590510
O5    O     O_R   0.511430 0.193470 0.640350 -0.583045
O6    O     O_R   0.466660 0.027490 0.681860 -0.585852
O7    O     O_R   0.359590 0.082980 0.479230 -0.586766
O8    O     O_R   0.314810 0.917000 0.520740 -0.574343
N3    N     N_3   0.279962 0.457117 0.635382 -0.530043
H13   H     H_    0.268319 0.379267 0.558907 0.225265
H14   H     H_    0.318166 0.444220 0.692861 0.203938
F1    F     F_    0.190986 0.672933 0.742017 -0.643062
N4    N     N_3   0.685568 0.262884 0.042780 -0.618941
H15   H     H_    0.755822 0.220480 0.982818 0.225032
H16   H     H_    0.635039 0.199782 0.071321 0.226531
F2    F     F_    0.700237 0.719640 0.222484 -0.706504

loop_
_geom_bond_atom_site_label_1
_geom_bond_atom_site_label_2
_ccdc_geom_bond_type
C17   N2    A    
C14   C34   A    
C21   C26   A    
N4    H16   S    
C24   C25   A    
C16   C28   A    
C8    C13   A    
Cu2   O6    S    
C23   O5    A    
C25   H2    S    
Cu1   O3    S    
C5    H10   S    
C19   C20   A    
Cu2   O2    S    
C11   F2    S    
C27   H4    S    
Cu1   O7    S    
C12   C30   S    
C32   C33   T    
C7    C15   A    
C17   C18   A    
C10   H7    S    
C3    C15   A    
N3    H13   S    
C16   C24   A    
C12   O4    A    
C29   O8    A    
C14   H1    S    
C7    C11   A    
C4    C5    A    
C1    O1    A    
C30   C31   T    
C6    C7    A    
C12   O3    A    
C1    C15   S    
Cu1   N1    S    
C9    C10   A    
C34   N4    S    
C29   O7    A    
C9    C34   A    
Cu2   O8    S    
C22   C27   A    
Cu1   O1    S    
C5    C6    A    
C2    C14   A    
C1    O2    A    
C22   C24   A    
N3    H14   S    
C17   H5    S    
Cu2   O4    S    
C10   C11   A    
C16   H3    S    
Cu1   O5    S    
C3    C4    A    
C27   N1    A    
C23   O6    A    
Cu2   N2    S    
C20   C21   A    
C26   H6    S    
C18   C19   A    
C28   N1    A    
C2    C23   S    
C2    C13   A    
C28   H12   S    
C6    C8    A    
C21   N2    A    
C19   N3    S    
C25   C26   A    
N4    H15   S    
C4    H11   S    
C3    H9    S    
C13   H8    S    
C18   F1    S    
C31   C32   S    
C29   C33   S    
C20   C22   A    
C8    C9    A    
Cu1   Cu2   S    
