data_mof_unit_pretest_1956.cif
_audit_creation_date              2012-12-10T17:28:57-0500
_audit_creation_method            fapswitch 2.2
_symmetry_space_group_name_H-M    P1
_symmetry_Int_Tables_number       1
_space_group_crystal_system       triclinic
_cell_length_a                    18.652703
_cell_length_b                    18.711585
_cell_length_c                    18.599334
_cell_angle_alpha                 109.455342
_cell_angle_beta                  109.332709
_cell_angle_gamma                 109.599259
_cell_volume                      4998.81711519

loop_
_atom_site_label
_atom_site_type_symbol
_atom_type_description
_atom_site_fract_x
_atom_site_fract_y
_atom_site_fract_z
_atom_type_partial_charge
C1    C     C_R   0.621975 0.502076 0.620194 0.753923
C2    C     C_R   0.378051 0.497957 0.379803 0.754807
C3    C     C_3   0.333529 0.236810 0.498565 -0.377527
C4    C     C_3   0.663117 0.759578 0.494927 -0.380845
C5    C     C_3   0.312548 0.311083 0.501839 0.167143
C6    C     C_3   0.687806 0.688955 0.498526 0.166915
C7    C     C_3   0.189219 0.188094 0.499033 0.166823
C8    C     C_3   0.810815 0.812256 0.501330 0.166857
C9    C     C_3   0.150164 0.200798 0.419231 -0.354021
C10   C     C_3   0.848886 0.804288 0.584651 -0.356093
C11   C     C_3   0.259842 0.163440 0.494663 -0.381900
C12   C     C_3   0.736546 0.833265 0.498891 -0.378683
C13   C     C_3   0.741571 0.588965 0.778589 -0.361575
C14   C     C_3   0.259063 0.411484 0.221156 -0.361314
C15   C     C_3   0.813694 0.588218 0.848893 -0.392017
C16   C     C_3   0.186968 0.412255 0.150859 -0.392601
C17   C     C_3   0.647410 0.424943 0.702560 -0.402371
C18   C     C_3   0.352480 0.575700 0.298149 -0.402360
C19   C     C_3   0.758386 0.491454 0.661729 -0.367081
C20   C     C_3   0.241126 0.507654 0.337907 -0.367606
C21   C     C_3   0.690964 0.502178 0.689330 0.165692
C22   C     C_3   0.309042 0.497859 0.310674 0.165416
C23   C     C_R   0.381569 0.380098 0.501800 0.754481
C24   C     C_R   0.618803 0.619902 0.498551 0.754404
C25   C     C_3   0.810868 0.499503 0.810250 0.164506
C26   C     C_3   0.189121 0.500581 0.189829 0.164915
C27   C     C_3   0.717437 0.424726 0.775365 -0.353076
C28   C     C_3   0.282443 0.575997 0.225436 -0.353302
C29   C     C_3   0.827071 0.486897 0.731483 -0.388754
C30   C     C_3   0.172308 0.512097 0.268132 -0.388062
C31   C     C_3   0.997690 0.311490 0.807979 0.125534
C32   C     C_3   0.002433 0.688501 0.192143 0.125764
C33   C     C_R   0.000529 0.120394 0.620260 0.764336
C34   C     C_R   0.999612 0.879742 0.379740 0.765158
C35   C     C_R   0.120010 0.119004 0.498831 0.753946
C36   C     C_R   0.879988 0.881363 0.501515 0.754227
C37   C     C_R   0.002258 0.619925 0.122388 0.753351
C38   C     C_R   0.997865 0.380064 0.877730 0.753733
C39   C     C_R   0.879794 0.499266 0.879236 0.750393
C40   C     C_R   0.120199 0.500795 0.120827 0.750248
C41   C     C_3   0.908787 0.154569 0.680872 -0.397683
C42   C     C_3   0.092088 0.844639 0.320696 -0.395973
C43   C     C_3   0.070248 0.219833 0.783298 -0.364558
C44   C     C_3   0.931674 0.782018 0.216668 -0.364912
C45   C     C_3   0.018651 0.342101 0.744613 0.025882
C46   C     C_3   0.979039 0.657036 0.254069 0.026910
C47   C     C_3   0.070169 0.293133 0.852966 -0.448261
C48   C     C_3   0.931693 0.708666 0.147004 -0.447833
C49   C     C_3   0.908512 0.224051 0.754053 -0.365389
C50   C     C_3   0.092482 0.775130 0.247636 -0.366769
C51   C     C_3   0.000695 0.189827 0.688967 0.126056
C52   C     C_3   0.999486 0.810305 0.311059 0.125689
C53   C     C_3   0.021720 0.270404 0.675770 -0.364939
C54   C     C_3   0.975980 0.728843 0.322809 -0.366352
C55   C     C_3   0.305004 0.348817 0.585584 -0.357121
C56   C     C_3   0.700139 0.650208 0.418273 -0.355034
C57   C     C_3   0.233918 0.275934 0.584774 -0.397852
C58   C     C_3   0.770951 0.723175 0.418927 -0.399581
C59   C     C_3   0.223112 0.271610 0.419898 -0.400665
C60   C     C_3   0.776006 0.733284 0.583883 -0.399071
Cu1   Cu    Cu3+1 0.499950 0.562450 0.562440 0.904238
Cu2   Cu    Cu3+1 0.500050 0.437550 0.437560 0.904271
Cu3   Cu    Cu3+1 0.062480 0.999960 0.562430 0.904541
Cu4   Cu    Cu3+1 0.937520 0.000040 0.437570 0.904552
Cu5   Cu    Cu3+1 0.062470 0.562430 0.999950 0.904260
Cu6   Cu    Cu3+1 0.937530 0.437570 0.000050 0.904194
H1    H     H_    0.085111 0.401537 0.784078 0.157451
H2    H     H_    0.912113 0.598177 0.213508 0.157439
H3    H     H_    0.340041 0.208358 0.439746 0.175632
H4    H     H_    0.653059 0.788521 0.551025 0.174877
H5    H     H_    0.397237 0.263730 0.557697 0.143112
H6    H     H_    0.600322 0.729152 0.433269 0.142548
H7    H     H_    0.289020 0.153198 0.550463 0.174840
H8    H     H_    0.707897 0.840095 0.440413 0.175584
H9    H     H_    0.229161 0.100901 0.432758 0.141361
H10   H     H_    0.763725 0.896678 0.558372 0.142206
H11   H     H_    0.226039 0.242213 0.358866 0.163109
H12   H     H_    0.769723 0.763574 0.642447 0.165537
H13   H     H_    0.116180 0.137993 0.356608 0.155315
H14   H     H_    0.879565 0.868193 0.645012 0.152642
H15   H     H_    0.695618 0.597599 0.801810 0.174542
H16   H     H_    0.305415 0.403561 0.198245 0.174410
H17   H     H_    0.771841 0.645819 0.770262 0.150263
H18   H     H_    0.228855 0.354262 0.228998 0.150690
H19   H     H_    0.879021 0.642869 0.872068 0.169435
H20   H     H_    0.121703 0.357152 0.127112 0.169118
H21   H     H_    0.804005 0.599512 0.906792 0.143098
H22   H     H_    0.197107 0.401731 0.093287 0.143294
H23   H     H_    0.088161 0.297150 0.682558 0.117633
H24   H     H_    0.909008 0.702709 0.314801 0.118253
H25   H     H_    0.597581 0.430359 0.720863 0.147278
H26   H     H_    0.402642 0.570957 0.280106 0.147048
H27   H     H_    0.702820 0.433212 0.830056 0.168744
H28   H     H_    0.297475 0.568295 0.171080 0.169121
H29   H     H_    0.724778 0.430600 0.597379 0.177684
H30   H     H_    0.274300 0.568257 0.402363 0.177514
H31   H     H_    0.791801 0.547555 0.653716 0.144850
H32   H     H_    0.207877 0.451203 0.345558 0.144657
H33   H     H_    0.893961 0.538164 0.753769 0.176788
H34   H     H_    0.105525 0.460212 0.245304 0.176817
H35   H     H_    0.822654 0.422188 0.701356 0.144942
H36   H     H_    0.175954 0.576407 0.298385 0.144222
H37   H     H_    0.612634 0.361770 0.640104 0.160835
H38   H     H_    0.386842 0.638576 0.360803 0.161356
H39   H     H_    0.714013 0.360114 0.748681 0.157775
H40   H     H_    0.285363 0.640327 0.252394 0.157433
H41   H     H_    0.897343 0.198830 0.798035 0.179910
H42   H     H_    0.105534 0.801065 0.204715 0.180211
H43   H     H_    0.890275 0.093841 0.685528 0.142747
H44   H     H_    0.112327 0.905930 0.317086 0.142497
H45   H     H_    0.974420 0.250506 0.607891 0.188972
H46   H     H_    0.021947 0.747565 0.390716 0.188305
H47   H     H_    0.858401 0.137268 0.615662 0.172638
H48   H     H_    0.141207 0.860695 0.385949 0.173240
H49   H     H_    0.852647 0.234060 0.725369 0.144278
H50   H     H_    0.147270 0.763835 0.276568 0.143386
H51   H     H_    0.136834 0.244258 0.790396 0.164942
H52   H     H_    0.864645 0.758220 0.208404 0.165890
H53   H     H_    0.055695 0.163398 0.795138 0.173922
H54   H     H_    0.948025 0.839158 0.205933 0.173053
H55   H     H_    0.059225 0.273305 0.900302 0.165183
H56   H     H_    0.944456 0.729226 0.100730 0.166126
H57   H     H_    0.135645 0.353627 0.891237 0.156602
H58   H     H_    0.865655 0.648747 0.107549 0.155625
H59   H     H_    0.287690 0.400806 0.588796 0.174456
H60   H     H_    0.720113 0.600782 0.420125 0.172872
H61   H     H_    0.369195 0.379177 0.645618 0.152396
H62   H     H_    0.637029 0.616454 0.355920 0.155112
H63   H     H_    0.264417 0.269410 0.643034 0.165786
H64   H     H_    0.741261 0.726372 0.358193 0.163552
H65   H     H_    0.184187 0.294232 0.590172 0.145408
H66   H     H_    0.823311 0.707363 0.418402 0.147789
H67   H     H_    0.207286 0.323961 0.419994 0.145939
H68   H     H_    0.794322 0.683548 0.588743 0.143842
H69   H     H_    0.100712 0.220734 0.421666 0.172869
H70   H     H_    0.900844 0.786884 0.587192 0.174508
O1    O     O_R   0.591120 0.552750 0.643890 -0.593822
O2    O     O_R   0.408880 0.447250 0.356110 -0.593578
O3    O     O_R   0.947240 0.538460 0.091150 -0.597767
O4    O     O_R   0.052760 0.461540 0.908850 -0.597548
O5    O     O_R   0.961590 0.552710 0.908800 -0.592960
O6    O     O_R   0.038410 0.447290 0.091200 -0.593167
O7    O     O_R   0.856080 0.447270 0.908890 -0.593478
O8    O     O_R   0.143920 0.552730 0.091110 -0.593539
O9    O     O_R   0.591210 0.447270 0.538420 -0.592864
O10   O     O_R   0.408790 0.552730 0.461580 -0.592604
O11   O     O_R   0.408810 0.461590 0.552740 -0.593544
O12   O     O_R   0.591190 0.538410 0.447260 -0.593777
O13   O     O_R   0.408900 0.356100 0.447280 -0.592979
O14   O     O_R   0.591100 0.643900 0.552720 -0.592815
O15   O     O_R   0.052750 0.091090 0.643890 -0.593809
O16   O     O_R   0.947250 0.908910 0.356110 -0.593555
O17   O     O_R   0.947230 0.091150 0.538450 -0.593230
O18   O     O_R   0.052770 0.908850 0.461550 -0.592954
O19   O     O_R   0.143910 0.091120 0.552710 -0.592843
O20   O     O_R   0.856090 0.908880 0.447290 -0.592894
O21   O     O_R   0.038380 0.091180 0.447270 -0.594132
O22   O     O_R   0.961620 0.908820 0.552730 -0.593804
O23   O     O_R   0.052740 0.643910 0.091070 -0.589703
O24   O     O_R   0.947260 0.356090 0.908930 -0.589802
N1    N     N_3   0.956519 0.365385 0.700266 -0.616254
H71   H     H_    0.957559 0.416416 0.746920 0.216958
H72   H     H_    0.892705 0.311927 0.662425 0.217449
N2    N     N_3   0.039466 0.632220 0.298517 -0.616037
H73   H     H_    0.038643 0.581268 0.251979 0.218165
H74   H     H_    0.103588 0.685166 0.337573 0.217391

loop_
_geom_bond_atom_site_label_1
_geom_bond_atom_site_label_2
_ccdc_geom_bond_type
C50   H42   S    
C1    C21   S    
Cu2   O13   S    
C12   H8    S    
C1    O9    A    
C17   H25   S    
C14   H18   S    
Cu6   O24   S    
Cu5   O23   S    
C26   C40   S    
C59   H11   S    
C4    H4    S    
N1    H71   S    
C19   H31   S    
C1    O1    A    
C49   H41   S    
C20   C30   S    
C7    C11   S    
C60   H12   S    
Cu4   O16   S    
C57   H63   S    
N2    H73   S    
C3    H3    S    
C10   H70   S    
C54   H24   S    
C40   O6    A    
C9    H13   S    
C30   H34   S    
C33   O17   A    
C47   H55   S    
C44   H54   S    
C13   H15   S    
C28   H28   S    
C8    C36   S    
C45   N1    S    
C39   O7    A    
C34   C52   S    
C8    C58   S    
C43   C51   S    
Cu5   O4    S    
C42   H48   S    
C55   H59   S    
Cu6   O3    S    
C39   O5    A    
C28   H40   S    
Cu2   O9    S    
Cu4   O21   S    
C2    C22   S    
C56   H60   S    
C4    C12   S    
Cu1   O14   S    
C36   O22   A    
C15   H19   S    
C40   O8    A    
C53   H45   S    
C23   O13   A    
C45   C53   S    
C41   H43   S    
C16   H20   S    
C32   C48   S    
C46   C54   S    
C32   C46   S    
C31   C49   S    
C41   C49   S    
N1    H72   S    
C52   C54   S    
C34   O18   A    
C55   H61   S    
C25   C29   S    
Cu1   O11   S    
C48   H56   S    
C16   H22   S    
C5    C59   S    
C54   H46   S    
C2    O2    A    
C6    C60   S    
C13   C21   S    
C18   C28   S    
C4    C6    S    
C11   H7    S    
C58   H66   S    
Cu5   O8    S    
C29   H33   S    
Cu6   O7    S    
C23   O11   A    
Cu4   O17   S    
C59   H67   S    
C17   C21   S    
C33   C51   S    
C51   C53   S    
C17   C27   S    
C38   O4    A    
C3    H5    S    
Cu1   O10   S    
C35   O21   A    
C46   H2    S    
Cu5   O5    S    
C47   H57   S    
C5    C23   S    
C44   H52   S    
C8    C12   S    
C6    C24   S    
C30   H36   S    
C17   H37   S    
C29   H35   S    
C18   H38   S    
C32   C37   S    
Cu2   O2    S    
Cu2   O12   S    
Cu3   O15   S    
C24   O14   A    
C42   C50   S    
C9    H69   S    
C33   O15   A    
C49   H49   S    
C20   C22   S    
C26   C30   S    
C55   C57   S    
C12   H10   S    
C24   O12   A    
C14   C22   S    
C14   C16   S    
C27   H27   S    
C2    O10   A    
C14   H16   S    
C31   C45   S    
C19   C29   S    
C60   H68   S    
C4    H6    S    
C19   H29   S    
C36   O20   A    
C15   H21   S    
C7    C9    S    
C13   H17   S    
C10   C60   S    
C10   H14   S    
C19   C21   S    
C18   C22   S    
C7    C35   S    
C5    C55   S    
C57   H65   S    
Cu3   O18   S    
C41   H47   S    
C3    C5    S    
C16   C26   S    
C44   C52   S    
C48   H58   S    
C45   H1    S    
Cu6   O6    S    
C41   C51   S    
C25   C27   S    
Cu4   O20   S    
C26   C28   S    
C31   C38   S    
C34   O16   A    
C18   H26   S    
C37   O23   A    
C13   C15   S    
C42   H44   S    
C38   O24   A    
C44   C48   S    
C11   H9    S    
C6    C56   S    
C53   H23   S    
Cu1   O1    S    
C58   H64   S    
N2    H74   S    
C56   C58   S    
C32   C50   S    
C50   H50   S    
C56   H62   S    
C20   H30   S    
Cu1   Cu2   S    
C3    C11   S    
Cu3   O19   S    
Cu3   Cu4   S    
C31   C47   S    
C20   H32   S    
C15   C25   S    
C8    C10   S    
Cu5   Cu6   S    
C37   O3    A    
C42   C52   S    
C43   H51   S    
C27   H39   S    
C46   N2    S    
Cu3   O22   S    
C9    C59   S    
C43   C47   S    
C7    C57   S    
C25   C39   S    
C35   O19   A    
C43   H53   S    
