data_mof_unit_pretest_543.cif
_audit_creation_date              2012-12-11T15:07:30-0500
_audit_creation_method            fapswitch 2.2
_symmetry_space_group_name_H-M    P1
_symmetry_Int_Tables_number       1
_space_group_crystal_system       triclinic
_cell_length_a                    21.723963
_cell_length_b                    7.186963
_cell_length_c                    18.672261
_cell_angle_alpha                 90.001661
_cell_angle_beta                  95.87516
_cell_angle_gamma                 90.00065
_cell_volume                      2899.97421526

loop_
_atom_site_label
_atom_site_type_symbol
_atom_type_description
_atom_site_fract_x
_atom_site_fract_y
_atom_site_fract_z
_atom_type_partial_charge
O1    O     O_R   0.449650 0.506500 0.414480 -0.516444
O2    O     O_R   0.550350 0.006500 0.585520 -0.516464
O3    O     O_R   0.432010 0.173150 0.560250 -0.555483
O4    O     O_R   0.567990 0.673150 0.439750 -0.555481
C1    C     C_R   0.417678 0.344759 0.583173 0.772797
C2    C     C_R   0.582320 0.844757 0.416824 0.772853
O5    O     O_R   0.442320 0.176650 0.413480 -0.541171
O6    O     O_R   0.557680 0.676650 0.586520 -0.541161
O7    O     O_R   0.560730 0.008380 0.437700 -0.489432
O8    O     O_R   0.439270 0.508380 0.562300 -0.489449
C3    C     C_R   0.426385 0.346020 0.389270 0.778670
C4    C     C_R   0.573613 0.846026 0.610732 0.778691
O9    O     O_3   0.538840 0.339860 0.508120 -0.363503
O10   O     O_3   0.461160 0.839860 0.491880 -0.363493
V1    V     V_3+5 0.492800 0.064220 0.498490 1.611402
V2    V     V_3+5 0.507200 0.564220 0.501510 1.611400
C5    C     C_R   0.880578 0.893389 0.689387 0.473193
C6    C     C_R   0.119423 0.393608 0.310621 0.473190
H1    H     H_    0.966249 0.902738 0.758897 0.176779
H2    H     H_    0.033751 0.402953 0.241111 0.176823
C7    C     C_R   0.888376 0.934655 0.819161 -0.097491
C8    C     C_R   0.111626 0.434683 0.180838 -0.097507
C9    C     C_R   0.590373 0.813926 0.741011 -0.222641
C10   C     C_R   0.409617 0.313782 0.258997 -0.222623
C11   C     C_R   0.626889 0.783745 0.805148 -0.083338
C12   C     C_R   0.373096 0.283541 0.194868 -0.083352
C13   C     C_R   0.691115 0.796912 0.809014 0.399242
C14   C     C_R   0.308872 0.296757 0.191002 0.399237
C15   C     C_R   0.720445 0.859561 0.748345 -0.028042
C16   C     C_R   0.279550 0.359521 0.251662 -0.028035
C17   C     C_R   0.682824 0.881909 0.680787 -0.069593
C18   C     C_R   0.317175 0.381933 0.319215 -0.069590
C19   C     C_R   0.785972 0.892221 0.751455 -0.034468
C20   C     C_R   0.214026 0.392236 0.248548 -0.034462
C21   C     C_R   0.814843 0.894741 0.686409 -0.019446
C22   C     C_R   0.185158 0.394886 0.313595 -0.019439
C23   C     C_R   0.777714 0.906362 0.620022 0.402158
C24   C     C_R   0.222290 0.406560 0.379979 0.402133
C25   C     C_R   0.713052 0.924436 0.618911 0.199955
C26   C     C_R   0.286953 0.424568 0.381086 0.199945
C27   C     C_R   0.823643 0.929215 0.816749 -0.101229
C28   C     C_R   0.176358 0.429167 0.183248 -0.101191
C29   C     C_R   0.916238 0.908190 0.756160 -0.232035
C30   C     C_R   0.083763 0.408350 0.243845 -0.232054
C31   C     C_R   0.616854 0.854939 0.677858 -0.056813
C32   C     C_R   0.383144 0.354909 0.322145 -0.056806
H3    H     H_    0.803480 0.959530 0.865897 0.177603
H4    H     H_    0.196522 0.459386 0.134093 0.177599
H5    H     H_    0.540804 0.793576 0.739754 0.188467
H6    H     H_    0.459184 0.293385 0.260255 0.188464
H7    H     H_    0.604912 0.738055 0.851620 0.196010
H8    H     H_    0.395068 0.237764 0.148403 0.196005
C33   C     C_R   0.631331 0.015267 0.317930 0.409270
C34   C     C_R   0.368667 0.515275 0.682068 0.409257
C35   C     C_R   0.629239 0.858505 0.363524 -0.119829
C36   C     C_R   0.370757 0.358512 0.636471 -0.119870
C37   C     C_R   0.673548 0.718728 0.360549 -0.169411
C38   C     C_R   0.326447 0.218737 0.639440 -0.169410
C39   C     C_R   0.721406 0.733500 0.315222 0.051190
C40   C     C_R   0.278587 0.233515 0.684764 0.051169
C41   C     C_R   0.722660 0.888126 0.268143 -0.014021
C42   C     C_R   0.277331 0.388147 0.731843 -0.014043
C43   C     C_R   0.675774 0.026469 0.266888 -0.057146
C44   C     C_R   0.324217 0.526496 0.733102 -0.057093
C45   C     C_R   0.767572 0.594996 0.315830 0.271797
C46   C     C_R   0.232420 0.095011 0.684152 0.271871
C47   C     C_R   0.817357 0.615740 0.273047 0.418563
C48   C     C_R   0.182631 0.115764 0.726926 0.418485
C49   C     C_R   0.820188 0.773833 0.227869 0.004407
C50   C     C_R   0.179803 0.273841 0.772116 0.004406
C51   C     C_R   0.770598 0.903534 0.222077 -0.112271
C52   C     C_R   0.229393 0.403550 0.777910 -0.112234
C53   C     C_R   0.769626 0.050401 0.171032 -0.097339
C54   C     C_R   0.230364 0.550419 0.828957 -0.097311
C55   C     C_R   0.723620 0.189871 0.171207 0.366422
C56   C     C_R   0.276364 0.689909 0.828778 0.366431
C57   C     C_R   0.675413 0.172845 0.215486 0.364242
C58   C     C_R   0.324571 0.672893 0.784498 0.364307
C59   C     C_R   0.871627 0.806804 0.188139 0.370828
C60   C     C_R   0.128367 0.306794 0.811854 0.370826
C61   C     C_R   0.867417 0.939080 0.132005 -0.200255
C62   C     C_R   0.132578 0.439075 0.867991 -0.200243
C63   C     C_R   0.814734 0.052297 0.120812 0.369073
C64   C     C_R   0.185260 0.552303 0.879181 0.369071
H9    H     H_    0.671706 0.601960 0.396728 0.199782
H10   H     H_    0.328287 0.101966 0.603259 0.199781
O11   O     O_R   0.060820 0.290050 0.937800 -0.521774
O12   O     O_R   0.939180 0.790050 0.062200 -0.521778
O13   O     O_R   0.057690 0.616620 0.086540 -0.525357
O14   O     O_R   0.942310 0.116620 0.913460 -0.525359
C65   C     C_R   0.071878 0.447959 0.112073 0.743681
C66   C     C_R   0.928122 0.947954 0.887927 0.743694
O15   O     O_R   0.068010 0.619890 0.939770 -0.518199
O16   O     O_R   0.931990 0.119890 0.060230 -0.518204
O17   O     O_R   0.949640 0.787940 0.914460 -0.541240
O18   O     O_R   0.050360 0.287940 0.085540 -0.541228
C67   C     C_R   0.083535 0.451102 0.918193 0.797181
C68   C     C_R   0.916463 0.951104 0.081805 0.797190
O19   O     O_3   0.961210 0.453080 0.991940 -0.372477
O20   O     O_3   0.038790 0.953080 0.008060 -0.372464
V3    V     V_3+5 0.007200 0.728820 0.001500 1.643255
V4    V     V_3+5 0.992800 0.228820 0.998500 1.643246
Cl1   Cl    Cl    0.762181 0.390828 0.368582 -0.641906
Cl2   Cl    Cl    0.237819 0.890806 0.631419 -0.641880
O21   O     O_3   0.860735 0.476007 0.269435 -0.587127
H11   H     H_    0.861969 0.394321 0.312054 0.356553
O22   O     O_3   0.139249 0.976033 0.730515 -0.587097
H12   H     H_    0.137958 0.894563 0.687828 0.356553
Cl3   Cl    Cl    0.944739 0.702967 0.213516 -0.608129
Cl4   Cl    Cl    0.055257 0.202912 0.786492 -0.608124
O23   O     O_3   0.806635 0.152666 0.057628 -0.595955
H13   H     H_    0.762690 0.138532 0.038072 0.346622
O24   O     O_3   0.193364 0.652670 0.942368 -0.595956
H14   H     H_    0.237311 0.638567 0.961915 0.346606
Cl5   Cl    Cl    0.729268 0.402497 0.123681 -0.500901
Cl6   Cl    Cl    0.270704 0.902548 0.876298 -0.500898
Cl7   Cl    Cl    0.612656 0.330868 0.199024 -0.531385
Cl8   Cl    Cl    0.387312 0.830987 0.800944 -0.531390
O25   O     O_3   0.805706 0.918367 0.556901 -0.552955
H15   H     H_    0.776360 0.874971 0.516209 0.350259
O26   O     O_3   0.194300 0.418685 0.443099 -0.552960
H16   H     H_    0.223642 0.375308 0.483797 0.350251
O27   O     O_3   0.909409 0.876018 0.627027 -0.568961
H17   H     H_    0.954959 0.878514 0.638946 0.327545
O28   O     O_3   0.090591 0.376370 0.372985 -0.568963
H18   H     H_    0.045042 0.378911 0.361066 0.327572
Cl9   Cl    Cl    0.730546 0.694180 0.886633 -0.602359
Cl10  Cl    Cl    0.269429 0.193941 0.113406 -0.602355
Cl11  Cl    Cl    0.674933 0.035820 0.542837 -0.640069
Cl12  Cl    Cl    0.325085 0.536006 0.457144 -0.640051
O29   O     O_3   0.590874 0.158951 0.325997 -0.614760
H19   H     H_    0.616865 0.269951 0.338857 0.337865
O30   O     O_3   0.409137 0.658933 0.674017 -0.614757
H20   H     H_    0.383154 0.769923 0.661116 0.337863

loop_
_geom_bond_atom_site_label_1
_geom_bond_atom_site_label_2
_ccdc_geom_bond_type
C46   C48   A    
C64   O24   S    
C9    C31   A    
O18   V4    S    
C13   C15   A    
C1    C36   S    
O23   H13   S    
O1    C3    A    
C2    C35   S    
O2    C4    A    
C2    O7    A    
C5    C29   A    
O12   V3    S    
O27   H17   S    
C8    C28   A    
C56   Cl6   S    
O5    C3    A    
C54   C56   A    
C58   Cl8   S    
C56   C58   A    
C57   Cl7   S    
C6    O28   S    
C54   C64   A    
C9    H5    S    
C61   C68   S    
O16   C68   A    
C38   C40   A    
C15   C19   A    
C40   C42   A    
C41   C43   A    
O14   V4    S    
C42   C44   A    
H2    C30   S    
C65   O18   A    
C7    C29   A    
C13   Cl9   S    
C5    O27   S    
C8    C30   A    
C37   H9    S    
C45   C47   A    
C20   C28   A    
C8    C65   S    
C33   O29   S    
C48   O22   S    
O13   C65   A    
C41   C51   A    
O5    V1    S    
C40   C46   A    
O6    V2    S    
C53   C55   A    
C44   C58   A    
C38   H10   S    
C61   C63   A    
H1    C29   S    
C33   C35   A    
C10   H6    S    
C34   C36   A    
C39   C41   A    
C49   C51   A    
C59   Cl3   S    
C50   C60   A    
C16   C18   A    
C46   Cl2   S    
C60   C62   A    
O15   V3    S    
C51   C53   A    
C16   C20   A    
C47   O21   S    
C25   Cl11  S    
C34   O30   S    
C66   O17   A    
C47   C49   A    
O4    V2    S    
C11   H7    S    
C12   H8    S    
O11   V4    S    
O14   C66   A    
C23   O25   S    
O6    C4    A    
O19   V4    S    
C27   H3    S    
C42   C52   A    
O1    V2    S    
C28   H4    S    
O2    V1    S    
C55   C57   A    
O26   H16   S    
C7    C27   A    
C52   C54   A    
C62   C64   A    
C35   C37   A    
O28   H18   S    
C62   C67   S    
C63   O23   S    
C49   C59   A    
O4    C2    A    
C55   Cl5   S    
C45   Cl1   S    
O22   H12   S    
O29   H19   S    
O15   C67   A    
C6    C30   A    
O3    V1    S    
C21   C23   A    
C59   C61   A    
O24   H14   S    
C43   C57   A    
C26   Cl12  S    
O13   V3    S    
C18   C32   A    
C10   C12   A    
C4    C31   S    
O3    C1    A    
O25   H15   S    
C11   C13   A    
O21   H11   S    
C12   C14   A    
C10   C32   A    
C22   C24   A    
O7    V1    S    
C19   C27   A    
C1    O8    A    
C15   C17   A    
O8    V2    S    
C39   C45   A    
C24   C26   A    
C33   C43   A    
O30   H20   S    
C34   C44   A    
C14   C16   A    
O20   V3    S    
C19   C21   A    
C36   C38   A    
C20   C22   A    
C18   C26   A    
C24   O26   S    
C37   C39   A    
C14   Cl10  S    
C9    C11   A    
O16   V4    S    
C23   C25   A    
C17   C31   A    
O9    V2    S    
C60   Cl4   S    
C17   C25   A    
C48   C50   A    
O10   V1    S    
C3    C32   S    
C50   C52   A    
C5    C21   A    
C6    C22   A    
C53   C63   A    
O12   C68   A    
O17   V3    S    
O11   C67   A    
C7    C66   S    
