data_mof_unit_pretest_1433.cif
_audit_creation_date              2012-12-10T16:58:23-0500
_audit_creation_method            fapswitch 2.2
_symmetry_space_group_name_H-M    P1
_symmetry_Int_Tables_number       1
_space_group_crystal_system       triclinic
_cell_length_a                    15.846088
_cell_length_b                    10.903131
_cell_length_c                    9.742819
_cell_angle_alpha                 89.464483
_cell_angle_beta                  90.756138
_cell_angle_gamma                 91.693593
_cell_volume                      1682.33668859

loop_
_atom_site_label
_atom_site_type_symbol
_atom_type_description
_atom_site_fract_x
_atom_site_fract_y
_atom_site_fract_z
_atom_type_partial_charge
C1    C     C_R   0.499115 0.265046 0.500052 0.887416
C2    C     C_2   0.511304 0.866664 0.496097 -0.469818
C3    C     C_2   0.504897 0.065831 0.385728 0.409125
C4    C     C_R   0.340039 0.498359 0.499243 0.837848
C5    C     C_2   0.491882 0.131955 0.499506 -0.446012
C6    C     C_2   0.461689 0.415628 0.924077 -0.032709
C7    C     C_2   0.446679 0.434931 0.076635 0.435808
C8    C     C_R   0.500517 0.734630 0.499245 0.908302
C9    C     C_R   0.659998 0.501891 0.500887 0.784889
C10   C     C_3   0.972280 0.448778 0.617314 -0.069614
C11   C     C_3   0.021917 0.390439 0.501692 0.360008
C12   C     C_3   0.083628 0.501278 0.500633 0.002757
C13   C     C_1   0.250464 0.496494 0.497778 -0.180336
C14   C     C_1   0.749662 0.507023 0.503435 -0.126848
C15   C     C_3   0.033470 0.561421 0.614520 0.381731
C16   C     C_3   0.976260 0.188119 0.478878 0.075124
C17   C     C_3   0.987463 0.068121 0.558273 -0.315073
C18   C     C_3   0.908462 0.984949 0.547286 -0.956203
C19   C     C_2   0.436426 0.294980 0.868336 0.932717
C20   C     C_3   0.303175 0.379129 0.066063 0.022965
C21   C     C_3   0.229424 0.393775 0.163367 -0.327815
C22   C     C_3   0.144758 0.373779 0.089291 -0.796430
C23   C     C_3   0.976680 0.626665 0.507073 -0.359198
C24   C     C_2   0.581327 0.531525 0.104267 0.923013
C25   C     C_2   0.943513 0.384090 0.745728 0.856027
C26   C     C_3   0.995740 0.679404 0.197424 0.041239
C27   C     C_3   0.982791 0.611494 0.061849 -0.322326
C28   C     C_3   0.917042 0.672959 0.970565 -0.866884
C29   C     C_3   0.090980 0.732824 0.731183 0.053271
C30   C     C_3   0.175824 0.758401 0.660941 -0.352605
C31   C     C_3   0.209901 0.888342 0.688847 -0.898209
C32   C     C_3   0.460016 0.866491 0.165124 0.152037
C33   C     C_3   0.408064 0.934615 0.056997 -0.340970
C34   C     C_3   0.916832 0.511383 0.507419 -0.047011
C35   C     C_3   0.438960 0.910246 0.912207 -0.860881
C36   C     C_3   0.616607 0.098061 0.240769 0.054648
C37   C     C_3   0.673724 0.200868 0.300147 -0.297795
C38   C     C_3   0.766220 0.182982 0.266125 -0.939588
C39   C     C_3   0.027211 0.564479 0.392928 0.438944
C40   C     C_3   0.966241 0.451444 0.390327 -0.351973
C41   C     C_1   0.174977 0.496786 0.497724 0.043381
C42   C     C_1   0.825222 0.510804 0.506068 0.052608
C43   C     C_2   0.484868 0.933236 0.388121 0.369006
Cu1   Cu    Cu3+1 0.500020 0.500020 0.638630 0.987393
Cu2   Cu    Cu3+1 0.499980 0.499980 0.361370 1.029112
H1    H     H_    0.471606 0.087136 0.594103 0.131589
H2    H     H_    0.851890 0.034096 0.580447 0.270309
H3    H     H_    0.915574 0.903696 0.615288 0.249890
H4    H     H_    0.898831 0.953728 0.439860 0.251814
H5    H     H_    0.354672 0.195291 0.750948 0.310915
H6    H     H_    0.293629 0.290328 0.012409 0.183171
H7    H     H_    0.301823 0.456158 0.989764 0.134792
H8    H     H_    0.233910 0.326275 0.249214 0.241748
H9    H     H_    0.232526 0.487840 0.206300 0.239009
H10   H     H_    0.139056 0.439372 0.002031 0.280123
H11   H     H_    0.092637 0.388102 0.161868 0.264047
H12   H     H_    0.506480 0.584804 0.888442 0.174576
H13   H     H_    0.138741 0.278601 0.049920 0.260059
H14   H     H_    0.688002 0.478956 0.013271 0.332319
H15   H     H_    0.846503 0.331282 0.866531 0.329701
H16   H     H_    0.016406 0.775662 0.174820 0.161375
H17   H     H_    0.933928 0.683986 0.250453 0.143642
H18   H     H_    0.043699 0.610476 0.007200 0.256522
H19   H     H_    0.961728 0.515110 0.082328 0.225029
H20   H     H_    0.854962 0.672087 0.022277 0.258128
H21   H     H_    0.909739 0.622599 0.872475 0.284304
H22   H     H_    0.937193 0.769239 0.947078 0.238020
H23   H     H_    0.938074 0.406527 0.298115 0.144913
H24   H     H_    0.096452 0.765583 0.838614 0.172623
H25   H     H_    0.040237 0.787051 0.682831 0.131552
H26   H     H_    0.222790 0.692270 0.699680 0.238931
H27   H     H_    0.167739 0.747077 0.548334 0.224273
H28   H     H_    0.164012 0.956926 0.652925 0.260097
H29   H     H_    0.270067 0.904424 0.633371 0.263923
H30   H     H_    0.222391 0.900748 0.800409 0.254188
H31   H     H_    0.455026 0.766901 0.142238 0.169431
H32   H     H_    0.528010 0.893751 0.156489 0.135510
H33   H     H_    0.340690 0.904025 0.063955 0.214854
H34   H     H_    0.955741 0.722625 0.503423 0.149101
H35   H     H_    0.412316 0.034659 0.077281 0.281722
H36   H     H_    0.506010 0.941245 0.901956 0.275950
H37   H     H_    0.400235 0.961290 0.836338 0.258875
H38   H     H_    0.432932 0.810785 0.888947 0.242331
H39   H     H_    0.625549 0.095693 0.127909 0.193639
H40   H     H_    0.636684 0.007339 0.281774 0.101464
H41   H     H_    0.654118 0.290281 0.256985 0.272797
H42   H     H_    0.667367 0.202946 0.413502 0.188320
H43   H     H_    0.787930 0.094830 0.310056 0.255706
H44   H     H_    0.805415 0.259100 0.310725 0.249095
H45   H     H_    0.548383 0.908719 0.578720 0.119437
H46   H     H_    0.774901 0.183340 0.153171 0.267137
H47   H     H_    0.971333 0.168499 0.367219 0.150783
H48   H     H_    0.915493 0.227404 0.511586 0.142087
H49   H     H_    0.000169 0.088810 0.668273 0.243395
H50   H     H_    0.042191 0.019467 0.517184 0.216206
N1    N     N_2   0.499090 0.498660 0.846910 -0.317023
N2    N     N_2   0.499070 0.498630 0.153040 -0.277318
O1    O     O_R   0.500010 0.321960 0.617040 -0.561904
O2    O     O_2   0.475366 0.204691 0.903610 -0.603723
O3    O     O_R   0.366553 0.283299 0.779766 -0.769080
O4    O     O_3   0.379493 0.375538 0.143129 -0.560132
O5    O     O_2   0.610591 0.634629 0.125662 -0.631333
O6    O     O_R   0.630345 0.444547 0.040096 -0.767243
O7    O     O_2   0.995595 0.338495 0.822801 -0.590017
O8    O     O_R   0.857717 0.376392 0.776846 -0.776702
O9    O     O_3   0.060644 0.624455 0.275817 -0.609234
O10   O     O_3   0.070873 0.605667 0.737926 -0.607238
O11   O     O_3   0.425248 0.884119 0.296349 -0.595331
O12   O     O_R   0.499990 0.321920 0.382900 -0.506445
O13   O     O_3   0.530425 0.121596 0.263886 -0.565686
O14   O     O_R   0.379090 0.500010 0.617050 -0.551678
O15   O     O_R   0.379060 0.499970 0.382910 -0.547414
O16   O     O_R   0.500010 0.678080 0.617100 -0.599610
O17   O     O_R   0.499990 0.678040 0.382960 -0.555767
O18   O     O_R   0.620940 0.500030 0.617090 -0.549699
O19   O     O_R   0.620910 0.499990 0.382950 -0.592001
O20   O     O_3   0.047217 0.267352 0.503047 -0.585915

loop_
_geom_bond_atom_site_label_1
_geom_bond_atom_site_label_2
_ccdc_geom_bond_type
C39   O9    S    
C33   H35   S    
C34   C42   S    
C18   H2    S    
C26   O9    S    
C13   C41   T    
C30   H26   S    
C35   H36   S    
Cu2   O15   S    
C25   O8    S    
C6    C19   S    
C38   H44   S    
C3    C43   S    
C16   H48   S    
C29   C30   S    
C1    C5    S    
C36   C37   S    
C26   H16   S    
C20   H6    S    
C7    O4    S    
C10   C15   S    
C21   H9    S    
Cu2   O12   S    
C33   H33   S    
C31   H28   S    
C3    O13   S    
C15   O10   S    
C4    C13   S    
C2    H45   S    
C1    O12   A    
C32   H32   S    
Cu1   O1    S    
Cu2   O17   S    
Cu1   O18   S    
C16   C17   S    
H12   N1    S    
C17   H50   S    
C8    O17   A    
C14   C42   T    
C15   C23   S    
C4    O15   A    
C21   C22   S    
C35   H37   S    
C29   H24   S    
C24   N2    S    
C9    O18   A    
C37   H41   S    
C28   H22   S    
C27   H19   S    
C39   C40   S    
C19   O2    D    
C31   H29   S    
C22   H11   S    
C20   O4    S    
C38   H46   S    
C38   H43   S    
C28   H21   S    
C9    C14   S    
C22   H13   S    
C37   C38   S    
Cu1   N1    S    
C31   H30   S    
C12   C15   S    
C2    C43   D    
C11   C12   S    
C23   C34   S    
C17   C18   S    
C26   C27   S    
C32   O11   S    
C10   C34   S    
C6    C7    S    
C27   H18   S    
C8    O16   A    
C10   C25   S    
C4    O14   A    
Cu1   O16   S    
C16   H47   S    
C6    N1    D    
C36   O13   S    
C34   C40   S    
C11   O20   S    
Cu1   Cu2   S    
C12   C41   S    
C29   H25   S    
C35   H38   S    
C7    N2    D    
C9    O19   A    
C37   H42   S    
C2    C8    S    
C3    C5    D    
C18   H3    S    
C1    O1    A    
C32   H31   S    
C30   H27   S    
C19   O3    S    
C25   O7    D    
C22   H10   S    
C36   H40   S    
C5    H1    S    
H5    O3    S    
C24   O6    S    
H14   O6    S    
C32   C33   S    
C12   C39   S    
C28   H20   S    
C26   H17   S    
C20   H7    S    
Cu2   N2    S    
C16   O20   S    
C21   H8    S    
Cu2   O19   S    
C30   C31   S    
C36   H39   S    
C23   C39   S    
C33   C35   S    
C24   O5    D    
C43   O11   S    
C11   C40   S    
C10   C11   S    
Cu1   O14   S    
C20   C21   S    
C40   H23   S    
C27   C28   S    
C29   O10   S    
C17   H49   S    
C23   H34   S    
H15   O8    S    
C18   H4    S    
