data_mof_unit_pretest_1846.cif
_audit_creation_date              2013-03-05T16:18:07-0500
_audit_creation_method            fapswitch 2.2
_symmetry_space_group_name_H-M    P1
_symmetry_Int_Tables_number       1
_space_group_crystal_system       triclinic
_cell_length_a                    44.386774
_cell_length_b                    38.881435
_cell_length_c                    21.538984
_cell_angle_alpha                 90.0
_cell_angle_beta                  118.992069
_cell_angle_gamma                 90.000113
_cell_volume                      32514.2437211

loop_
_atom_site_label
_atom_site_type_symbol
_atom_site_description
_atom_site_fract_x
_atom_site_fract_y
_atom_site_fract_z
_atom_type_partial_charge
O1    O     O_R   0.050910 0.028760 0.550880 -0.594263
O2    O     O_R   0.949090 0.028760 0.449120 -0.594255
O3    O     O_R   0.550910 0.528760 0.550880 -0.594259
O4    O     O_R   0.449090 0.528760 0.449120 -0.594256
O5    O     O_R   0.050940 0.971280 0.550860 -0.591534
O6    O     O_R   0.949060 0.971280 0.449140 -0.591535
O7    O     O_R   0.550940 0.471280 0.550860 -0.591534
O8    O     O_R   0.449060 0.471280 0.449140 -0.591534
C1    C     C_R   0.067230 0.000019 0.568343 0.908419
C2    C     C_R   0.932769 0.000019 0.431656 0.908435
C3    C     C_R   0.567230 0.500019 0.568342 0.908428
C4    C     C_R   0.432769 0.500019 0.431657 0.908432
O9    O     O_R   0.000010 0.028760 0.407400 -0.530616
O10   O     O_R   0.999990 0.028760 0.592600 -0.530620
O11   O     O_R   0.500010 0.528760 0.407400 -0.530619
O12   O     O_R   0.499990 0.528760 0.592600 -0.530621
O13   O     O_R   0.000040 0.971280 0.407380 -0.580311
O14   O     O_R   0.999960 0.971280 0.592620 -0.580331
O15   O     O_R   0.500040 0.471280 0.407380 -0.580331
O16   O     O_R   0.499960 0.471280 0.592620 -0.580336
C5    C     C_R   0.000234 0.999978 0.378770 0.932383
C6    C     C_R   0.999767 0.999978 0.621231 0.932413
C7    C     C_R   0.500233 0.499978 0.378769 0.932409
C8    C     C_R   0.499767 0.499978 0.621231 0.932417
Zn1   Zn    Zn3+2 0.000000 0.038400 0.500000 1.220352
Zn2   Zn    Zn3+2 0.500000 0.538400 0.500000 1.220356
Zn3   Zn    Zn3+2 0.000000 0.961640 0.500000 1.178287
Zn4   Zn    Zn3+2 0.500000 0.461640 0.500000 1.178274
C9    C     C_3   0.031780 0.020184 0.317354 0.431936
C10   C     C_3   0.968215 0.020176 0.682641 0.431919
C11   C     C_3   0.531784 0.520176 0.317359 0.431917
C12   C     C_3   0.468214 0.520174 0.682640 0.431915
H1    H     H_    0.055571 0.005421 0.352191 0.115434
H2    H     H_    0.944429 0.005407 0.647806 0.115430
H3    H     H_    0.555571 0.505408 0.352194 0.115431
H4    H     H_    0.444429 0.505404 0.647806 0.115430
C13   C     C_3   0.028903 0.024178 0.243902 -0.437304
C14   C     C_3   0.971091 0.024171 0.756091 -0.437305
C15   C     C_3   0.528909 0.524171 0.243909 -0.437303
C16   C     C_3   0.471090 0.524170 0.756089 -0.437305
H5    H     H_    0.054252 0.018440 0.247668 0.257833
H6    H     H_    0.945743 0.018426 0.752325 0.257822
H7    H     H_    0.554257 0.518426 0.247675 0.257823
H8    H     H_    0.445742 0.518423 0.752324 0.257821
H9    H     H_    0.022937 0.051415 0.226664 0.271141
H10   H     H_    0.977049 0.051410 0.773322 0.271152
H11   H     H_    0.522951 0.551410 0.226678 0.271153
H12   H     H_    0.477046 0.551409 0.773318 0.271155
H13   H     H_    0.960624 0.041631 0.156366 0.154900
H14   H     H_    0.039364 0.041642 0.843623 0.154899
H15   H     H_    0.460635 0.541642 0.156377 0.154899
H16   H     H_    0.539362 0.541644 0.843621 0.154899
C17   C     C_3   0.965279 0.015820 0.251603 0.068645
C18   C     C_3   0.034718 0.015829 0.748395 0.068649
C19   C     C_3   0.465282 0.515829 0.251605 0.068649
C20   C     C_3   0.534717 0.515831 0.748395 0.068650
C21   C     C_3   0.002928 0.962475 0.287368 0.339897
C22   C     C_3   0.997082 0.962475 0.712643 0.339900
C23   C     C_3   0.502918 0.462475 0.287357 0.339898
C24   C     C_3   0.497084 0.462475 0.712645 0.339899
C25   C     C_3   0.999939 0.000082 0.310313 -0.347014
C26   C     C_3   0.000062 0.000083 0.689688 -0.347011
C27   C     C_3   0.499938 0.500083 0.310312 -0.347010
C28   C     C_3   0.500062 0.500083 0.689688 -0.347011
H17   H     H_    0.026753 0.950205 0.329525 0.150508
H18   H     H_    0.973260 0.950199 0.670489 0.150519
H19   H     H_    0.526740 0.450199 0.329511 0.150519
H20   H     H_    0.473262 0.450198 0.670492 0.150521
C29   C     C_3   0.999639 0.000760 0.189086 -0.325937
C30   C     C_3   0.000361 0.000761 0.810914 -0.325935
C31   C     C_3   0.499639 0.500761 0.189086 -0.325940
C32   C     C_3   0.500361 0.500761 0.810914 -0.325939
C33   C     C_3   0.964755 0.015321 0.179439 0.389948
C34   C     C_3   0.035241 0.015331 0.820558 0.389937
C35   C     C_3   0.464759 0.515331 0.179442 0.389937
C36   C     C_3   0.535240 0.515333 0.820557 0.389932
C37   C     C_3   0.003645 0.962998 0.216390 0.061651
C38   C     C_3   0.996366 0.962998 0.783621 0.061655
C39   C     C_3   0.503634 0.462997 0.216379 0.061658
C40   C     C_3   0.496368 0.462997 0.783623 0.061660
H21   H     H_    0.980997 0.948143 0.176589 0.246138
H22   H     H_    0.019017 0.948149 0.823426 0.246147
H23   H     H_    0.480983 0.448149 0.176575 0.246153
H24   H     H_    0.519020 0.448150 0.823429 0.246155
H25   H     H_    0.944135 0.998822 0.247182 0.239734
H26   H     H_    0.055866 0.998836 0.752821 0.239726
H27   H     H_    0.444134 0.498836 0.247179 0.239726
H28   H     H_    0.555866 0.498839 0.752822 0.239724
C41   C     C_R   0.377754 0.979987 0.918583 -0.297645
C42   C     C_R   0.622244 0.979982 0.081421 -0.297650
C43   C     C_R   0.877754 0.479988 0.918583 -0.297644
C44   C     C_R   0.122245 0.479986 0.081419 -0.297648
H29   H     H_    0.391697 0.963344 0.964096 0.219229
H30   H     H_    0.608301 0.963336 0.035912 0.219225
H31   H     H_    0.891697 0.463344 0.964097 0.219229
H32   H     H_    0.108303 0.463341 0.035907 0.219228
C45   C     C_R   0.342038 0.978827 0.882260 0.708044
C46   C     C_R   0.657961 0.978821 0.117745 0.708048
C47   C     C_R   0.842038 0.478827 0.882260 0.708044
C48   C     C_R   0.157962 0.478825 0.117742 0.708046
C49   C     C_R   0.323603 0.999764 0.822628 -0.222060
C50   C     C_R   0.676397 0.999760 0.177371 -0.222063
C51   C     C_R   0.823603 0.499764 0.822628 -0.222062
C52   C     C_R   0.176397 0.499763 0.177372 -0.222062
C53   C     C_R   0.341129 0.021684 0.799149 0.555110
C54   C     C_R   0.658871 0.021684 0.200845 0.555113
C55   C     C_R   0.841129 0.521683 0.799148 0.555113
C56   C     C_R   0.158871 0.521684 0.200849 0.555113
C57   C     C_R   0.377153 0.023009 0.835454 0.191532
C58   C     C_R   0.622847 0.023011 0.164541 0.191530
C59   C     C_R   0.877153 0.523009 0.835453 0.191531
C60   C     C_R   0.122847 0.523010 0.164544 0.191531
C61   C     C_R   0.395464 0.001673 0.895391 -0.330502
C62   C     C_R   0.604536 0.001671 0.104609 -0.330496
C63   C     C_R   0.895464 0.501673 0.895390 -0.330501
C64   C     C_R   0.104536 0.501672 0.104609 -0.330499
C65   C     C_R   0.267801 0.992532 0.712732 -0.134525
C66   C     C_R   0.732199 0.992533 0.287268 -0.134521
C67   C     C_R   0.767801 0.492531 0.712732 -0.134525
C68   C     C_R   0.232199 0.492533 0.287269 -0.134524
H33   H     H_    0.281396 0.986449 0.683779 0.202261
H34   H     H_    0.718605 0.986454 0.316223 0.202261
H35   H     H_    0.781396 0.486447 0.683780 0.202259
H36   H     H_    0.218604 0.486451 0.316222 0.202260
C69   C     C_R   0.232006 0.993394 0.676811 -0.098710
C70   C     C_R   0.767994 0.993396 0.323187 -0.098713
C71   C     C_R   0.732006 0.493393 0.676811 -0.098712
C72   C     C_R   0.267994 0.493395 0.323190 -0.098710
H37   H     H_    0.218117 0.988005 0.620413 0.180237
H38   H     H_    0.781883 0.988011 0.379587 0.180235
H39   H     H_    0.718117 0.488003 0.620413 0.180236
H40   H     H_    0.281883 0.488007 0.379588 0.180236
C73   C     C_R   0.214264 0.001160 0.713838 0.041885
C74   C     C_R   0.785736 0.001157 0.286157 0.041886
C75   C     C_R   0.714264 0.501160 0.713837 0.041887
C76   C     C_R   0.285736 0.501159 0.286162 0.041886
C77   C     C_R   0.232239 0.007801 0.786787 -0.211182
C78   C     C_R   0.767760 0.007792 0.213206 -0.211179
C79   C     C_R   0.732239 0.507802 0.786785 -0.211179
C80   C     C_R   0.267761 0.507798 0.213213 -0.211184
H41   H     H_    0.218484 0.013889 0.815420 0.201239
H42   H     H_    0.781515 0.013877 0.184571 0.201239
H43   H     H_    0.718484 0.513891 0.815418 0.201239
H44   H     H_    0.281516 0.513885 0.184579 0.201239
C81   C     C_R   0.268023 0.007257 0.822706 0.748628
C82   C     C_R   0.731976 0.007248 0.177288 0.748627
C83   C     C_R   0.768023 0.507258 0.822705 0.748627
C84   C     C_R   0.231976 0.507255 0.177293 0.748629
C85   C     C_R   0.285943 0.999542 0.785716 0.049269
C86   C     C_R   0.714057 0.999539 0.214281 0.049268
C87   C     C_R   0.785943 0.499542 0.785716 0.049270
C88   C     C_R   0.214057 0.499542 0.214284 0.049268
C89   C     C_R   0.159642 0.976165 0.692763 -0.226952
C90   C     C_R   0.840359 0.976160 0.307240 -0.226952
C91   C     C_R   0.659642 0.476165 0.692763 -0.226952
C92   C     C_R   0.340358 0.476164 0.307238 -0.226953
H45   H     H_    0.174439 0.957058 0.732709 0.211461
H46   H     H_    0.825561 0.957050 0.267301 0.211460
H47   H     H_    0.674439 0.457058 0.732708 0.211461
H48   H     H_    0.325561 0.457056 0.267293 0.211460
C93   C     C_R   0.123779 0.975135 0.659146 0.304463
C94   C     C_R   0.876221 0.975131 0.340858 0.304470
C95   C     C_R   0.623779 0.475135 0.659146 0.304461
C96   C     C_R   0.376221 0.475134 0.340855 0.304461
C97   C     C_R   0.104838 0.000220 0.607258 -0.196462
C98   C     C_R   0.895162 0.000220 0.392739 -0.196468
C99   C     C_R   0.604838 0.500220 0.607258 -0.196468
C100  C     C_R   0.395162 0.500220 0.392742 -0.196469
C101  C     C_R   0.122080 0.025954 0.591092 -0.246815
C102  C     C_R   0.877919 0.025957 0.408895 -0.246793
C103  C     C_R   0.622080 0.525954 0.591092 -0.246809
C104  C     C_R   0.377920 0.525954 0.408906 -0.246802
H49   H     H_    0.107384 0.045190 0.551420 0.227259
H50   H     H_    0.892615 0.045195 0.448560 0.227270
H51   H     H_    0.607384 0.545190 0.551420 0.227266
H52   H     H_    0.392616 0.545191 0.448577 0.227268
C105  C     C_R   0.158024 0.027320 0.625602 0.332791
C106  C     C_R   0.841975 0.027322 0.374383 0.332780
C107  C     C_R   0.658024 0.527320 0.625601 0.332788
C108  C     C_R   0.341975 0.527320 0.374397 0.332784
C109  C     C_R   0.176756 0.001906 0.676669 -0.049577
C110  C     C_R   0.823244 0.001904 0.323325 -0.049576
C111  C     C_R   0.676756 0.501906 0.676668 -0.049579
C112  C     C_R   0.323244 0.501905 0.323331 -0.049575
O17   O     O_R   0.028770 0.050900 0.028770 -0.593590
O18   O     O_R   0.971230 0.050900 0.971230 -0.593594
O19   O     O_R   0.528770 0.550900 0.028770 -0.593592
O20   O     O_R   0.471230 0.550900 0.971230 -0.593591
C113  C     C_R   0.000000 0.067297 0.000000 0.994812
C114  C     C_R   0.500000 0.567297 1.000000 0.994814
O21   O     O_R   0.028750 0.000000 0.121310 -0.586751
O22   O     O_R   0.971250 0.000000 0.878690 -0.586764
O23   O     O_R   0.528750 0.500000 0.121310 -0.586765
O24   O     O_R   0.471250 0.500000 0.878690 -0.586767
O25   O     O_R   0.971270 0.000040 0.063860 -0.565145
O26   O     O_R   0.028730 0.000040 0.936140 -0.565133
O27   O     O_R   0.471270 0.500040 0.063860 -0.565133
O28   O     O_R   0.528730 0.500040 0.936140 -0.565130
C115  C     C_R   0.999930 0.001193 0.121287 0.942160
C116  C     C_R   0.000070 0.001193 0.878713 0.942169
C117  C     C_R   0.499930 0.501193 0.121287 0.942175
C118  C     C_R   0.500070 0.501194 0.878713 0.942176
Zn5   Zn    Zn3+2 0.038400 0.999990 0.038350 1.197645
Zn6   Zn    Zn3+2 0.961600 0.999990 0.961650 1.197626
Zn7   Zn    Zn3+2 0.538400 0.499990 0.038350 1.197630
Zn8   Zn    Zn3+2 0.461600 0.499990 0.961650 1.197626
O29   O     O_R   0.028750 0.949090 0.028660 -0.561208
O30   O     O_R   0.971250 0.949090 0.971340 -0.561209
O31   O     O_R   0.528750 0.449090 0.028660 -0.561223
O32   O     O_R   0.471250 0.449090 0.971340 -0.561224
C119  C     C_R   1.000000 0.932825 0.000000 1.005276
C120  C     C_R   0.500000 0.432825 1.000000 1.005305
O33   O     O_R   0.500050 0.949040 0.947810 -0.619679
O34   O     O_R   0.499950 0.949040 0.052190 -0.619679
O35   O     O_R   0.000050 0.449040 0.947810 -0.619678
O36   O     O_R   0.999950 0.449040 0.052190 -0.619678
C121  C     C_R   0.500000 0.932868 0.000000 0.846138
C122  C     C_R   0.000000 0.432868 0.000000 0.846138
O37   O     O_R   0.449110 0.999950 0.896830 -0.588930
O38   O     O_R   0.550890 0.999950 0.103170 -0.588935
O39   O     O_R   0.949110 0.499950 0.896830 -0.588930
O40   O     O_R   0.050890 0.499950 0.103170 -0.588932
O41   O     O_R   0.449110 0.000020 0.001380 -0.610139
O42   O     O_R   0.550890 0.000020 0.998620 -0.610134
O43   O     O_R   0.949110 0.500020 0.001380 -0.610140
O44   O     O_R   0.050890 0.500020 0.998620 -0.610137
C123  C     C_R   0.432949 0.000626 0.932931 0.985881
C124  C     C_R   0.567051 0.000625 0.067069 0.985890
C125  C     C_R   0.932948 0.500626 0.932931 0.985880
C126  C     C_R   0.067051 0.500626 0.067069 0.985884
Zn9   Zn    Zn3+2 0.500020 0.999940 0.930180 1.094521
Zn10  Zn    Zn3+2 0.499980 0.999940 0.069820 1.094512
Zn11  Zn    Zn3+2 0.000020 0.499940 0.930180 1.094520
Zn12  Zn    Zn3+2 0.999980 0.499940 0.069820 1.094516
O45   O     O_R   0.500000 0.050860 0.947620 -0.600080
O46   O     O_R   0.500000 0.050860 0.052380 -0.600083
O47   O     O_R   0.000000 0.550860 0.947620 -0.600079
O48   O     O_R   1.000000 0.550860 0.052380 -0.600081
C127  C     C_R   0.500000 0.067095 1.000000 0.974535
C128  C     C_R   1.000000 0.567094 1.000000 0.974527
C129  C     C_R   0.484451 0.877506 0.935479 -0.163660
C130  C     C_R   0.515550 0.877506 0.064522 -0.163662
C131  C     C_R   0.984450 0.377506 0.935479 -0.163661
C132  C     C_R   0.015550 0.377506 0.064522 -0.163661
H53   H     H_    0.472183 0.891084 0.885281 0.173302
H54   H     H_    0.527818 0.891084 0.114719 0.173301
H55   H     H_    0.972182 0.391083 0.885281 0.173301
H56   H     H_    0.027818 0.391084 0.114719 0.173301
C133  C     C_R   0.484106 0.841778 0.935524 -0.037489
C134  C     C_R   0.515896 0.841778 0.064477 -0.037482
C135  C     C_R   0.984104 0.341778 0.935524 -0.037485
C136  C     C_R   0.015896 0.341778 0.064477 -0.037485
H57   H     H_    0.471801 0.827953 0.885613 0.166498
H58   H     H_    0.528201 0.827953 0.114388 0.166498
H59   H     H_    0.971799 0.327953 0.885613 0.166498
H60   H     H_    0.028201 0.327953 0.114388 0.166498
C137  C     C_R   0.500001 0.823999 0.000000 0.260475
C138  C     C_R   0.000000 0.323999 0.000000 0.260477
C139  C     C_R   0.500000 0.895473 0.000000 -0.039926
C140  C     C_R   0.000000 0.395473 0.000000 -0.039925
C141  C     C_R   0.529196 0.768628 0.007046 0.148651
C142  C     C_R   0.470807 0.768628 0.992954 0.148650
C143  C     C_R   0.029194 0.268628 0.007044 0.148647
C144  C     C_R   0.970806 0.268628 0.992957 0.148649
C145  C     C_R   0.028781 0.232711 0.006529 0.626277
C146  C     C_R   0.971220 0.232711 0.993473 0.626276
C147  C     C_R   0.528782 0.732711 0.006529 0.626270
C148  C     C_R   0.471220 0.732711 0.993469 0.626276
C149  C     C_R   0.000000 0.214838 0.000001 -0.174845
C150  C     C_R   0.500001 0.714838 0.999999 -0.174848
C151  C     C_R   0.500002 0.786569 0.000000 -0.362945
C152  C     C_R   0.000000 0.286569 0.000001 -0.362945
C153  C     C_R   0.974201 0.159312 0.942499 0.634930
C154  C     C_R   0.025800 0.159312 0.057503 0.634931
C155  C     C_R   0.474202 0.659312 0.942497 0.634933
C156  C     C_R   0.525799 0.659312 0.057502 0.634930
C157  C     C_R   0.973846 0.123420 0.941919 0.141805
C158  C     C_R   0.026155 0.123420 0.058082 0.141802
C159  C     C_R   0.473846 0.623420 0.941918 0.141803
C160  C     C_R   0.526154 0.623420 0.058081 0.141804
C161  C     C_R   0.000000 0.105105 0.000000 -0.443925
C162  C     C_R   0.500000 0.605105 1.000000 -0.443924
C163  C     C_R   0.000000 0.177188 0.000001 -0.170924
C164  C     C_R   0.500001 0.677188 0.999999 -0.170928
C165  C     C_R   0.490155 0.122631 0.043521 -0.174855
C166  C     C_R   0.509844 0.122631 0.956478 -0.174846
C167  C     C_R   0.990152 0.622631 0.043516 -0.174857
C168  C     C_R   0.009847 0.622631 0.956484 -0.174851
H61   H     H_    0.482649 0.108669 0.077394 0.211944
H62   H     H_    0.517350 0.108670 0.922605 0.211945
H63   H     H_    0.982643 0.608669 0.077384 0.211943
H64   H     H_    0.017357 0.608669 0.922615 0.211942
C169  C     C_R   0.490207 0.158517 0.044511 0.294173
C170  C     C_R   0.509791 0.158517 0.955487 0.294170
C171  C     C_R   0.990204 0.658517 0.044506 0.294172
C172  C     C_R   0.009795 0.658517 0.955493 0.294172
C173  C     C_R   0.499999 0.176560 0.999999 -0.177218
C174  C     C_R   0.999999 0.676559 0.999999 -0.177221
C175  C     C_R   0.500000 0.104670 1.000000 -0.124794
C176  C     C_R   1.000000 0.604670 1.000000 -0.124790
C177  C     C_R   0.531230 0.231861 0.034116 -0.052022
C178  C     C_R   0.468768 0.231861 0.965881 -0.052020
C179  C     C_R   0.031230 0.731861 0.034128 -0.052020
C180  C     C_R   0.968769 0.731861 0.965869 -0.052019
H65   H     H_    0.555425 0.218049 0.060824 0.167395
H66   H     H_    0.444574 0.218049 0.939173 0.167394
H67   H     H_    0.055424 0.718049 0.060846 0.167396
H68   H     H_    0.944574 0.718049 0.939152 0.167395
C181  C     C_R   0.031242 0.767597 0.034474 -0.125234
C182  C     C_R   0.968757 0.767597 0.965523 -0.125232
C183  C     C_R   0.531243 0.267597 0.034462 -0.125234
C184  C     C_R   0.468756 0.267597 0.965535 -0.125233
H69   H     H_    0.055596 0.781030 0.062321 0.164551
H70   H     H_    0.944403 0.781030 0.937676 0.164551
H71   H     H_    0.555596 0.281030 0.062300 0.164550
H72   H     H_    0.444402 0.281030 0.937698 0.164550
C185  C     C_R   0.999999 0.785728 0.999999 0.159822
C186  C     C_R   0.499999 0.285728 0.999999 0.159823
C187  C     C_R   0.499999 0.214049 0.999999 0.170243
C188  C     C_R   0.999999 0.714048 0.999999 0.170245
C189  C     C_R   0.975143 0.841595 0.009303 -0.204590
C190  C     C_R   0.024856 0.841595 0.990695 -0.204590
C191  C     C_R   0.475147 0.341596 0.009317 -0.204588
C192  C     C_R   0.524852 0.341596 0.990682 -0.204589
H73   H     H_    0.956136 0.828094 0.017894 0.200375
H74   H     H_    0.043863 0.828094 0.982104 0.200374
H75   H     H_    0.456144 0.328095 0.017919 0.200375
H76   H     H_    0.543856 0.328095 0.982080 0.200375
C193  C     C_R   0.974961 0.877338 0.008875 0.634076
C194  C     C_R   0.025038 0.877338 0.991125 0.634104
C195  C     C_R   0.474965 0.377339 0.008888 0.634091
C196  C     C_R   0.525034 0.377339 0.991111 0.634098
C197  C     C_R   1.000000 0.895374 1.000000 -0.305655
C198  C     C_R   0.500000 0.395375 1.000000 -0.305645
C199  C     C_R   1.000000 0.823483 0.999999 -0.088823
C200  C     C_R   0.499999 0.323483 0.999999 -0.088824
F1    F     F_    0.035602 0.052208 0.348571 -0.550815
F2    F     F_    0.964386 0.052199 0.651415 -0.550824
F3    F     F_    0.535613 0.552199 0.348585 -0.550825
F4    F     F_    0.464384 0.552197 0.651412 -0.550827
F5    F     F_    0.937117 0.995375 0.132269 -0.580982
F6    F     F_    0.062885 0.995393 0.867734 -0.580988
F7    F     F_    0.437115 0.495392 0.132266 -0.580988
F8    F     F_    0.562885 0.495397 0.867735 -0.580989
F9    F     F_    0.325458 0.956843 0.904513 -0.580465
F10   F     F_    0.674540 0.956833 0.095496 -0.580462
F11   F     F_    0.825458 0.456844 0.904515 -0.580466
F12   F     F_    0.174541 0.456840 0.095490 -0.580465
F13   F     F_    0.323054 0.043088 0.743303 -0.565046
F14   F     F_    0.676947 0.043091 0.256686 -0.565047
F15   F     F_    0.823054 0.543086 0.743301 -0.565046
F16   F     F_    0.176946 0.543089 0.256693 -0.565047
N1    N     N_R   0.394632 0.047094 0.813213 0.258868
O49   O     O_R   0.383739 0.052412 0.746013 -0.246279
O50   O     O_R   0.419088 0.066455 0.859669 -0.373240
N2    N     N_R   0.605369 0.047098 0.186777 0.258866
O51   O     O_R   0.616264 0.052422 0.253976 -0.246277
O52   O     O_R   0.580912 0.066458 0.140317 -0.373248
N3    N     N_R   0.894632 0.547093 0.813211 0.258868
O53   O     O_R   0.883739 0.552411 0.746011 -0.246279
O54   O     O_R   0.919088 0.566455 0.859667 -0.373237
N4    N     N_R   0.105368 0.547095 0.186784 0.258867
O55   O     O_R   0.116262 0.552416 0.253983 -0.246279
O56   O     O_R   0.080912 0.566456 0.140326 -0.373240
F17   F     F_    0.285141 0.015124 0.892907 -0.583552
F18   F     F_    0.714858 0.015110 0.107085 -0.583552
F19   F     F_    0.785140 0.515126 0.892905 -0.583553
F20   F     F_    0.214859 0.515120 0.107092 -0.583552
N5    N     N_R   0.107310 0.949420 0.680344 0.235460
O57   O     O_R   0.082470 0.957944 0.692999 -0.307347
O58   O     O_R   0.120696 0.918837 0.698245 -0.298826
N6    N     N_R   0.892691 0.949413 0.319668 0.235457
O59   O     O_R   0.917530 0.957935 0.307007 -0.307352
O60   O     O_R   0.879306 0.918829 0.301780 -0.298834
N7    N     N_R   0.607310 0.449420 0.680344 0.235459
O61   O     O_R   0.582470 0.457944 0.693000 -0.307343
O62   O     O_R   0.620696 0.418837 0.698245 -0.298826
N8    N     N_R   0.392690 0.449418 0.319659 0.235459
O63   O     O_R   0.417529 0.457942 0.307001 -0.307344
O64   O     O_R   0.379305 0.418835 0.301762 -0.298828
N9    N     N_R   0.174812 0.054714 0.608964 0.225338
O65   O     O_R   0.203586 0.067808 0.657735 -0.298731
O66   O     O_R   0.159509 0.069220 0.546725 -0.298254
N10   N     N_R   0.825186 0.054719 0.391010 0.225339
O67   O     O_R   0.796411 0.067809 0.342234 -0.298731
O68   O     O_R   0.840490 0.069233 0.453242 -0.298247
N11   N     N_R   0.674812 0.554713 0.608963 0.225339
O69   O     O_R   0.703587 0.567807 0.657733 -0.298732
O70   O     O_R   0.659508 0.569221 0.546725 -0.298248
N12   N     N_R   0.325188 0.554714 0.391033 0.225337
O71   O     O_R   0.296414 0.567808 0.342261 -0.298730
O72   O     O_R   0.340491 0.569221 0.453272 -0.298247
N13   N     N_R   0.559192 0.786490 0.014416 0.260029
O73   O     O_R   0.556094 0.813177 0.975307 -0.338167
O74   O     O_R   0.589844 0.774530 0.056494 -0.222132
N14   N     N_R   0.440811 0.786490 0.985584 0.260031
O75   O     O_R   0.443910 0.813173 0.024703 -0.338161
O76   O     O_R   0.410159 0.774534 0.943494 -0.222148
N15   N     N_R   0.059190 0.286490 0.014412 0.260032
O77   O     O_R   0.056091 0.313175 0.975299 -0.338167
O78   O     O_R   0.089842 0.274532 0.056493 -0.222139
N16   N     N_R   0.940811 0.286490 0.985589 0.260031
O79   O     O_R   0.943909 0.313175 0.024702 -0.338167
O80   O     O_R   0.910158 0.274531 0.943508 -0.222140
F21   F     F_    0.055916 0.215058 0.009638 -0.538119
F22   F     F_    0.944085 0.215058 0.990364 -0.538119
F23   F     F_    0.555917 0.715058 0.009640 -0.538114
F24   F     F_    0.444084 0.715059 0.990356 -0.538116
F25   F     F_    0.950171 0.176903 0.885335 -0.539396
F26   F     F_    0.049830 0.176903 0.114667 -0.539396
F27   F     F_    0.450172 0.676903 0.885332 -0.539393
F28   F     F_    0.549830 0.676903 0.114666 -0.539395
N17   N     N_R   0.947562 0.106061 0.880776 0.278026
O81   O     O_R   0.915602 0.115841 0.853231 -0.218606
O82   O     O_R   0.956010 0.083762 0.846916 -0.389103
N18   N     N_R   0.052438 0.106060 0.119225 0.278028
O83   O     O_R   0.084398 0.115840 0.146769 -0.218603
O84   O     O_R   0.043991 0.083762 0.153085 -0.389101
N19   N     N_R   0.447562 0.606060 0.880775 0.278027
O85   O     O_R   0.415603 0.615841 0.853229 -0.218603
O86   O     O_R   0.456011 0.583762 0.846915 -0.389105
N20   N     N_R   0.552438 0.606061 0.119225 0.278027
O87   O     O_R   0.584398 0.615841 0.146771 -0.218603
O88   O     O_R   0.543989 0.583762 0.153084 -0.389104
N21   N     N_R   0.480527 0.176047 0.091177 0.225053
O89   O     O_R   0.458637 0.161941 0.107340 -0.310024
O90   O     O_R   0.496254 0.204026 0.124067 -0.330098
N22   N     N_R   0.519471 0.176047 0.908820 0.225054
O91   O     O_R   0.541362 0.161942 0.892660 -0.310023
O92   O     O_R   0.503743 0.204026 0.875929 -0.330096
N23   N     N_R   0.980520 0.676047 0.091166 0.225057
O93   O     O_R   0.958629 0.661940 0.107325 -0.310021
O94   O     O_R   0.996244 0.704027 0.124055 -0.330101
N24   N     N_R   0.019480 0.676047 0.908833 0.225054
O95   O     O_R   0.041373 0.661941 0.892680 -0.310021
O96   O     O_R   0.003753 0.704026 0.875940 -0.330098
F29   F     F_    0.950973 0.894249 0.019172 -0.586333
F30   F     F_    0.049026 0.894249 0.980827 -0.586332
F31   F     F_    0.450981 0.394250 0.019199 -0.586338
F32   F     F_    0.549018 0.394250 0.980801 -0.586337
N25   N     N_R   0.958277 0.050537 0.268628 0.235587
O97   O     O_R   0.932952 0.055195 0.282010 -0.320843
O98   O     O_R   0.974796 0.077255 0.264198 -0.265290
N26   N     N_R   0.041712 0.050548 0.731361 0.235591
O99   O     O_R   0.067037 0.055212 0.717981 -0.320829
O100  O     O_R   0.025186 0.077262 0.735781 -0.265282
N27   N     N_R   0.458288 0.550547 0.268638 0.235592
O101  O     O_R   0.432963 0.555211 0.282019 -0.320830
O102  O     O_R   0.474814 0.577262 0.264218 -0.265283
N28   N     N_R   0.541710 0.550550 0.731359 0.235593
O103  O     O_R   0.567035 0.555215 0.717980 -0.320827
O104  O     O_R   0.525182 0.577263 0.735777 -0.265281
F33   F     F_    0.975396 0.942464 0.279565 -0.553818
F34   F     F_    0.024618 0.942470 0.720449 -0.553812
F35   F     F_    0.475382 0.442470 0.279551 -0.553811
F36   F     F_    0.524621 0.442471 0.720452 -0.553810
N29   N     N_R   0.034778 0.946136 0.223297 0.210218
O105  O     O_R   0.065357 0.955570 0.271799 -0.375985
O106  O     O_R   0.031817 0.920113 0.182737 -0.338981
N30   N     N_R   0.965237 0.946128 0.776719 0.210214
O107  O     O_R   0.934655 0.955553 0.728216 -0.375989
O108  O     O_R   0.968206 0.920105 0.817286 -0.338990
N31   N     N_R   0.534763 0.446128 0.223281 0.210213
O109  O     O_R   0.565345 0.455554 0.271784 -0.375990
O110  O     O_R   0.531794 0.420105 0.182714 -0.338985
N32   N     N_R   0.465240 0.446126 0.776723 0.210212
O111  O     O_R   0.434657 0.455550 0.728220 -0.375990
O112  O     O_R   0.468210 0.420103 0.817291 -0.338986

loop_
_geom_bond_atom_site_label_1
_geom_bond_atom_site_label_2
_geom_bond_distance
_ccdc_geom_bond_type
C47   C51   1.401124 A    
C169  C173  1.415672 A    
C73   C77   1.398856 A    
C83   F19   1.357747 S    
N21   O89   1.301514 A    
O35   Zn11  2.015041 S    
C76   C80   1.398854 A    
C136  C138  1.398030 A    
C180  C182  1.389490 A    
C33   F5    1.389416 S    
O44   Zn11  2.011182 S    
C102  C106  1.396850 A    
C20   N28   1.470929 S    
N14   O76   1.301312 A    
C90   H46   1.084341 S    
C13   C29   1.556803 S    
C182  H70   1.082839 S    
C9    C13   1.532162 S    
C9    H1    1.113331 S    
C48   C52   1.401123 A    
O23   C117  1.279834 A    
N6    O59   1.300471 A    
C48   F12   1.357906 S    
C16   H12   1.110932 S    
N29   O105  1.301408 A    
Zn11  O47   2.015243 S    
C157  C161  1.418466 A    
C142  C151  1.413582 A    
C18   C34   1.543310 S    
Zn6   O30   2.014222 S    
C30   C34   1.565032 S    
O4    C4    1.284863 A    
C16   H8    1.110832 S    
N16   O80   1.301318 A    
C153  F25   1.359585 S    
N17   O82   1.299717 A    
C3    C99   1.460404 S    
O27   Zn8   2.028508 S    
O21   Zn5   2.029363 S    
O42   C124  1.289790 A    
C160  C162  1.418463 A    
N1    O50   1.301306 A    
C47   F11   1.357902 S    
N1    O49   1.301217 A    
C159  N19   1.435845 S    
C97   C101  1.402303 A    
O48   C128  1.292790 A    
C167  C176  1.397999 A    
N31   O109  1.301411 A    
C96   C100  1.412929 A    
C129  C133  1.389242 A    
C133  C137  1.398031 A    
C181  H69   1.082837 S    
C99   C103  1.402305 A    
O16   Zn4   2.030693 S    
C46   C50   1.401121 A    
O13   C5    1.276722 A    
O7    Zn4   2.012925 S    
C89   C93   1.393725 A    
C160  N20   1.435845 S    
N27   O102  1.301431 A    
C38   H22   1.115193 S    
C96   N8    1.437378 S    
C177  H65   1.083395 S    
O20   Zn8   2.014453 S    
C65   C85   1.402445 A    
O22   Zn6   2.029366 S    
O9    C5    1.280087 A    
C168  C172  1.395455 A    
C44   C64   1.399629 A    
C106  C110  1.411036 A    
C172  N24   1.441597 S    
C148  C150  1.400182 A    
C132  C136  1.389246 A    
N9    O65   1.301288 A    
O8    Zn4   2.012926 S    
C129  H53   1.083275 S    
O42   Zn9   2.011182 S    
C13   H9    1.110933 S    
N11   O69   1.301288 A    
O41   Zn10  2.011179 S    
C15   H11   1.110928 S    
C102  H50   1.083839 S    
C186  C200  1.467961 S    
C5    C25   1.468204 S    
N15   O78   1.301318 A    
C17   N25   1.470927 S    
O40   Zn12  2.012182 S    
C30   C116  1.466726 S    
C156  F28   1.359587 S    
C64   C126  1.455904 S    
C157  N17   1.435844 S    
O3    Zn2   2.011778 S    
C191  C200  1.402742 A    
C23   F35   1.388493 S    
N10   O68   1.301517 A    
C179  H67   1.083395 S    
N7    O61   1.300471 A    
C21   C25   1.569562 S    
C67   H35   1.083368 S    
N13   O73   1.301108 A    
C36   F8    1.389418 S    
C23   C27   1.569563 S    
C121  C139  1.453975 S    
C24   C28   1.569561 S    
N18   O83   1.301207 A    
C52   C88   1.462228 S    
C18   N26   1.470928 S    
C146  F22   1.359420 S    
Zn5   O29   2.014219 S    
C177  C187  1.397800 A    
C191  H75   1.083007 S    
C131  C140  1.402114 A    
C42   C62   1.399631 A    
C12   F4    1.385894 S    
C71   H39   1.083356 S    
O3    C3    1.284862 A    
C69   H37   1.083357 S    
C70   C74   1.398657 A    
N32   O111  1.301410 A    
N3    O53   1.301216 A    
C15   C31   1.556807 S    
C149  C163  1.463878 S    
C51   C55   1.403093 A    
C150  C164  1.463878 S    
N8    O63   1.300468 A    
C93   C97   1.412928 A    
C108  C112  1.411031 A    
C190  C194  1.389771 A    
C192  C200  1.402737 A    
N28   O104  1.301429 A    
C9    F1    1.385897 S    
C183  H71   1.082837 S    
C29   C37   1.559433 S    
N19   O85   1.301208 A    
C132  C140  1.402115 A    
C75   C111  1.456533 S    
N26   O100  1.301434 A    
C195  F31   1.358002 S    
C31   C39   1.559430 S    
C189  C193  1.389767 A    
N23   O94   1.301246 A    
C190  C199  1.402736 A    
C10   C14   1.532160 S    
C158  N18   1.435847 S    
C53   F13   1.359281 S    
O43   Zn12  2.011179 S    
C12   H4    1.113334 S    
O36   C122  1.288971 A    
C55   F15   1.359279 S    
H14   C34   1.112972 S    
C135  C138  1.398030 A    
C147  C150  1.400183 A    
C91   C111  1.397921 A    
C20   H28   1.113568 S    
N4    O55   1.301216 A    
N15   O77   1.301095 A    
C183  C186  1.404736 A    
C165  H61   1.083338 S    
Zn10  O46   2.015244 S    
C166  C170  1.395455 A    
O20   C114  1.286118 A    
C66   H34   1.083370 S    
C22   F34   1.388491 S    
C145  C149  1.400183 A    
C23   H19   1.113375 S    
O5    Zn3   2.012925 S    
C17   C25   1.566669 S    
C167  C171  1.395458 A    
C19   C27   1.566675 S    
O28   C118  1.274729 A    
C20   C28   1.566678 S    
C58   C62   1.413607 A    
O33   Zn9   2.015041 S    
O8    C4    1.284273 A    
C179  C181  1.389490 A    
C19   C35   1.543308 S    
O22   C116  1.279834 A    
C119  C197  1.456133 S    
C82   C86   1.404166 A    
O29   C119  1.282906 A    
C103  C107  1.396852 A    
C74   C110  1.456534 S    
C101  C105  1.396852 A    
O25   C115  1.274728 A    
C9    C25   1.556798 S    
C49   C53   1.403095 A    
O23   Zn7   2.029363 S    
C10   H2    1.113332 S    
C91   H47   1.084334 S    
O13   Zn3   2.030693 S    
C11   C27   1.556794 S    
C92   H48   1.084335 S    
C106  N10   1.441181 S    
C12   C28   1.556793 S    
C131  C135  1.389246 A    
O35   C122  1.288971 A    
C179  C188  1.397798 A    
C18   H26   1.113568 S    
C156  C164  1.397702 A    
C91   C95   1.393725 A    
C84   F20   1.357745 S    
C194  C197  1.403351 A    
N26   O99   1.301359 A    
C83   C87   1.404163 A    
O5    C1    1.284272 A    
C193  F29   1.357997 S    
Zn8   O32   2.014222 S    
N23   O93   1.301513 A    
C2    C98   1.460409 S    
O19   Zn7   2.014455 S    
N2    O52   1.301309 A    
O15   Zn4   2.030693 S    
N21   O90   1.301243 A    
C73   C109  1.456533 S    
C98   C102  1.402301 A    
O32   C120  1.282900 A    
N20   O87   1.301207 A    
C184  C186  1.404740 A    
C166  C175  1.397998 A    
C173  C187  1.457630 S    
O39   C125  1.288653 A    
C60   C64   1.413607 A    
C11   F3    1.385895 S    
N22   O91   1.301510 A    
C32   C118  1.466724 S    
N16   O79   1.301097 A    
C57   N1    1.438257 S    
C24   C40   1.544591 S    
C16   C32   1.556809 S    
O39   Zn11  2.012178 S    
O14   C6    1.276720 A    
C55   C59   1.399585 A    
C90   C94   1.393727 A    
C154  C163  1.397703 A    
C84   C88   1.404165 A    
O37   Zn9   2.012178 S    
N11   O70   1.301516 A    
C146  C149  1.400183 A    
C17   H25   1.113568 S    
O1    Zn1   2.011778 S    
O17   C113  1.286114 A    
C182  C185  1.404739 A    
C59   N3    1.438257 S    
O46   C127  1.292792 A    
C122  C140  1.453979 S    
O10   C6    1.280084 A    
C156  C160  1.395597 A    
C32   C40   1.559428 S    
C184  H72   1.082840 S    
C190  H74   1.083010 S    
C78   C82   1.389482 A    
C105  C109  1.411033 A    
C172  C174  1.415672 A    
N6    O60   1.301361 A    
C13   H5    1.110829 S    
C56   F16   1.359278 S    
C195  C198  1.403352 A    
C45   F9    1.357905 S    
C141  C151  1.413593 A    
C62   C124  1.455899 S    
C120  C198  1.456125 S    
C180  H68   1.083396 S    
O40   C126  1.288653 A    
C8    C28   1.468207 S    
O47   C128  1.292792 A    
C193  C197  1.403354 A    
Zn9   O45   2.015243 S    
C43   C47   1.387473 A    
C196  F32   1.358003 S    
C65   C69   1.390149 A    
C104  H52   1.083844 S    
C81   F17   1.357746 S    
N5    O58   1.301358 A    
C67   C71   1.390145 A    
C134  H58   1.083393 S    
C14   C30   1.556808 S    
N17   O81   1.301210 A    
C189  C199  1.402741 A    
O36   Zn12  2.015042 S    
C130  C139  1.402116 A    
C148  F24   1.359427 S    
C93   N5    1.437378 S    
C40   H24   1.115190 S    
O34   Zn10  2.015042 S    
C143  N15   1.440601 S    
N24   O95   1.301515 A    
C92   C112  1.397922 A    
C34   F6    1.389417 S    
C145  F21   1.359416 S    
C130  H54   1.083274 S    
C168  H64   1.083337 S    
C77   C81   1.389482 A    
N19   O86   1.299718 A    
C71   C75   1.398659 A    
C72   C76   1.398654 A    
C169  N21   1.441596 S    
N25   O98   1.301433 A    
C70   H38   1.083356 S    
O24   C118  1.279834 A    
O31   C120  1.282905 A    
O38   C124  1.288652 A    
Zn12  O48   2.015244 S    
C66   C86   1.402446 A    
C107  N11   1.441178 S    
O19   C114  1.286114 A    
C53   C57   1.399585 A    
C94   C98   1.412931 A    
C158  C161  1.418465 A    
C113  C161  1.470018 S    
C29   C33   1.565034 S    
C137  C151  1.455344 S    
C138  C152  1.455344 S    
C134  C137  1.398031 A    
C95   N7    1.437375 S    
C51   C87   1.462228 S    
C104  C108  1.396848 A    
C7    C27   1.468204 S    
C144  C152  1.413584 A    
O28   Zn7   2.028510 S    
N29   O106  1.301148 A    
C42   H30   1.083824 S    
C41   C61   1.399628 A    
C46   F10   1.357908 S    
O12   Zn2   2.029637 S    
C17   C33   1.543311 S    
C24   F36   1.388491 S    
N27   O101  1.301362 A    
C130  C134  1.389246 A    
C21   C37   1.544591 S    
O1    C1    1.284862 A    
N14   O75   1.301106 A    
C170  C173  1.415668 A    
C171  N23   1.441600 S    
C78   H42   1.083570 S    
C23   C39   1.544591 S    
C166  H62   1.083334 S    
O25   Zn6   2.028508 S    
C18   C26   1.566675 S    
H16   C36   1.112972 S    
C153  C157  1.395593 A    
C132  H56   1.083275 S    
N18   O84   1.299716 A    
C155  C159  1.395593 A    
C74   C78   1.398853 A    
C135  H59   1.083395 S    
C37   H21   1.115189 S    
C192  H76   1.083012 S    
C76   C112  1.456533 S    
O26   Zn5   2.028510 S    
C141  N13   1.440592 S    
C50   C86   1.462228 S    
C89   C109  1.397917 A    
N32   O112  1.301150 A    
C10   C26   1.556795 S    
C11   H3    1.113331 S    
N8    O64   1.301358 A    
C174  C188  1.457630 S    
C52   C56   1.403093 A    
C77   H41   1.083569 S    
O45   C127  1.292794 A    
C80   H44   1.083573 S    
C21   H17   1.113373 S    
O6    C2    1.284270 A    
O4    Zn2   2.011781 S    
C68   C72   1.390148 A    
C170  N22   1.441601 S    
N12   O71   1.301287 A    
C194  F30   1.357998 S    
C108  N12   1.441178 S    
C75   C79   1.398856 A    
C178  C187  1.397796 A    
O17   Zn5   2.014455 S    
O18   C113  1.286118 A    
C1    C97   1.460405 S    
C39   H23   1.115192 S    
C128  C176  1.461001 S    
N4    O56   1.301309 A    
O30   C119  1.282902 A    
C43   C63   1.399634 A    
O2    Zn1   2.011781 S    
O41   C123  1.289790 A    
O10   Zn1   2.029637 S    
C89   H45   1.084335 S    
C60   N4    1.438259 S    
O43   C125  1.289790 A    
C61   C123  1.455904 S    
C22   C38   1.544591 S    
C56   C60   1.399586 A    
C100  C104  1.402306 A    
N30   O107  1.301412 A    
C24   H20   1.113374 S    
C144  C146  1.396602 A    
C178  C184  1.389493 A    
N9    O66   1.301515 A    
C127  C175  1.461001 S    
N20   O88   1.299716 A    
O37   C123  1.288653 A    
C81   C85   1.404166 A    
C82   F18   1.357746 S    
C19   N27   1.470930 S    
C10   F2    1.385897 S    
C22   C26   1.569561 S    
C20   C36   1.543310 S    
C30   C38   1.559429 S    
C105  N9    1.441179 S    
O15   C7    1.276721 A    
C44   H32   1.083822 S    
O26   C116  1.274728 A    
N10   O67   1.301290 A    
C80   C84   1.389482 A    
C58   N2    1.438261 S    
O7    C3    1.284271 A    
N13   O74   1.301315 A    
C79   C83   1.389482 A    
C54   F14   1.359277 S    
C35   F7    1.389417 S    
O21   C115  1.279834 A    
C141  C147  1.396607 A    
C142  C148  1.396598 A    
C180  C188  1.397796 A    
C133  H57   1.083394 S    
C40   N32   1.470477 S    
C159  C162  1.418465 A    
C65   H33   1.083365 S    
C21   F33   1.388493 S    
C181  C185  1.404740 A    
C22   H18   1.113374 S    
O16   C8    1.276720 A    
C37   N29   1.470482 S    
O27   C117  1.274728 A    
C178  H66   1.083394 S    
C154  F26   1.359584 S    
C57   C61   1.413610 A    
C136  H60   1.083394 S    
O11   C7    1.280087 A    
N28   O103  1.301360 A    
O12   C8    1.280084 A    
C165  C175  1.398001 A    
C41   H29   1.083826 S    
O9    Zn1   2.029632 S    
C79   H43   1.083572 S    
C39   N31   1.470477 S    
C72   H40   1.083357 S    
N22   O92   1.301247 A    
C171  C174  1.415674 A    
C107  C111  1.411033 A    
N7    O62   1.301359 A    
C67   C87   1.402447 A    
O24   Zn8   2.029366 S    
C68   C88   1.402444 A    
C14   H10   1.110930 S    
O38   Zn10  2.012182 S    
C94   N6    1.437371 S    
C153  C163  1.397702 A    
O33   C121  1.288971 A    
C155  F27   1.359587 S    
O11   Zn2   2.029632 S    
C15   H7    1.110833 S    
C38   N30   1.470477 S    
C103  H51   1.083841 S    
C114  C162  1.470018 S    
C41   C45   1.387476 A    
C95   C99   1.412927 A    
C6    C26   1.468209 S    
O6    Zn3   2.012926 S    
Zn7   O31   2.014219 S    
O18   Zn6   2.014453 S    
C32   C36   1.565031 S    
N3    O54   1.301309 A    
C155  C164  1.397704 A    
C177  C183  1.389493 A    
C19   H27   1.113574 S    
C147  F23   1.359433 S    
C143  C152  1.413587 A    
C167  H63   1.083338 S    
C191  C195  1.389771 A    
O2    C2    1.284867 A    
H15   C35   1.112972 S    
C44   C48   1.387477 A    
N31   O110  1.301148 A    
N5    O57   1.300468 A    
C54   C58   1.399586 A    
C69   C73   1.398655 A    
C31   C117  1.466726 S    
C101  H49   1.083842 S    
C129  C139  1.402117 A    
N12   O72   1.301517 A    
C154  C158  1.395593 A    
C144  N16   1.440600 S    
O14   Zn3   2.030693 S    
N30   O108  1.301147 A    
O34   C121  1.288971 A    
C4    C100  1.460405 S    
N24   O96   1.301244 A    
C192  C196  1.389771 A    
C131  H55   1.083274 S    
C143  C145  1.396602 A    
C31   C35   1.565030 S    
C168  C176  1.398001 A    
N25   O97   1.301362 A    
C185  C199  1.467961 S    
C189  H73   1.083005 S    
C90   C110  1.397913 A    
C49   C85   1.462228 S    
N2    O51   1.301214 A    
C11   C15   1.532160 S    
C50   C54   1.403097 A    
H13   C33   1.112968 S    
C12   C16   1.532159 S    
C142  N14   1.440595 S    
C63   C125  1.455904 S    
C14   H6    1.110833 S    
C196  C198  1.403353 A    
O44   C126  1.289790 A    
C92   C96   1.393724 A    
C43   H31   1.083826 S    
C165  C169  1.395458 A    
C29   C115  1.466724 S    
C59   C63   1.413610 A    
C66   C70   1.390145 A    
C42   C46   1.387474 A    
C45   C49   1.401123 A    
C68   H36   1.083368 S    
