data_mof_unit_pretest_710.cif
_audit_creation_date              2012-12-10T18:09:49-0500
_audit_creation_method            fapswitch 2.2
_symmetry_space_group_name_H-M    P1
_symmetry_Int_Tables_number       1
_space_group_crystal_system       triclinic
_cell_length_a                    10.678127
_cell_length_b                    12.710981
_cell_length_c                    13.112519
_cell_angle_alpha                 82.538674
_cell_angle_beta                  93.301826
_cell_angle_gamma                 102.090165
_cell_volume                      1724.69518415

loop_
_atom_site_label
_atom_site_type_symbol
_atom_type_description
_atom_site_fract_x
_atom_site_fract_y
_atom_site_fract_z
_atom_type_partial_charge
C1    C     C_R   0.492225 0.439796 0.691306 0.858641
C2    C     C_3   0.121174 0.499229 0.495866 -0.065265
C3    C     C_3   0.040661 0.386953 0.472119 0.188493
C4    C     C_3   0.089987 0.593307 0.415103 0.203307
C5    C     C_R   0.627984 0.725459 0.056799 0.487939
C6    C     C_R   0.564963 0.591208 0.203969 -0.261608
C7    C     C_R   0.424938 0.301096 0.838183 -0.293387
C8    C     C_R   0.404331 0.273286 0.943545 0.476149
C9    C     C_R   0.454760 0.348841 0.010798 -0.078655
C10   C     C_R   0.535092 0.449009 0.975510 0.002170
C11   C     C_R   0.565250 0.472050 0.871251 -0.061925
C12   C     C_R   0.741737 0.500790 0.499252 0.910612
C13   C     C_R   0.576354 0.531587 0.039297 0.015771
C14   C     C_R   0.623255 0.639656 0.996006 -0.127168
C15   C     C_R   0.673753 0.655065 0.897695 -0.207382
C16   C     C_R   0.656804 0.567829 0.840274 0.480904
C17   C     C_R   0.576458 0.509136 0.145148 0.385570
C18   C     C_R   0.591411 0.699619 0.159482 -0.185328
C19   C     C_R   0.499235 0.402217 0.801406 -0.162927
C20   C     C_R   0.288027 0.086630 0.367795 0.377603
C21   C     C_R   0.662306 0.801605 0.624864 -0.009929
C22   C     C_R   0.686444 0.900812 0.662837 -0.370471
C23   C     C_R   0.524443 0.559473 0.309889 0.950121
C24   C     C_R   0.615063 0.979397 0.625297 0.482449
C25   C     C_R   0.525042 0.959673 0.541957 -0.073683
C26   C     C_R   0.497343 0.853510 0.510741 0.119765
C27   C     C_R   0.460873 0.040156 0.488159 -0.032110
C28   C     C_R   0.354347 0.009128 0.420293 -0.011555
C29   C     C_R   0.318991 0.902493 0.402577 -0.333899
C30   C     C_R   0.398342 0.830322 0.434588 0.467297
C31   C     C_R   0.501053 0.151548 0.494557 -0.000557
C32   C     C_R   0.328285 0.193140 0.384655 0.008002
C33   C     C_R   0.258293 0.499657 0.498125 0.980534
C34   C     C_3   0.939296 0.514359 0.605791 -0.456680
C35   C     C_3   0.084279 0.517697 0.605080 0.111121
C36   C     C_3   0.898763 0.390739 0.468331 -0.568218
C37   C     C_3   0.945755 0.599333 0.418325 0.730663
C38   C     C_3   0.878686 0.501917 0.496617 -0.068450
H1    H     H_    0.586897 0.764149 0.204755 0.206567
H2    H     H_    0.424454 0.329846 0.089481 0.211012
H3    H     H_    0.921796 0.589063 0.633239 0.281678
H4    H     H_    0.718114 0.742354 0.653906 0.219230
H5    H     H_    0.850039 0.323376 0.524673 0.198796
H6    H     H_    0.146969 0.670209 0.439129 0.203285
N1    N     N_R   0.433240 0.222190 0.444680 -0.163862
N2    N     N_R   0.566070 0.776970 0.554790 -0.108789
O1    O     O_R   0.468120 0.366740 0.627160 -0.618686
O2    O     O_R   0.510770 0.544830 0.662520 -0.588533
O3    O     O_R   0.663880 0.410950 0.482330 -0.658105
O4    O     O_R   0.706530 0.589040 0.517700 -0.558463
O5    O     O_R   0.489230 0.455170 0.337480 -0.594114
O6    O     O_R   0.531880 0.633260 0.372840 -0.544630
O7    O     O_R   0.293470 0.410960 0.482300 -0.611696
O8    O     O_R   0.336120 0.589050 0.517670 -0.529067
Zn1   Zn    Zn3+2 0.471520 0.381090 0.476390 0.970060
Zn2   Zn    Zn3+2 0.528480 0.618910 0.523610 1.050040
H7    H     H_    0.894338 0.444523 0.661114 0.143286
O9    O     O_3   0.130937 0.589171 0.315615 -0.754579
H8    H     H_    0.075712 0.527585 0.285693 0.399184
H9    H     H_    0.854355 0.373278 0.392036 0.218136
O10   O     O_3   0.074611 0.357232 0.379404 -0.743350
H10   H     H_    0.038611 0.278509 0.379970 0.356533
H11   H     H_    0.734465 0.730986 0.868257 0.161914
O11   O     O_3   0.660911 0.833812 0.019013 -0.740126
H12   H     H_    0.651090 0.841860 0.943124 0.330877
O12   O     O_3   0.601746 0.410380 0.188690 -0.754499
H13   H     H_    0.661175 0.423373 0.248783 0.346273
H14   H     H_    0.376841 0.246459 0.784663 0.172240
O13   O     O_3   0.328173 0.176318 0.982256 -0.742650
H15   H     H_    0.299367 0.132171 0.924999 0.340758
O14   O     O_3   0.735768 0.576037 0.759083 -0.797494
H16   H     H_    0.735078 0.501886 0.743142 0.311730
H17   H     H_    0.277857 0.254238 0.348261 0.193792
H18   H     H_    0.235557 0.875611 0.354587 0.169343
O15   O     O_3   0.185943 0.062200 0.299687 -0.744777
H19   H     H_    0.208690 0.014448 0.252870 0.352022
H20   H     H_    0.586596 0.185474 0.536050 0.204030
O16   O     O_3   0.625825 0.070718 0.674524 -0.798040
H21   H     H_    0.691477 0.070235 0.731177 0.341619
H22   H     H_    0.758537 0.915137 0.723803 0.157534
O17   O     O_3   0.382898 0.740815 0.384825 -0.712161
H23   H     H_    0.330859 0.748781 0.320122 0.345505
O18   O     O_3   0.152442 0.617785 0.632830 -0.724385
H24   H     H_    0.146461 0.614410 0.708518 0.353397
H25   H     H_    0.107873 0.451076 0.662488 0.096689
H26   H     H_    0.058596 0.324349 0.536354 0.117573
O19   O     O_3   0.884539 0.599843 0.319651 -0.764534
H27   H     H_    0.870953 0.526875 0.297486 0.305250
O20   O     O_3   0.938531 0.697239 0.455329 -0.735399
H28   H     H_    0.970772 0.757446 0.401039 0.361668

loop_
_geom_bond_atom_site_label_1
_geom_bond_atom_site_label_2
_ccdc_geom_bond_type
C2    C35   S    
O19   H27   S    
C32   N1    A    
O15   H19   S    
C12   O3    A    
C7    C8    A    
C16   O14   S    
C11   C19   A    
C8    O13   S    
C29   C30   A    
C28   C29   A    
C15   C16   A    
C34   C35   S    
C7    H14   S    
C8    C9    A    
C34   H7    S    
C9    C10   A    
O7    Zn1   S    
O12   H13   S    
C13   C14   A    
C3    H26   S    
O13   H15   S    
C34   H3    S    
C31   H20   S    
C3    O10   S    
C33   O7    A    
C6    C18   A    
O8    Zn2   S    
C1    C19   S    
C27   C31   A    
C24   C25   A    
C32   H17   S    
C35   O18   S    
O16   H21   S    
C1    O1    A    
C29   H18   S    
C4    H6    S    
O9    H8    S    
O3    Zn1   S    
C9    H2    S    
O17   H23   S    
C5    O11   S    
C2    C4    S    
C18   H1    S    
C37   C38   S    
C11   C16   A    
C23   O5    A    
O18   H24   S    
C17   O12   S    
N1    Zn1   S    
C5    C14   A    
C2    C33   S    
C24   O16   S    
C26   C30   A    
C7    C19   A    
C22   C24   A    
C4    O9    S    
O1    Zn1   S    
C21   N2    A    
C20   C32   A    
C33   O8    A    
O2    Zn2   S    
C6    C17   A    
C34   C38   S    
C37   O19   S    
C36   H9    S    
C10   C13   A    
C12   O4    A    
C1    O2    A    
C5    C18   A    
C37   O20   S    
C25   C27   A    
C20   C28   A    
C13   C17   A    
O11   H12   S    
C30   O17   S    
C36   C38   S    
C2    C3    S    
C25   C26   A    
C22   H22   S    
O14   H16   S    
C35   H25   S    
C23   O6    A    
C3    C36   S    
C6    C23   S    
O5    Zn1   S    
C12   C38   S    
O10   H10   S    
O4    Zn2   S    
C10   C11   A    
C26   N2    A    
C21   H4    S    
C4    C37   S    
C20   O15   S    
C31   N1    A    
N2    Zn2   S    
C27   C28   A    
C15   H11   S    
C14   C15   A    
C36   H5    S    
O20   H28   S    
C21   C22   A    
O6    Zn2   S    
