data_mof_unit_pretest_679.cif
_audit_creation_date              2012-12-10T20:57:59-0500
_audit_creation_method            fapswitch 2.2
_symmetry_space_group_name_H-M    P1
_symmetry_Int_Tables_number       1
_space_group_crystal_system       triclinic
_cell_length_a                    18.190504
_cell_length_b                    18.270598
_cell_length_c                    18.36748
_cell_angle_alpha                 120.051106
_cell_angle_beta                  89.978019
_cell_angle_gamma                 119.85869
_cell_volume                      4323.19353728

loop_
_atom_site_label
_atom_site_type_symbol
_atom_type_description
_atom_site_fract_x
_atom_site_fract_y
_atom_site_fract_z
_atom_type_partial_charge
C1    C     C_R   0.358529 0.220210 0.361217 0.798965
C2    C     C_3   0.291980 0.592814 0.360983 -0.402590
C3    C     C_3   0.302044 0.502943 0.302739 0.185564
C4    C     C_3   0.201905 0.505375 0.201766 0.171293
C5    C     C_3   0.146900 0.404177 0.196759 -0.441943
C6    C     C_3   0.238935 0.600108 0.301878 -0.033254
C7    C     C_3   0.681782 0.938764 0.649119 -0.448271
C8    C     C_3   0.740592 0.059182 0.708963 -0.152728
C9    C     C_3   0.676105 0.938110 0.785802 -0.373603
C10   C     C_3   0.800168 0.941517 0.723417 -0.392814
C11   C     C_3   0.698724 0.897283 0.698337 0.186629
C12   C     C_R   0.641008 0.780968 0.640054 0.739908
C13   C     C_3   0.798583 0.102124 0.801653 0.112010
C14   C     C_3   0.736898 0.057766 0.847714 -0.378874
C15   C     C_3   0.858387 0.060726 0.782843 -0.409593
C16   C     C_3   0.642506 0.397571 0.204921 -0.391246
C17   C     C_3   0.702173 0.397318 0.145689 -0.391709
C18   C     C_3   0.735574 0.592028 0.298023 -0.414791
C19   C     C_3   0.777344 0.501304 0.338313 -0.393931
C20   C     C_3   0.697708 0.497316 0.301442 0.211839
C21   C     C_3   0.799260 0.497070 0.200081 0.206483
C22   C     C_3   0.795991 0.592319 0.239035 -0.381179
C23   C     C_R   0.359750 0.501117 0.641169 0.788419
C24   C     C_3   0.836779 0.500278 0.278289 -0.411896
C25   C     C_R   0.321878 0.169311 0.589434 -0.126697
C26   C     C_R   0.318340 0.123715 0.500444 -0.037538
C27   C     C_R   0.256207 0.106841 0.438395 0.169488
C28   C     C_R   0.198095 0.136604 0.466389 -0.140269
C29   C     C_R   0.201730 0.182014 0.555506 -0.124094
C30   C     C_R   0.263214 0.197772 0.616803 -0.116002
C31   C     C_R   0.191851 0.945696 0.286809 -0.082747
C32   C     C_R   0.189544 0.892744 0.197200 -0.127783
C33   C     C_R   0.239508 0.948999 0.162597 -0.023492
C34   C     C_R   0.640567 0.498756 0.359307 0.742502
C35   C     C_R   0.292925 0.055613 0.217835 -0.271101
C36   C     C_R   0.299646 0.108211 0.307227 -0.055601
C37   C     C_R   0.249901 0.053558 0.343040 -0.110355
C38   C     C_R   0.300074 0.872085 0.048725 -0.173552
C39   C     C_R   0.305018 0.829196 0.962687 -0.132975
C40   C     C_R   0.250699 0.815072 0.896744 -0.150837
C41   C     C_R   0.190356 0.842323 0.916091 -0.163120
C42   C     C_R   0.183599 0.884699 0.002081 0.166382
C43   C     C_R   0.240079 0.900567 0.069486 0.139345
C44   C     C_R   0.906897 0.598878 0.552465 -0.162000
C45   C     C_R   0.641904 0.499904 0.639799 0.793015
C46   C     C_R   0.856670 0.547957 0.589604 -0.156700
C47   C     C_R   0.839974 0.600821 0.667150 0.155696
C48   C     C_R   0.874705 0.705269 0.707650 -0.100993
C49   C     C_R   0.923949 0.755543 0.669666 -0.131882
C50   C     C_R   0.940111 0.702409 0.592169 -0.116300
C51   C     C_R   0.840397 0.546544 0.764011 -0.261524
C52   C     C_R   0.800138 0.501979 0.808778 -0.037583
C53   C     C_R   0.708130 0.457956 0.798543 -0.008466
C54   C     C_R   0.658122 0.457163 0.741357 -0.261497
C55   C     C_R   0.698466 0.502139 0.696887 -0.046892
C56   C     C_R   0.358688 0.500909 0.359515 0.751641
C57   C     C_R   0.791166 0.548941 0.709314 -0.016831
C58   C     C_R   0.594783 0.310480 0.803626 -0.119089
C59   C     C_R   0.545718 0.272506 0.849452 -0.143631
C60   C     C_R   0.562555 0.340319 0.939968 -0.117598
C61   C     C_R   0.629115 0.446104 0.985039 -0.148287
C62   C     C_R   0.679034 0.484304 0.939731 -0.128874
C63   C     C_R   0.661860 0.416639 0.848619 0.157830
C64   C     C_R   0.378482 0.787206 0.701067 -0.121512
C65   C     C_R   0.363162 0.725635 0.731088 -0.124978
C66   C     C_R   0.282838 0.626313 0.687459 0.149445
C67   C     C_3   0.344960 0.517845 0.233818 -0.409739
C68   C     C_R   0.217434 0.590267 0.614842 -0.152969
C69   C     C_R   0.232862 0.652300 0.585317 -0.153278
C70   C     C_R   0.313459 0.750476 0.628125 -0.105812
C71   C     C_R   0.211598 0.555781 0.770584 -0.267265
C72   C     C_R   0.194819 0.498005 0.805035 -0.051816
C73   C     C_R   0.233610 0.442451 0.786053 -0.014977
C74   C     C_R   0.288706 0.447383 0.734121 -0.271281
C75   C     C_R   0.304680 0.504140 0.698875 -0.051501
C76   C     C_R   0.266753 0.560705 0.718648 -0.013492
C77   C     C_R   0.284995 0.416514 0.891823 -0.157341
C78   C     C_3   0.282547 0.511204 0.170109 -0.398969
C79   C     C_R   0.272000 0.355015 0.921270 -0.151188
C80   C     C_R   0.193249 0.255249 0.877648 -0.111449
C81   C     C_R   0.127678 0.216436 0.803973 -0.127273
C82   C     C_R   0.140612 0.277467 0.773995 -0.111798
C83   C     C_R   0.219062 0.378269 0.818382 0.147878
C84   C     C_R   0.857014 0.498558 0.142760 0.743659
C85   C     C_R   0.138429 0.499387 0.861464 0.792086
C86   C     C_R   0.856724 0.218891 0.861611 0.732207
C87   C     C_R   0.137037 0.780049 0.141449 0.806552
C88   C     C_R   0.856029 0.501221 0.863453 0.806531
C89   C     C_3   0.207148 0.400264 0.251951 -0.406933
C90   C     C_R   0.141636 0.502021 0.143029 0.724656
H1    H     H_    0.357362 0.457632 0.193832 0.179610
H2    H     H_    0.179815 0.593490 0.323256 0.150132
H3    H     H_    0.176133 0.386074 0.299773 0.152624
H4    H     H_    0.090411 0.399572 0.222458 0.151156
H5    H     H_    0.608966 0.906107 0.628785 0.195183
H6    H     H_    0.698285 0.910889 0.586449 0.137692
H7    H     H_    0.788307 0.085684 0.675538 0.105423
H8    H     H_    0.604489 0.910797 0.770132 0.191634
H9    H     H_    0.694927 0.087821 0.867046 0.212964
H10   H     H_    0.814596 0.913617 0.759498 0.171843
H11   H     H_    0.411081 0.594286 0.269304 0.150788
H12   H     H_    0.818695 0.913927 0.662008 0.174887
H13   H     H_    0.903877 0.089713 0.749165 0.171735
H14   H     H_    0.901671 0.089487 0.846602 0.181055
H15   H     H_    0.685275 0.907007 0.821214 0.139675
H16   H     H_    0.779001 0.083650 0.910649 0.142240
H17   H     H_    0.585135 0.392553 0.175774 0.178773
H18   H     H_    0.614168 0.328086 0.205496 0.165431
H19   H     H_    0.703005 0.327904 0.117770 0.163850
H20   H     H_    0.672730 0.391610 0.088683 0.192876
H21   H     H_    0.679428 0.589926 0.270659 0.153596
H22   H     H_    0.320953 0.578828 0.166721 0.146310
H23   H     H_    0.770319 0.592570 0.184284 0.154909
H24   H     H_    0.818986 0.573096 0.406759 0.194660
H25   H     H_    0.751797 0.434471 0.342372 0.153322
H26   H     H_    0.838910 0.431902 0.251867 0.150036
H27   H     H_    0.906724 0.570520 0.319105 0.185745
H28   H     H_    0.775187 0.664762 0.366461 0.170425
H29   H     H_    0.864708 0.664256 0.279892 0.170710
H30   H     H_    0.265571 0.232153 0.685571 0.135025
H31   H     H_    0.369685 0.181977 0.637040 0.118024
H32   H     H_    0.363446 0.100966 0.479577 0.109721
H33   H     H_    0.257499 0.441018 0.101654 0.191303
H34   H     H_    0.149680 0.123653 0.419121 0.115059
H35   H     H_    0.156652 0.204572 0.576990 0.124862
H36   H     H_    0.331346 0.097798 0.190738 0.170667
H37   H     H_    0.343303 0.883549 0.099523 0.117806
H38   H     H_    0.351395 0.807408 0.947206 0.128628
H39   H     H_    0.255129 0.782810 0.830326 0.145239
H40   H     H_    0.148796 0.830569 0.863770 0.129774
H41   H     H_    0.978527 0.741471 0.562978 0.124878
H42   H     H_    0.211805 0.334599 0.206783 0.181839
H43   H     H_    0.919961 0.558041 0.492795 0.124611
H44   H     H_    0.831416 0.467846 0.558514 0.121376
H45   H     H_    0.863424 0.747348 0.768308 0.114050
H46   H     H_    0.949995 0.835802 0.700571 0.115427
H47   H     H_    0.910950 0.579754 0.771193 0.166990
H48   H     H_    0.587463 0.423674 0.733827 0.170068
H49   H     H_    0.580048 0.257544 0.733072 0.137439
H50   H     H_    0.493930 0.190698 0.814574 0.122653
H51   H     H_    0.523883 0.310960 0.975162 0.117433
H52   H     H_    0.641414 0.498540 0.054906 0.115449
H53   H     H_    0.116920 0.335474 0.126309 0.181224
H54   H     H_    0.729595 0.566560 0.974955 0.106248
H55   H     H_    0.325398 0.798186 0.604949 0.118090
H56   H     H_    0.440681 0.863392 0.734358 0.142574
H57   H     H_    0.413886 0.754754 0.787688 0.106185
H58   H     H_    0.154941 0.514167 0.581018 0.118670
H59   H     H_    0.182403 0.624208 0.529147 0.116527
H60   H     H_    0.181721 0.597919 0.784204 0.177080
H61   H     H_    0.319281 0.406096 0.721152 0.175266
H62   H     H_    0.346216 0.493707 0.926064 0.118848
H63   H     H_    0.323018 0.384669 0.977869 0.121072
H64   H     H_    0.255641 0.579618 0.406548 0.164159
H65   H     H_    0.183213 0.207887 0.900712 0.115316
H66   H     H_    0.067014 0.138960 0.769942 0.113803
H67   H     H_    0.089627 0.246618 0.716645 0.106190
H68   H     H_    0.359705 0.666487 0.404288 0.176249
O1    O     O_3   0.500000 0.500000 0.500000 -0.472648
O2    O     O_R   0.383400 0.560740 0.616060 -0.634384
O3    O     O_R   0.555060 0.439270 0.322940 -0.653905
O4    O     O_R   0.383950 0.268380 0.445700 -0.639670
O5    O     O_R   0.677590 0.731610 0.615290 -0.647084
O6    O     O_3   0.997750 0.500010 0.002220 -0.479898
O7    O     O_R   0.942690 0.560750 0.179280 -0.638312
O8    O     O_R   0.114340 0.439270 0.886160 -0.635657
O9    O     O_R   0.820160 0.268410 0.886930 -0.621310
O10   O     O_R   0.113800 0.731630 0.056520 -0.646391
O11   O     O_R   0.819390 0.439310 0.886160 -0.614384
O12   O     O_R   0.383400 0.268380 0.323710 -0.650982
O13   O     O_R   0.115110 0.560720 0.179280 -0.657159
O14   O     O_R   0.941380 0.560750 0.885620 -0.670411
O15   O     O_R   0.115110 0.439270 0.057830 -0.637314
O16   O     O_R   0.942690 0.268390 0.886930 -0.646248
O17   O     O_R   0.114340 0.731630 0.178520 -0.625479
O18   O     O_R   0.820160 0.439310 0.057830 -0.645117
O19   O     O_R   0.113800 0.560730 0.885620 -0.639782
O20   O     O_R   0.555060 0.731630 0.615290 -0.644220
O21   O     O_R   0.383950 0.439280 0.616600 -0.641357
O22   O     O_R   0.677590 0.560710 0.444390 -0.640415
O23   O     O_R   0.556370 0.439260 0.616600 -0.651061
O24   O     O_R   0.382640 0.439290 0.322940 -0.649653
O25   O     O_R   0.678360 0.560700 0.616060 -0.638859
O26   O     O_R   0.382640 0.560750 0.444390 -0.642842
Zn1   Zn    Zn3+2 0.456040 0.586770 0.543190 0.962987
Zn2   Zn    Zn3+2 0.456820 0.413240 0.543960 0.963450
Zn3   Zn    Zn3+2 0.631110 0.586750 0.543190 0.958583
Zn4   Zn    Zn3+2 0.456040 0.413240 0.369660 0.943271
Zn5   Zn    Zn3+2 0.041710 0.413240 0.959030 0.962959
Zn6   Zn    Zn3+2 0.866640 0.413270 0.959030 0.998598
Zn7   Zn    Zn3+2 0.040930 0.586780 0.958260 0.961465
Zn8   Zn    Zn3+2 0.041710 0.586770 0.132560 0.970155
C91   C     C_2   0.683105 0.098827 0.715285 0.937692
O27   O     O_2   0.700732 0.157408 0.693486 -0.648270
O28   O     O_R   0.609349 0.067460 0.744404 -0.831982
H69   H     H_    0.576261 0.098747 0.744841 0.332589
C92   C     C_2   0.129422 0.890192 0.321188 0.956189
O29   O     O_2   0.158860 0.892493 0.382711 -0.645619
O30   O     O_R   0.036923 0.835479 0.282636 -0.820512
H70   H     H_    0.001780 0.803615 0.313348 0.327093
C93   C     C_3   0.116119 0.911740 0.018940 -0.476808
C94   C     C_3   0.019548 0.813801 0.970133 -0.281655
C95   C     C_3   0.950891 0.839976 0.983008 -0.926899
H71   H     H_    0.959072 0.885378 0.054892 0.267806
H72   H     H_    0.959190 0.885154 0.956063 0.257135
H73   H     H_    0.881989 0.767396 0.946809 0.252722
H74   H     H_    0.008041 0.766422 0.897579 0.217618
H75   H     H_    0.008608 0.767084 0.996076 0.250445
H76   H     H_    0.125779 0.957849 0.091079 0.218034
H77   H     H_    0.126478 0.960458 0.995291 0.194911
C96   C     C_3   0.297872 0.707223 0.316540 -0.410494
C97   C     C_3   0.302042 0.792429 0.403133 -0.338306
C98   C     C_3   0.357652 0.896401 0.415825 -0.832693
H78   H     H_    0.427421 0.919708 0.418781 0.247615
H79   H     H_    0.326911 0.891815 0.360105 0.267782
H80   H     H_    0.360003 0.956245 0.479283 0.250898
H81   H     H_    0.232974 0.771780 0.401121 0.246375
H82   H     H_    0.332334 0.800225 0.461275 0.208461
H83   H     H_    0.367146 0.728600 0.318594 0.198419
H84   H     H_    0.271340 0.704868 0.260519 0.215700

loop_
_geom_bond_atom_site_label_1
_geom_bond_atom_site_label_2
_ccdc_geom_bond_type
C58   H49   S    
C66   C68   A    
C40   H39   S    
C9    H8    S    
C88   O14   A    
C29   H35   S    
C73   C74   A    
C48   H45   S    
C34   O22   A    
C35   C36   A    
C31   C92   S    
C95   H71   S    
C34   O3    A    
C17   H20   S    
C72   C85   S    
C45   O23   A    
C7    C8    S    
O21   Zn2   S    
C2    C6    S    
C98   H78   S    
C7    C11   S    
C96   H84   S    
C95   H72   S    
C90   O15   A    
C45   O25   A    
C24   H27   S    
C8    C13   S    
O10   Zn7   S    
C30   H30   S    
O19   Zn7   S    
C85   O8    A    
O2    Zn1   S    
O1    Zn2   S    
C36   C37   A    
O3    Zn4   S    
C10   C15   S    
C71   C76   A    
C5    H53   S    
C71   H60   S    
C79   H63   S    
C97   H81   S    
C77   C83   A    
C9    H15   S    
C1    O12   A    
C25   C30   A    
O7    Zn8   S    
O26   Zn1   S    
O5    Zn3   S    
C41   C42   A    
O1    Zn3   S    
C92   O30   S    
C84   O7    A    
C81   H66   S    
C16   H17   S    
C46   C47   A    
O20   Zn1   S    
O30   H70   S    
C22   H23   S    
C47   C48   A    
C16   C17   S    
C91   O28   S    
C90   O13   A    
C48   C49   A    
C39   H38   S    
C51   C57   A    
C64   C70   A    
C15   H14   S    
C65   H57   S    
O6    Zn7   S    
C18   H28   S    
C23   O21   A    
C68   H58   S    
C16   C20   S    
C72   C73   A    
C20   C34   S    
C98   H79   S    
C10   C11   S    
C59   C60   A    
C2    H64   S    
C94   H75   S    
C21   C22   S    
O6    Zn8   S    
C92   O29   D    
C67   C78   S    
O11   Zn6   S    
O6    Zn6   S    
C77   H62   S    
C93   H76   S    
C44   C46   A    
C38   H37   S    
C4    C90   S    
C77   C79   A    
O14   Zn7   S    
C22   H29   S    
C95   H73   S    
C94   C95   S    
C7    H5    S    
C51   C52   A    
C33   C43   S    
C52   C88   S    
C38   C39   A    
C18   H21   S    
C4    C6    S    
C74   C75   A    
C23   C75   S    
O17   Zn8   S    
O4    Zn2   S    
C82   H67   S    
C68   C69   A    
O24   Zn4   S    
C6    C96   S    
C56   O26   A    
C19   H24   S    
C58   C59   A    
C53   C54   A    
C32   C87   S    
C82   C83   A    
C81   C82   A    
C31   C37   A    
C60   C61   A    
C86   O16   A    
O1    Zn4   S    
C13   C86   S    
C35   H36   S    
C75   C76   A    
C4    C78   S    
C62   C63   A    
C7    H6    S    
O22   Zn3   S    
O25   Zn3   S    
C60   H51   S    
C47   C57   S    
C3    C56   S    
O18   Zn6   S    
C96   C97   S    
C21   C84   S    
C19   H25   S    
C2    H68   S    
C66   C76   S    
C23   O2    A    
C67   H1    S    
C26   C27   A    
C9    C14   S    
C8    C91   S    
C70   H55   S    
C5    H4    S    
C10   H10   S    
C78   H33   S    
C9    C11   S    
C51   H47   S    
C69   C70   A    
C40   C41   A    
C49   H46   S    
C1    O4    A    
C49   C50   A    
C94   H74   S    
C55   C57   A    
C87   O10   A    
C74   H61   S    
C42   C43   A    
O6    Zn5   S    
C93   H77   S    
C39   C40   A    
C87   O17   A    
C52   C53   A    
C67   H11   S    
C80   H65   S    
C98   H80   S    
C44   C50   A    
C44   H43   S    
O9    Zn6   S    
C54   C55   A    
C28   C29   A    
C88   O11   A    
C64   H56   S    
C18   C22   S    
C31   C32   A    
C3    C67   S    
C86   O9    A    
C58   C63   A    
C62   H54   S    
C80   C81   A    
C56   O24   A    
C17   H19   S    
O23   Zn2   S    
C28   H34   S    
C24   H26   S    
C46   H44   S    
O28   H69   S    
C96   H83   S    
C89   H42   S    
C93   C94   S    
C41   H40   S    
C3    C89   S    
O8    Zn5   S    
C69   H59   S    
C32   C33   A    
O1    Zn1   S    
C19   C20   S    
C13   C15   S    
C2    C3    S    
C25   C26   A    
C38   C43   A    
C84   O18   A    
C64   C65   A    
C12   O5    A    
C53   C63   S    
C14   H9    S    
C54   H48   S    
C97   H82   S    
C59   H50   S    
C27   C37   S    
C8    H7    S    
C6    H2    S    
C4    C5    S    
C10   H12   S    
O15   Zn5   S    
C33   C35   A    
O13   Zn8   S    
C19   C24   S    
C18   C20   S    
C65   C66   A    
C89   H3    S    
C61   C62   A    
C17   C21   S    
C50   H41   S    
C16   H18   S    
O16   Zn5   S    
C29   C30   A    
C79   C80   A    
C1    C36   S    
C61   H52   S    
C14   H16   S    
C71   C72   A    
C97   C98   S    
C45   C55   S    
C85   O19   A    
C91   O27   D    
C21   C24   S    
O12   Zn4   S    
C27   C28   A    
C42   C93   S    
C78   H22   S    
C26   H32   S    
C15   H13   S    
C12   O20   A    
C13   C14   S    
C25   H31   S    
C73   C83   S    
C5    C89   S    
C11   C12   S    
