data_mof_unit_pretest_876.cif
_audit_creation_date              2012-12-11T16:13:43-0500
_audit_creation_method            fapswitch 2.2
_symmetry_space_group_name_H-M    P1
_symmetry_Int_Tables_number       1
_space_group_crystal_system       triclinic
_cell_length_a                    26.09951
_cell_length_b                    7.260092
_cell_length_c                    23.866748
_cell_angle_alpha                 90.166774
_cell_angle_beta                  101.354375
_cell_angle_gamma                 90.1964
_cell_volume                      4433.82033035

loop_
_atom_site_label
_atom_site_type_symbol
_atom_type_description
_atom_site_fract_x
_atom_site_fract_y
_atom_site_fract_z
_atom_type_partial_charge
O1    O     O_R   0.192370 0.384760 0.193350 -0.541787
O2    O     O_R   0.807630 0.615240 0.806650 -0.538398
O3    O     O_R   0.307630 0.884760 0.306650 -0.536331
O4    O     O_R   0.692370 0.115240 0.693350 -0.537441
O5    O     O_R   0.296630 0.711620 0.196480 -0.545759
O6    O     O_R   0.703370 0.288380 0.803520 -0.549510
O7    O     O_R   0.203370 0.211620 0.303520 -0.546059
O8    O     O_R   0.796630 0.788380 0.696480 -0.548047
C1    C     C_R   0.313358 0.545366 0.185032 0.752495
C2    C     C_R   0.686761 0.454689 0.815070 0.763140
C3    C     C_R   0.186604 0.045251 0.314947 0.765168
C4    C     C_R   0.813208 0.954803 0.684874 0.761397
O9    O     O_R   0.192080 0.714290 0.186600 -0.533800
O10   O     O_R   0.807920 0.285710 0.813400 -0.536384
O11   O     O_R   0.307920 0.214290 0.313400 -0.536292
O12   O     O_R   0.692080 0.785710 0.686600 -0.530655
O13   O     O_R   0.202340 0.887460 0.296690 -0.501421
O14   O     O_R   0.797660 0.112540 0.703310 -0.502604
O15   O     O_R   0.297660 0.387460 0.203310 -0.505892
O16   O     O_R   0.702340 0.612540 0.796690 -0.502343
C5    C     C_R   0.173900 0.545568 0.171436 0.724578
C6    C     C_R   0.825962 0.454241 0.828714 0.722272
C7    C     C_R   0.326365 0.046680 0.328399 0.721447
C8    C     C_R   0.673774 0.953446 0.671470 0.724998
O17   O     O_3   0.253490 0.552180 0.286130 -0.372547
O18   O     O_3   0.746510 0.447820 0.713870 -0.373820
O19   O     O_3   0.246510 0.052180 0.213870 -0.378068
O20   O     O_3   0.753490 0.947820 0.786130 -0.377491
V1    V     V_3+5 0.249350 0.825920 0.243300 1.456537
V2    V     V_3+5 0.750650 0.174080 0.756700 1.462124
V3    V     V_3+5 0.250650 0.325920 0.256700 1.449307
V4    V     V_3+5 0.749350 0.674080 0.743300 1.473835
C9    C     C_3   0.541671 0.932877 0.475994 0.208501
C10   C     C_3   0.463825 0.083002 0.518746 0.304265
C11   C     C_3   0.961236 0.399880 0.021890 0.266792
C12   C     C_3   0.036492 0.572824 0.980805 0.275301
C13   C     C_3   0.514009 0.118303 0.456047 0.124554
C14   C     C_3   0.490784 0.899580 0.537765 0.208851
C15   C     C_3   0.988868 0.580864 0.045951 0.168776
C16   C     C_3   0.009075 0.392002 0.957040 0.223994
C17   C     C_1   0.372560 0.041115 0.373456 -0.196764
C18   C     C_1   0.628457 0.960628 0.625417 -0.194753
C19   C     C_1   0.128415 0.535049 0.125778 -0.198821
C20   C     C_1   0.870911 0.462195 0.875039 -0.190294
C21   C     C_3   0.487708 0.843142 0.475097 0.287283
C22   C     C_3   0.517662 0.175813 0.519438 0.287191
C23   C     C_3   0.014854 0.314527 0.018091 0.277718
C24   C     C_3   0.982865 0.655781 0.984747 0.286907
C25   C     C_3   0.459829 0.026664 0.455489 -0.108177
C26   C     C_3   0.544681 0.989703 0.539613 -0.131725
C27   C     C_3   0.042859 0.496862 0.042636 -0.164687
C28   C     C_3   0.955441 0.475010 0.960226 -0.140128
C29   C     C_1   0.411696 0.037013 0.410623 0.086116
C30   C     C_1   0.590576 0.970366 0.586833 0.087582
C31   C     C_1   0.090001 0.521100 0.088043 0.075963
C32   C     C_1   0.908809 0.467140 0.913632 0.084342
C33   C     C_R   0.882840 0.129237 0.644953 0.345681
C34   C     C_R   0.116892 0.870488 0.354731 0.342940
C35   C     C_R   0.616594 0.627331 0.854255 0.345845
C36   C     C_R   0.383226 0.372168 0.145360 0.334816
C37   C     C_R   0.921288 0.134268 0.610406 0.212802
C38   C     C_R   0.077781 0.866210 0.388401 0.215219
C39   C     C_R   0.578220 0.632359 0.888885 0.211814
C40   C     C_R   0.422378 0.368791 0.111764 0.214177
C41   C     C_R   0.927374 0.981724 0.574916 -0.198527
C42   C     C_R   0.070693 0.020001 0.422982 -0.179718
C43   C     C_R   0.572726 0.481794 0.925161 -0.195996
C44   C     C_R   0.429029 0.521477 0.076737 -0.177444
C45   C     C_R   0.896686 0.822314 0.576750 0.437605
C46   C     C_R   0.101368 0.179953 0.421679 0.436548
C47   C     C_R   0.603982 0.324041 0.924107 0.438919
C48   C     C_R   0.397987 0.680119 0.077664 0.437005
C49   C     C_R   0.861079 0.814704 0.613907 -0.337405
C50   C     C_R   0.137345 0.186915 0.384506 -0.361276
C51   C     C_R   0.639404 0.316041 0.886674 -0.340187
C52   C     C_R   0.362256 0.686767 0.115207 -0.366019
H1    H     H_    0.839023 0.689077 0.615695 0.167377
H2    H     H_    0.158983 0.312617 0.381495 0.159551
H3    H     H_    0.661819 0.191661 0.885190 0.166338
H4    H     H_    0.340393 0.811332 0.118344 0.157603
C53   C     C_R   0.852780 0.967101 0.647234 -0.196009
C54   C     C_R   0.146557 0.033253 0.352127 -0.186650
C55   C     C_R   0.647156 0.466837 0.852658 -0.193633
C56   C     C_R   0.353365 0.533752 0.147825 -0.183591
N1    N     N_R   0.995816 0.846605 0.528992 -0.220079
N2    N     N_R   0.001331 0.154806 0.468004 -0.212540
N3    N     N_R   0.504591 0.345925 0.971577 -0.218459
N4    N     N_R   0.498048 0.657429 0.031165 -0.212445
N5    N     N_R   0.029549 0.856615 0.493804 -0.295698
N6    N     N_R   0.967557 0.144890 0.503194 -0.282705
N7    N     N_R   0.470737 0.356319 0.006619 -0.293966
N8    N     N_R   0.531948 0.647138 0.996119 -0.281303
C57   C     C_R   0.033110 0.010750 0.462598 0.538418
C58   C     C_R   0.964176 0.990746 0.534546 0.526541
C59   C     C_R   0.466643 0.512105 0.037118 0.539327
C60   C     C_R   0.535857 0.491294 0.965479 0.528051
O21   O     O_3   0.522936 0.228480 0.410954 -0.654666
H5    H     H_    0.560961 0.253049 0.418341 0.265801
O22   O     O_3   0.478812 0.784338 0.580280 -0.623156
H6    H     H_    0.441731 0.748429 0.566948 0.315422
O23   O     O_3   0.979246 0.682087 0.092770 -0.637194
H7    H     H_    0.940724 0.688981 0.087923 0.283797
O24   O     O_3   0.019308 0.293424 0.910051 -0.625114
H8    H     H_    0.057407 0.269704 0.918619 0.294274
O25   O     O_3   0.583934 0.838752 0.459884 -0.576683
C61   C     C_3   0.589527 0.886668 0.404232 0.093754
H9    H     H_    0.612315 0.016743 0.406035 0.127690
H10   H     H_    0.551204 0.902918 0.374558 0.136736
C62   C     C_3   0.620219 0.735730 0.380767 -0.329977
H11   H     H_    0.660305 0.728764 0.407175 0.195266
H12   H     H_    0.600738 0.600379 0.383099 0.190275
C63   C     C_3   0.624073 0.773150 0.318856 -0.813214
H13   H     H_    0.584481 0.775500 0.291246 0.236861
H14   H     H_    0.647126 0.662464 0.303397 0.232969
H15   H     H_    0.643856 0.907268 0.315536 0.231863
O26   O     O_3   0.420233 0.154999 0.538201 -0.561370
C64   C     C_3   0.435056 0.216644 0.595239 0.145775
H16   H     H_    0.452778 0.356206 0.595846 0.191068
H17   H     H_    0.463268 0.121772 0.621932 0.146110
C65   C     C_3   0.386337 0.229743 0.621494 -0.335507
H18   H     H_    0.357713 0.324183 0.595514 0.206699
H19   H     H_    0.368008 0.091194 0.621187 0.206935
C66   C     C_3   0.399672 0.301501 0.682834 -0.809994
H20   H     H_    0.427559 0.207377 0.709874 0.243277
H21   H     H_    0.363506 0.309369 0.700635 0.234280
H22   H     H_    0.417247 0.441397 0.684001 0.242709
O27   O     O_3   0.919163 0.314997 0.041144 -0.571653
C67   C     C_3   0.935596 0.252869 0.097799 0.077959
H23   H     H_    0.951047 0.368500 0.126988 0.152641
H24   H     H_    0.966276 0.145806 0.100119 0.168035
C68   C     C_3   0.888852 0.168116 0.118216 -0.328124
H25   H     H_    0.858375 0.274940 0.117849 0.202954
H26   H     H_    0.871854 0.055161 0.088748 0.190996
C69   C     C_3   0.904750 0.090720 0.178491 -0.807985
H27   H     H_    0.934359 0.980559 0.179451 0.247090
H28   H     H_    0.869952 0.031055 0.192125 0.232141
H29   H     H_    0.921173 0.201669 0.209004 0.238395
O28   O     O_3   0.078290 0.656411 0.960690 -0.568142
C70   C     C_3   0.059818 0.738834 0.907086 0.115389
H30   H     H_    0.040118 0.870812 0.913173 0.196486
H31   H     H_    0.032077 0.647351 0.877996 0.148873
C71   C     C_3   0.106216 0.780091 0.878784 -0.341818
H32   H     H_    0.135082 0.867636 0.907627 0.199453
H33   H     H_    0.125582 0.648797 0.871152 0.208361
C72   C     C_3   0.088878 0.879582 0.822009 -0.804299
H34   H     H_    0.060571 0.793393 0.792074 0.242709
H35   H     H_    0.123374 0.906882 0.802444 0.233373
H36   H     H_    0.070378 0.013189 0.828891 0.246679
O29   O     O_3   0.530356 0.343832 0.549390 -0.563261
C73   C     C_3   0.568499 0.447907 0.528812 0.195645
H37   H     H_    0.568542 0.586836 0.548218 0.192280
H38   H     H_    0.558216 0.470161 0.482239 0.158939
C74   C     C_3   0.623630 0.368873 0.547145 -0.402089
H39   H     H_    0.631499 0.342782 0.593888 0.224377
H40   H     H_    0.626770 0.237841 0.524010 0.193471
C75   C     C_3   0.665086 0.501494 0.533967 -0.787260
H41   H     H_    0.659496 0.523310 0.487203 0.231489
H42   H     H_    0.704492 0.442180 0.549341 0.228337
H43   H     H_    0.662935 0.635886 0.555721 0.245911
O30   O     O_3   0.469829 0.667228 0.454617 -0.549606
C76   C     C_3   0.471338 0.648942 0.395968 0.126559
H44   H     H_    0.508568 0.582171 0.391891 0.158182
H45   H     H_    0.468675 0.781718 0.372433 0.093099
C77   C     C_3   0.425510 0.528823 0.367294 -0.264967
H46   H     H_    0.426091 0.398002 0.391110 0.239528
H47   H     H_    0.388210 0.600396 0.368756 0.189342
C78   C     C_3   0.428079 0.486858 0.305238 -0.780992
H48   H     H_    0.425760 0.616269 0.280151 0.213754
H49   H     H_    0.394736 0.396808 0.286207 0.252797
H50   H     H_    0.464969 0.414225 0.302794 0.250232
O31   O     O_3   0.965846 0.832889 0.965508 -0.541313
C79   C     C_3   0.916386 0.870501 0.978711 0.153686
H51   H     H_    0.922278 0.962108 0.016547 0.183611
H52   H     H_    0.894721 0.746305 0.988958 0.079947
C80   C     C_3   0.882228 0.967284 0.928215 -0.258369
H53   H     H_    0.902472 0.093319 0.917832 0.232016
H54   H     H_    0.876121 0.875010 0.890247 0.191462
C81   C     C_3   0.829190 0.018242 0.941614 -0.838538
H55   H     H_    0.808449 0.892735 0.951919 0.222113
H56   H     H_    0.804738 0.085187 0.903997 0.247813
H57   H     H_    0.834217 0.115482 0.978302 0.248630
O32   O     O_3   0.024369 0.124252 0.027682 -0.538809
C82   C     C_3   0.073274 0.089317 0.062982 0.148275
H58   H     H_    0.072396 0.944239 0.077445 0.180302
H59   H     H_    0.079776 0.173444 0.102643 0.092685
C83   C     C_3   0.117847 0.108167 0.029912 -0.351438
H60   H     H_    0.108803 0.022825 0.990580 0.225159
H61   H     H_    0.121832 0.253363 0.016993 0.191587
C84   C     C_3   0.169769 0.045361 0.065750 -0.778715
H62   H     H_    0.179671 0.128755 0.105478 0.242413
H63   H     H_    0.201263 0.063100 0.040967 0.216394
H64   H     H_    0.167592 0.897612 0.077003 0.237782
O33   O     O_3   0.875738 0.277933 0.679046 -0.633172
H65   H     H_    0.895691 0.386188 0.669937 0.333303
O34   O     O_3   0.124930 0.720412 0.321614 -0.634216
H66   H     H_    0.104893 0.612300 0.330663 0.330614
O35   O     O_3   0.623124 0.774163 0.819392 -0.632836
H67   H     H_    0.602920 0.881965 0.828108 0.333093
O36   O     O_3   0.375288 0.222410 0.178477 -0.642074
H68   H     H_    0.395645 0.115118 0.169690 0.328287
O37   O     O_3   0.952981 0.288481 0.613543 -0.620185
H69   H     H_    0.987363 0.252372 0.605533 0.319118
O38   O     O_3   0.046365 0.711311 0.385304 -0.622619
H70   H     H_    0.011449 0.747652 0.391704 0.317459
O39   O     O_3   0.546037 0.784577 0.885095 -0.621265
H71   H     H_    0.511779 0.746998 0.893276 0.319276
O40   O     O_3   0.454223 0.215767 0.115275 -0.625289
H72   H     H_    0.489123 0.254046 0.109119 0.316194
O41   O     O_3   0.903530 0.669920 0.543905 -0.531065
C85   C     C_3   0.857683 0.632645 0.502543 0.123294
H73   H     H_    0.867866 0.643977 0.459611 0.144274
H74   H     H_    0.824809 0.730594 0.503055 0.079524
C86   C     C_3   0.839112 0.435908 0.510266 -0.266145
H75   H     H_    0.870818 0.337766 0.506469 0.235120
H76   H     H_    0.829794 0.421043 0.553481 0.190868
C87   C     C_3   0.790677 0.387152 0.465489 -0.877959
H77   H     H_    0.758344 0.483659 0.468281 0.233049
H78   H     H_    0.777753 0.244988 0.472967 0.235285
H79   H     H_    0.799649 0.394043 0.421939 0.241541
O42   O     O_3   0.093395 0.329562 0.455584 -0.534310
C88   C     C_3   0.140802 0.416814 0.481319 0.113186
H80   H     H_    0.150712 0.523992 0.451923 0.139657
H81   H     H_    0.173764 0.317262 0.492162 0.091678
C89   C     C_3   0.133600 0.509521 0.536737 -0.249150
H82   H     H_    0.099331 0.602283 0.527804 0.253133
H83   H     H_    0.126032 0.402627 0.567402 0.194495
C90   C     C_3   0.181813 0.621430 0.563707 -0.854749
H84   H     H_    0.216640 0.530930 0.573664 0.232325
H85   H     H_    0.175398 0.685806 0.604005 0.242763
H86   H     H_    0.189150 0.732272 0.534219 0.233111
O43   O     O_3   0.597576 0.173640 0.957848 -0.531958
C91   C     C_3   0.644552 0.132788 0.996825 0.121252
H87   H     H_    0.636459 0.142365 0.040734 0.142574
H88   H     H_    0.677549 0.230066 0.995386 0.081310
C92   C     C_3   0.661377 0.935702 0.986742 -0.264351
H89   H     H_    0.630098 0.838291 0.993019 0.231994
H90   H     H_    0.667328 0.920753 0.942159 0.195349
C93   C     C_3   0.711969 0.885460 0.027651 -0.879613
H91   H     H_    0.744070 0.979689 0.021690 0.235133
H92   H     H_    0.723088 0.742224 0.018960 0.233373
H93   H     H_    0.706633 0.894506 0.072608 0.240811
O44   O     O_3   0.405408 0.827817 0.042816 -0.535839
C94   C     C_3   0.358555 0.923154 0.021000 0.113702
H94   H     H_    0.351975 0.029283 0.052526 0.142704
H95   H     H_    0.324126 0.828542 0.011130 0.090643
C95   C     C_3   0.363834 0.019121 0.965574 -0.248304
H96   H     H_    0.399929 0.104014 0.972967 0.254175
H97   H     H_    0.367034 0.913762 0.932559 0.192452
C96   C     C_3   0.317013 0.142711 0.943751 -0.858601
H98   H     H_    0.280323 0.060366 0.935620 0.230462
H99   H     H_    0.321801 0.208772 0.903188 0.243391
H100  H     H_    0.314181 0.252471 0.975537 0.232705

loop_
_geom_bond_atom_site_label_1
_geom_bond_atom_site_label_2
_ccdc_geom_bond_type
C34   C38   A    
C16   C23   S    
C15   C27   S    
O38   H70   S    
C67   C68   S    
O1    C5    A    
O23   H7    S    
N6    C58   A    
N3    N7    A    
O19   V1    S    
C9    C21   S    
O37   H69   S    
C2    C55   S    
O3    C7    A    
C87   H79   S    
N8    C60   A    
O31   C79   S    
C68   C69   S    
C11   C23   S    
C67   H23   S    
C52   C56   A    
C69   H29   S    
C63   H14   S    
O21   H5    S    
O29   C73   S    
C66   H20   S    
C78   H49   S    
O39   H71   S    
C79   H51   S    
O7    C3    A    
C23   C27   S    
C93   H93   S    
C96   H98   S    
C26   C30   S    
C40   C44   A    
O9    V1    S    
C75   H41   S    
C50   C54   A    
C88   C89   S    
C82   C83   S    
C64   H17   S    
O4    C8    A    
C70   C71   S    
C25   C29   S    
C66   H21   S    
C61   H9    S    
C10   O26   S    
C94   H94   S    
C93   H92   S    
C34   O34   S    
O1    V3    S    
O13   V1    S    
O26   C64   S    
O2    V4    S    
C49   C53   A    
C33   C37   A    
O3    V1    S    
O32   C82   S    
O42   C88   S    
C14   C21   S    
O24   H8    S    
C36   O36   S    
C37   O37   S    
C5    C19   S    
C75   H42   S    
C1    O15   A    
C6    C20   S    
N4    N8    A    
C2    O16   A    
C94   H95   S    
C73   C74   S    
O2    C6    A    
C92   H89   S    
C45   C49   A    
C10   C22   S    
C16   C28   S    
C74   H40   S    
C62   H11   S    
C27   C31   S    
C65   C66   S    
C44   C48   A    
C94   C95   S    
O11   C7    A    
N4    C59   A    
O15   V3    S    
O36   H68   S    
O12   C8    A    
C89   H82   S    
C77   H47   S    
C92   H90   S    
C71   C72   S    
C12   O28   S    
C84   H62   S    
C21   O30   S    
O10   V2    S    
C23   O32   S    
C13   O21   S    
C63   H13   S    
C76   H45   S    
C65   H19   S    
C72   H34   S    
C80   C81   S    
O5    V1    S    
C77   C78   S    
C3    C54   S    
C40   O40   S    
C95   H97   S    
C96   H99   S    
C44   C59   S    
O7    V3    S    
C72   H35   S    
O40   H72   S    
O8    V4    S    
C81   H55   S    
C12   C16   S    
C9    O25   S    
C87   H77   S    
C34   C54   A    
C80   H54   S    
N2    N6    A    
C62   C63   S    
C78   H48   S    
C38   C42   A    
O18   V4    S    
C66   H22   S    
C69   H28   S    
C9    C26   S    
C86   H75   S    
C91   C92   S    
C9    C13   S    
C33   O33   S    
C84   H64   S    
C11   C15   S    
C82   H58   S    
C39   C43   A    
C46   C50   A    
C88   H80   S    
N2    C57   A    
C48   O44   S    
C24   O31   S    
C13   C25   S    
N1    C58   A    
C20   C32   T    
C90   H84   S    
C21   C25   S    
O8    C4    A    
C15   O23   S    
N3    C60   A    
C22   O29   S    
C91   H88   S    
O41   C85   S    
O9    C5    A    
C48   C52   A    
C70   H31   S    
C74   C75   S    
C11   O27   S    
C8    C18   S    
C17   C29   T    
C12   C27   S    
C42   C57   S    
O14   V2    S    
C78   H50   S    
C19   C31   T    
C41   C58   S    
C90   H85   S    
O33   H65   S    
C85   H74   S    
C39   O39   S    
C43   C60   S    
C92   C93   S    
C71   H33   S    
C64   C65   S    
C45   O41   S    
C83   H61   S    
O27   C67   S    
C89   C90   S    
C11   C28   S    
C76   C77   S    
C65   H18   S    
O16   V4    S    
C86   C87   S    
C47   O43   S    
C95   H96   S    
C77   H46   S    
C10   C25   S    
N1    N5    A    
C72   H36   S    
O6    V2    S    
C10   C14   S    
O17   V3    S    
C3    O13   A    
C75   H43   S    
C52   H4    S    
C35   C55   A    
C14   O22   S    
C68   H26   S    
C87   H78   S    
C89   H83   S    
O6    C2    A    
C81   H56   S    
C70   H30   S    
C79   C80   S    
O11   V3    S    
C69   H27   S    
C14   C26   S    
C67   H24   S    
O12   V4    S    
C85   C86   S    
O25   C61   S    
C22   C26   S    
C35   C39   A    
C7    C17   S    
O22   H6    S    
C36   C40   A    
O30   C76   S    
O10   C6    A    
C83   C84   S    
C62   H12   S    
C83   H60   S    
C86   H76   S    
O20   V2    S    
C88   H81   S    
C80   H53   S    
C76   H44   S    
C68   H25   S    
C18   C30   T    
C16   O24   S    
C47   C51   A    
C36   C56   A    
C51   C55   A    
C42   C46   A    
C61   H10   S    
C73   H38   S    
C35   O35   S    
C41   C45   A    
O44   C94   S    
C93   H91   S    
C91   H87   S    
C79   H52   S    
C4    C53   S    
C12   C24   S    
C43   C47   A    
N5    C57   A    
O35   H67   S    
C33   C53   A    
C46   O42   S    
C38   O38   S    
C96   H100  S    
C81   H57   S    
O28   C70   S    
C1    C56   S    
N7    C59   A    
O34   H66   S    
C37   C41   A    
C24   C28   S    
C90   H86   S    
C82   H59   S    
C85   H73   S    
C50   H2    S    
C4    O14   A    
O43   C91   S    
C49   H1    S    
C71   H32   S    
C15   C24   S    
O5    C1    A    
C84   H63   S    
C13   C22   S    
C64   H16   S    
C51   H3    S    
C61   C62   S    
C63   H15   S    
O4    V2    S    
C28   C32   S    
C73   H37   S    
C74   H39   S    
C95   C96   S    
