data_mof_unit_pretest_930.cif
_audit_creation_date              2012-12-10T16:46:48-0500
_audit_creation_method            fapswitch 2.2
_symmetry_space_group_name_H-M    P1
_symmetry_Int_Tables_number       1
_space_group_crystal_system       triclinic
_cell_length_a                    15.855511
_cell_length_b                    8.695112
_cell_length_c                    7.539578
_cell_angle_alpha                 103.529493
_cell_angle_beta                  94.303132
_cell_angle_gamma                 93.789787
_cell_volume                      1003.99533083

loop_
_atom_site_label
_atom_site_type_symbol
_atom_type_description
_atom_site_fract_x
_atom_site_fract_y
_atom_site_fract_z
_atom_type_partial_charge
C1    C     C_R   0.497150 0.199766 0.452872 0.858114
C2    C     C_3   0.946230 0.361018 0.571310 -0.479128
C3    C     C_3   0.916638 0.497962 0.488709 0.197007
C4    C     C_3   0.961149 0.657245 0.606034 -0.355164
C5    C     C_3   0.058538 0.658144 0.601885 -0.410326
C6    C     C_1   0.824422 0.499115 0.490716 -0.017169
C7    C     C_1   0.175478 0.495984 0.503591 -0.008678
C8    C     C_1   0.251153 0.498074 0.505158 -0.147846
C9    C     C_2   0.495507 0.031156 0.427212 -0.353102
C10   C     C_2   0.503766 0.968794 0.572653 -0.361841
C11   C     C_R   0.340601 0.499403 0.501833 0.799306
C12   C     C_R   0.502559 0.800217 0.547105 0.881274
C13   C     C_R   0.659463 0.500448 0.498096 0.821090
C14   C     C_3   0.044926 0.365513 0.591223 -0.045492
C15   C     C_3   0.042462 0.463189 0.293604 0.007432
C16   C     C_3   0.943583 0.470201 0.289845 0.023523
C17   C     C_1   0.748952 0.499792 0.493636 -0.123419
C18   C     C_3   0.082875 0.493830 0.496160 0.192783
Cu1   Cu    Cu3+1 0.509300 0.517380 0.684380 0.953996
Cu2   Cu    Cu3+1 0.490700 0.482620 0.315620 0.961182
H1    H     H_    0.916928 0.246463 0.482148 0.172595
H2    H     H_    0.064629 0.407753 0.740598 0.219097
H3    H     H_    0.922475 0.370578 0.708523 0.207207
H4    H     H_    0.938490 0.758874 0.555185 0.201533
H5    H     H_    0.487613 0.958125 0.287707 0.180872
H6    H     H_    0.511756 0.041883 0.712043 0.179122
H7    H     H_    0.573321 0.609722 0.046217 0.222896
H8    H     H_    0.054346 0.341571 0.219330 0.108639
H9    H     H_    0.913653 0.352313 0.210473 0.118318
H10   H     H_    0.089296 0.688556 0.744629 0.203651
H11   H     H_    0.081798 0.753129 0.536677 0.215374
H12   H     H_    0.945079 0.674644 0.750095 0.216648
N1    N     N_2   0.476670 0.456430 0.038530 -0.081458
N2    N     N_2   0.523330 0.543570 0.961470 -0.202672
O1    O     O_R   0.506050 0.286130 0.619770 -0.595738
O2    O     O_R   0.490330 0.256780 0.308370 -0.583494
O3    O     O_R   0.387300 0.514690 0.655770 -0.619534
O4    O     O_R   0.371580 0.485340 0.344370 -0.569529
O5    O     O_R   0.509670 0.743220 0.691630 -0.582325
O6    O     O_R   0.493950 0.713870 0.380230 -0.580860
O7    O     O_R   0.628420 0.514660 0.655630 -0.566505
O8    O     O_R   0.612700 0.485310 0.344230 -0.577371
C19   C     C_3   0.397807 0.370256 0.941670 -0.026684
C20   C     C_3   0.374735 0.215165 0.995999 -0.825660
H13   H     H_    0.429540 0.141461 0.987278 0.251029
H14   H     H_    0.351117 0.234494 0.132832 0.274179
H15   H     H_    0.322096 0.145790 0.898313 0.201216
H16   H     H_    0.344738 0.447835 0.963860 0.173810
H17   H     H_    0.402452 0.326005 0.797268 0.208190
C21   C     C_3   0.076426 0.196586 0.527004 -0.382054
C22   C     C_3   0.148156 0.165540 0.658461 -0.849522
H18   H     H_    0.203586 0.253631 0.673226 0.252652
H19   H     H_    0.125570 0.170960 0.795587 0.259719
H20   H     H_    0.169001 0.045287 0.604993 0.250578
H21   H     H_    0.024315 0.102622 0.519407 0.224862
H22   H     H_    0.098578 0.177912 0.388140 0.216221
I1    I     I_    0.108504 0.608948 0.139516 -0.472212
I2    I     I_    0.888008 0.632382 0.143034 -0.436331

loop_
_geom_bond_atom_site_label_1
_geom_bond_atom_site_label_2
_ccdc_geom_bond_type
C12   O6    A    
C15   C18   S    
Cu2   O8    S    
C19   C20   S    
C22   H18   S    
C7    C18   S    
C11   O4    A    
C22   H20   S    
Cu2   O4    S    
C19   H16   S    
C14   C18   S    
C21   H21   S    
C20   H15   S    
C13   C17   S    
C3    C6    S    
C10   H6    S    
C12   O5    A    
C13   O7    A    
C21   C22   S    
C9    H5    S    
C7    C8    T    
Cu1   O1    S    
C15   I1    S    
C14   H2    S    
C15   H8    S    
C4    H12   S    
C10   C12   S    
C2    H1    S    
C8    C11   S    
C2    C14   S    
Cu2   N1    S    
Cu1   O5    S    
C13   O8    A    
C20   H14   S    
N1    N2    D    
C2    C3    S    
H7    N2    S    
C4    H4    S    
C14   C21   S    
C15   C16   S    
N1    C19   S    
Cu1   O7    S    
C1    C9    S    
C20   H13   S    
C1    O1    A    
C5    H10   S    
C9    C10   D    
C2    H3    S    
C11   O3    A    
C6    C17   T    
C19   H17   S    
C16   I2    S    
C5    C18   S    
Cu1   O3    S    
C5    H11   S    
C16   H9    S    
Cu2   O6    S    
C3    C16   S    
C21   H22   S    
C3    C4    S    
Cu1   Cu2   S    
C1    O2    A    
C4    C5    S    
C22   H19   S    
Cu1   N2    S    
Cu2   O2    S    
