data_mof_unit_pretest_1885.cif
_audit_creation_date              2012-12-10T19:31:15-0500
_audit_creation_method            fapswitch 2.2
_symmetry_space_group_name_H-M    P1
_symmetry_Int_Tables_number       1
_space_group_crystal_system       triclinic
_cell_length_a                    30.841862
_cell_length_b                    29.149257
_cell_length_c                    30.454755
_cell_angle_alpha                 89.998945
_cell_angle_beta                  89.997947
_cell_angle_gamma                 89.372822
_cell_volume                      27377.7131649

loop_
_atom_site_label
_atom_site_type_symbol
_atom_type_description
_atom_site_fract_x
_atom_site_fract_y
_atom_site_fract_z
_atom_type_partial_charge
C1    C     C_R   0.309769 0.999631 0.689720 0.863715
C2    C     C_R   0.690191 0.000193 0.689682 0.864630
C3    C     C_R   0.809800 0.499769 0.689683 0.864236
C4    C     C_R   0.190231 0.500321 0.689716 0.864214
C5    C     C_R   0.809780 0.999752 0.189694 0.864658
C6    C     C_R   0.190214 0.000267 0.189687 0.864401
C7    C     C_R   0.309786 0.499749 0.189690 0.864536
C8    C     C_R   0.690203 0.500291 0.189695 0.864107
C9    C     C_R   0.368034 0.975311 0.585381 -0.213456
C10   C     C_R   0.634148 0.018367 0.582853 -0.215335
C11   C     C_R   0.866224 0.480541 0.583273 -0.215122
C12   C     C_R   0.132299 0.523708 0.584942 -0.212384
C13   C     C_R   0.866768 0.978509 0.083866 -0.213929
C14   C     C_R   0.133567 0.020707 0.083546 -0.214871
C15   C     C_R   0.366420 0.479621 0.083529 -0.215074
C16   C     C_R   0.633187 0.521511 0.083984 -0.214817
C17   C     C_R   0.405260 0.001531 0.592123 -0.099890
C18   C     C_R   0.594191 0.998520 0.592457 -0.090885
C19   C     C_R   0.905750 0.501571 0.592441 -0.092179
C20   C     C_R   0.094558 0.498513 0.592259 -0.098902
C21   C     C_R   0.905654 0.001418 0.092392 -0.095586
C22   C     C_R   0.094421 0.998493 0.092299 -0.094046
C23   C     C_R   0.405602 0.501483 0.092339 -0.093865
C24   C     C_R   0.594464 0.498526 0.092322 -0.095286
C25   C     C_R   0.407708 0.031594 0.627541 0.143334
C26   C     C_R   0.588365 0.974146 0.631120 0.135645
C27   C     C_R   0.910868 0.527288 0.630402 0.136697
C28   C     C_R   0.091595 0.469287 0.628260 0.141730
C29   C     C_R   0.909763 0.028677 0.129514 0.139390
C30   C     C_R   0.089855 0.971860 0.129749 0.139683
C31   C     C_R   0.410401 0.527770 0.130032 0.138771
C32   C     C_R   0.590181 0.471329 0.129486 0.139263
C33   C     C_3   0.443073 0.036025 0.660709 -0.532040
C34   C     C_3   0.553127 0.979755 0.664253 -0.547393
C35   C     C_3   0.946190 0.523155 0.663715 -0.544406
C36   C     C_3   0.056147 0.466124 0.661582 -0.534883
C37   C     C_3   0.945122 0.029325 0.162970 -0.540217
C38   C     C_3   0.054394 0.973560 0.163067 -0.543301
C39   C     C_3   0.445786 0.525398 0.163371 -0.544594
C40   C     C_3   0.554780 0.471903 0.162885 -0.540590
C41   C     C_3   0.408290 0.036171 0.695747 -0.440306
C42   C     C_3   0.587994 0.979289 0.699112 -0.430883
C43   C     C_3   0.911336 0.523429 0.698633 -0.429351
C44   C     C_3   0.091046 0.465721 0.696498 -0.438664
C45   C     C_3   0.910034 0.030334 0.197685 -0.437171
C46   C     C_3   0.089269 0.973091 0.197927 -0.435377
C47   C     C_3   0.410946 0.525983 0.198231 -0.434331
C48   C     C_3   0.589613 0.471461 0.197827 -0.433463
C49   C     C_R   0.166854 0.007353 0.886711 0.079470
C50   C     C_R   0.833454 0.990914 0.886452 0.077974
C51   C     C_R   0.666502 0.509289 0.886370 0.078344
C52   C     C_R   0.333814 0.489018 0.886050 0.076670
C53   C     C_R   0.666314 0.010616 0.386157 0.076597
C54   C     C_R   0.333365 0.991369 0.386525 0.078283
C55   C     C_R   0.165195 0.514442 0.385057 0.073849
C56   C     C_R   0.833230 0.492005 0.386618 0.079117
C57   C     C_R   0.157221 0.998815 0.843021 -0.109278
C58   C     C_R   0.842739 0.001385 0.843014 -0.108078
C59   C     C_R   0.657263 0.498663 0.843009 -0.108093
C60   C     C_R   0.342695 0.501509 0.843000 -0.106826
C61   C     C_R   0.657286 0.998526 0.342991 -0.107114
C62   C     C_R   0.342756 0.001265 0.343018 -0.108248
C63   C     C_R   0.157415 0.498254 0.342975 -0.103506
C64   C     C_R   0.842762 0.501247 0.343021 -0.109087
C65   C     C_R   0.113726 0.989691 0.831670 -0.184138
C66   C     C_R   0.885891 0.012520 0.831869 -0.183693
C67   C     C_R   0.614170 0.487387 0.831947 -0.184162
C68   C     C_R   0.385415 0.514740 0.832215 -0.183753
C69   C     C_R   0.614416 0.985722 0.332096 -0.183237
C70   C     C_R   0.386012 0.011782 0.331822 -0.184000
C71   C     C_R   0.115806 0.481212 0.333043 -0.184642
C72   C     C_R   0.886142 0.511109 0.331762 -0.183919
C73   C     C_R   0.081728 0.989688 0.864184 -0.210000
C74   C     C_R   0.917941 0.012504 0.864332 -0.210630
C75   C     C_R   0.582131 0.487384 0.864425 -0.210986
C76   C     C_R   0.417488 0.514731 0.864663 -0.210989
C77   C     C_R   0.582358 0.985734 0.364559 -0.210571
C78   C     C_R   0.418039 0.011792 0.364306 -0.210734
C79   C     C_R   0.083626 0.481211 0.365395 -0.212266
C80   C     C_R   0.918142 0.511112 0.364274 -0.210578
C81   C     C_R   0.093247 0.999403 0.907684 -0.040215
C82   C     C_R   0.906845 0.000648 0.907535 -0.042095
C83   C     C_R   0.593171 0.499382 0.907550 -0.041825
C84   C     C_R   0.406886 0.500665 0.907436 -0.043744
C85   C     C_R   0.593142 0.999344 0.407474 -0.043504
C86   C     C_R   0.406811 0.000610 0.407594 -0.041262
C87   C     C_R   0.092910 0.499283 0.407081 -0.047821
C88   C     C_R   0.906752 0.500614 0.407669 -0.040919
C89   C     C_R   0.250102 0.914252 0.750111 0.871217
C90   C     C_R   0.749898 0.085748 0.750110 0.871549
C91   C     C_R   0.750106 0.914252 0.749906 0.885761
C92   C     C_R   0.249899 0.085747 0.749899 0.883957
C93   C     C_R   0.750102 0.414252 0.750111 0.871319
C94   C     C_R   0.249898 0.585748 0.750109 0.870030
C95   C     C_R   0.250106 0.414253 0.749906 0.886466
C96   C     C_R   0.749894 0.585747 0.749904 0.885717
C97   C     C_R   0.750102 0.914252 0.250110 0.870600
C98   C     C_R   0.249899 0.085748 0.250110 0.871383
C99   C     C_R   0.250104 0.914252 0.249905 0.885156
C100  C     C_R   0.749893 0.085747 0.249905 0.886244
C101  C     C_R   0.250103 0.414252 0.250109 0.869180
C102  C     C_R   0.749899 0.585748 0.250110 0.871595
C103  C     C_R   0.750103 0.414252 0.249903 0.884709
C104  C     C_R   0.249887 0.585747 0.249913 0.889390
C105  C     C_R   0.135926 0.008185 0.917620 0.005901
C106  C     C_R   0.864480 0.989932 0.917260 0.007704
C107  C     C_R   0.635481 0.510289 0.917181 0.007776
C108  C     C_R   0.364912 0.487892 0.916779 0.009686
C109  C     C_R   0.635253 0.011700 0.416925 0.009521
C110  C     C_R   0.364357 0.990439 0.417368 0.005804
C111  C     C_R   0.133851 0.515800 0.415529 0.012986
C112  C     C_R   0.864174 0.491120 0.417508 0.007065
C113  C     C_3   0.165976 0.019411 0.954165 -0.570542
C114  C     C_3   0.834874 0.976183 0.953489 -0.567514
C115  C     C_3   0.665075 0.523982 0.953320 -0.568478
C116  C     C_3   0.335752 0.471771 0.952519 -0.566007
C117  C     C_3   0.664625 0.027174 0.452828 -0.567350
C118  C     C_3   0.334604 0.977569 0.453695 -0.565649
C119  C     C_3   0.161640 0.536764 0.450033 -0.556955
C120  C     C_3   0.834238 0.479051 0.453920 -0.570823
C121  C     C_3   0.201764 0.018648 0.918776 0.508837
C122  C     C_3   0.798991 0.977031 0.918196 0.507204
C123  C     C_3   0.700944 0.523104 0.918014 0.507509
C124  C     C_3   0.299825 0.472691 0.917276 0.505968
C125  C     C_3   0.700510 0.026331 0.417544 0.506486
C126  C     C_3   0.298752 0.978395 0.418369 0.507056
C127  C     C_3   0.197793 0.535627 0.415019 0.501519
C128  C     C_3   0.798442 0.479838 0.418543 0.508582
C129  C     C_R   0.938389 0.000197 0.940726 0.915999
C130  C     C_R   0.061782 0.999809 0.940935 0.915115
C131  C     C_R   0.438488 0.500198 0.940607 0.915271
C132  C     C_R   0.561633 0.499808 0.940757 0.915094
C133  C     C_R   0.438328 0.000193 0.440808 0.915565
C134  C     C_R   0.561570 0.999803 0.440666 0.915291
C135  C     C_R   0.938235 0.500195 0.440915 0.914706
C136  C     C_R   0.061129 0.499806 0.440142 0.915965
C137  C     C_R   0.439648 0.000247 0.561057 0.898667
C138  C     C_R   0.560237 0.999769 0.561069 0.900427
C139  C     C_R   0.939819 0.500246 0.561148 0.898997
C140  C     C_R   0.060236 0.499765 0.561146 0.900621
C141  C     C_R   0.939850 0.000222 0.061204 0.899673
C142  C     C_R   0.060279 0.999764 0.061056 0.898883
C143  C     C_R   0.439711 0.500233 0.061051 0.900202
C144  C     C_R   0.560320 0.499764 0.061048 0.899416
C145  C     C_R   0.190097 0.999700 0.810168 0.900841
C146  C     C_R   0.809892 0.000340 0.810165 0.900834
C147  C     C_R   0.690109 0.499659 0.810162 0.900910
C148  C     C_R   0.309880 0.500376 0.810157 0.900895
C149  C     C_R   0.690116 0.999621 0.310155 0.900713
C150  C     C_R   0.309897 0.000315 0.310167 0.900709
C151  C     C_R   0.190150 0.499594 0.310142 0.901162
C152  C     C_R   0.809900 0.500316 0.310167 0.900902
C153  C     C_1   0.250215 0.863430 0.750375 -0.181943
C154  C     C_1   0.749788 0.136571 0.750373 -0.182873
C155  C     C_1   0.750230 0.863430 0.749672 -0.170823
C156  C     C_1   0.249777 0.136569 0.749661 -0.173065
C157  C     C_1   0.750214 0.363430 0.750375 -0.182854
C158  C     C_1   0.249787 0.636571 0.750371 -0.183360
C159  C     C_1   0.250231 0.363431 0.749673 -0.169977
C160  C     C_1   0.749768 0.636569 0.749670 -0.170860
C161  C     C_1   0.750215 0.863430 0.250373 -0.183150
C162  C     C_1   0.249787 0.136571 0.250373 -0.182748
C163  C     C_1   0.250226 0.863429 0.249674 -0.171292
C164  C     C_1   0.749767 0.136569 0.249671 -0.169953
C165  C     C_1   0.250215 0.363429 0.250372 -0.184816
C166  C     C_1   0.749788 0.636571 0.250373 -0.182214
C167  C     C_1   0.750225 0.363430 0.249667 -0.172223
C168  C     C_1   0.249753 0.636568 0.249691 -0.165575
C169  C     C_1   0.250178 0.821116 0.750488 0.015240
C170  C     C_1   0.749825 0.178885 0.750488 0.014819
C171  C     C_1   0.750190 0.821116 0.749585 0.023601
C172  C     C_1   0.249818 0.178883 0.749573 0.022063
C173  C     C_1   0.750177 0.321116 0.750490 0.014791
C174  C     C_1   0.249825 0.678885 0.750485 0.014464
C175  C     C_1   0.250193 0.321117 0.749585 0.023804
C176  C     C_1   0.749808 0.678883 0.749583 0.023567
C177  C     C_1   0.750178 0.821116 0.250487 0.014633
C178  C     C_1   0.249825 0.178884 0.250486 0.014636
C179  C     C_1   0.250182 0.821115 0.249594 0.023602
C180  C     C_1   0.749806 0.178882 0.249584 0.023975
C181  C     C_1   0.250178 0.321116 0.250485 0.013422
C182  C     C_1   0.749825 0.678884 0.250487 0.015185
C183  C     C_1   0.750185 0.321116 0.249580 0.022694
C184  C     C_1   0.249790 0.678882 0.249610 0.026901
C185  C     C_1   0.250060 0.771156 0.750543 0.018978
C186  C     C_1   0.749942 0.228845 0.750545 0.018771
C187  C     C_1   0.750063 0.771155 0.749546 0.024792
C188  C     C_1   0.249944 0.228844 0.749538 0.024004
C189  C     C_1   0.750060 0.271156 0.750546 0.018760
C190  C     C_1   0.249943 0.728845 0.750542 0.018776
C191  C     C_1   0.250069 0.271156 0.749542 0.024425
C192  C     C_1   0.749935 0.728844 0.749545 0.024782
C193  C     C_1   0.750060 0.771156 0.250544 0.018832
C194  C     C_1   0.249942 0.228844 0.250542 0.018325
C195  C     C_1   0.250049 0.771154 0.249565 0.025434
C196  C     C_1   0.749932 0.228843 0.249544 0.024715
C197  C     C_1   0.250060 0.271156 0.250541 0.018005
C198  C     C_1   0.749943 0.728844 0.250544 0.018980
C199  C     C_1   0.750058 0.271155 0.249542 0.024391
C200  C     C_1   0.249918 0.728842 0.249571 0.026239
C201  C     C_R   0.376146 0.031199 0.659459 0.116235
C202  C     C_R   0.620133 0.974186 0.662829 0.125331
C203  C     C_R   0.879092 0.527127 0.662162 0.123480
C204  C     C_R   0.123209 0.469539 0.660045 0.117467
C205  C     C_R   0.878008 0.028640 0.161114 0.120026
C206  C     C_R   0.121562 0.971998 0.161497 0.121378
C207  C     C_R   0.378682 0.527708 0.161758 0.122221
C208  C     C_R   0.621885 0.471508 0.161284 0.121030
C209  C     C_R   0.341463 0.001286 0.655766 -0.097349
C210  C     C_R   0.658352 0.997997 0.655737 -0.107015
C211  C     C_R   0.841595 0.501952 0.655696 -0.105419
C212  C     C_R   0.158532 0.498534 0.655757 -0.099153
C213  C     C_R   0.841470 0.001633 0.155694 -0.101859
C214  C     C_R   0.158494 0.998267 0.155665 -0.103537
C215  C     C_R   0.341532 0.501803 0.155709 -0.104051
C216  C     C_R   0.658447 0.498404 0.155754 -0.102606
C217  C     C_R   0.335623 0.975708 0.617116 -0.185652
C218  C     C_R   0.666644 0.017615 0.614461 -0.182751
C219  C     C_R   0.833719 0.481227 0.614866 -0.183305
C220  C     C_R   0.164781 0.523208 0.616611 -0.185415
C221  C     C_R   0.834237 0.979076 0.115488 -0.183801
C222  C     C_R   0.166045 0.020111 0.115197 -0.182992
C223  C     C_R   0.333938 0.480256 0.115182 -0.183449
C224  C     C_R   0.665641 0.520954 0.115655 -0.183983
H1    H     H_    0.307422 0.954248 0.612707 0.169677
H2    H     H_    0.697053 0.034443 0.607628 0.176316
H3    H     H_    0.803700 0.463455 0.608458 0.175133
H4    H     H_    0.193392 0.543932 0.611721 0.170892
H5    H     H_    0.804733 0.960024 0.109638 0.173272
H6    H     H_    0.195761 0.038711 0.109149 0.173845
H7    H     H_    0.304161 0.461949 0.109052 0.174481
H8    H     H_    0.695051 0.540085 0.109922 0.173242
H9    H     H_    0.364691 0.953893 0.556460 0.159947
H10   H     H_    0.639597 0.035362 0.551753 0.154694
H11   H     H_    0.861141 0.462694 0.552545 0.155906
H12   H     H_    0.135999 0.544451 0.555620 0.158819
H13   H     H_    0.862179 0.959498 0.053622 0.157321
H14   H     H_    0.138366 0.039336 0.053120 0.156533
H15   H     H_    0.361579 0.461243 0.053039 0.156366
H16   H     H_    0.637705 0.540651 0.053839 0.157325
H17   H     H_    0.463900 0.004802 0.662022 0.200364
H18   H     H_    0.536606 0.013580 0.661386 0.204443
H19   H     H_    0.531520 0.949545 0.665618 0.212637
H20   H     H_    0.460488 0.069116 0.657878 0.213964
H21   H     H_    0.963472 0.489612 0.661362 0.202737
H22   H     H_    0.035998 0.497880 0.662519 0.200956
H23   H     H_    0.038056 0.433361 0.659257 0.213788
H24   H     H_    0.967112 0.553957 0.664586 0.212801
H25   H     H_    0.964021 0.996735 0.163235 0.202863
H26   H     H_    0.036254 0.006562 0.161917 0.202986
H27   H     H_    0.034305 0.942151 0.162798 0.213462
H28   H     H_    0.964513 0.061229 0.161548 0.213434
H29   H     H_    0.463561 0.492204 0.162000 0.204052
H30   H     H_    0.536148 0.504652 0.162252 0.202873
H31   H     H_    0.535146 0.440156 0.162146 0.213017
H32   H     H_    0.466147 0.556586 0.163361 0.213114
H33   H     H_    0.409924 0.005619 0.717644 0.219411
H34   H     H_    0.590785 0.012415 0.716769 0.216952
H35   H     H_    0.586988 0.948554 0.720449 0.208907
H36   H     H_    0.404891 0.069663 0.712894 0.207636
H37   H     H_    0.909301 0.490411 0.716824 0.216861
H38   H     H_    0.090035 0.496571 0.718017 0.219184
H39   H     H_    0.093835 0.432400 0.714002 0.207691
H40   H     H_    0.911650 0.554687 0.719583 0.207837
H41   H     H_    0.909806 0.999189 0.218680 0.219237
H42   H     H_    0.090336 0.005246 0.217344 0.218468
H43   H     H_    0.089892 0.941104 0.217522 0.209027
H44   H     H_    0.908275 0.063328 0.215620 0.208310
H45   H     H_    0.409552 0.493682 0.217448 0.218128
H46   H     H_    0.590140 0.503435 0.217794 0.217914
H47   H     H_    0.590812 0.439051 0.217029 0.207769
H48   H     H_    0.410629 0.557840 0.218077 0.208633
H49   H     H_    0.104451 0.982518 0.798091 0.173225
H50   H     H_    0.894837 0.021285 0.798491 0.172163
H51   H     H_    0.605270 0.478490 0.798628 0.172435
H52   H     H_    0.393972 0.525174 0.799142 0.171176
H53   H     H_    0.605724 0.975607 0.298926 0.171155
H54   H     H_    0.395061 0.020064 0.298388 0.172664
H55   H     H_    0.108264 0.467812 0.300727 0.169123
H56   H     H_    0.895316 0.518873 0.298256 0.173161
H57   H     H_    0.048386 0.982627 0.855478 0.140723
H58   H     H_    0.951023 0.021127 0.855786 0.141256
H59   H     H_    0.549099 0.478614 0.855951 0.142425
H60   H     H_    0.450235 0.525022 0.856412 0.143056
H61   H     H_    0.549497 0.975775 0.356224 0.142495
H62   H     H_    0.451197 0.019953 0.355722 0.141800
H63   H     H_    0.051740 0.467929 0.357832 0.145349
H64   H     H_    0.951396 0.518756 0.355640 0.142495
H65   H     H_    0.159073 0.053886 0.968293 0.218167
H66   H     H_    0.842931 0.941373 0.966384 0.219492
H67   H     H_    0.831604 0.003492 0.978880 0.216065
H68   H     H_    0.168377 0.991092 0.978535 0.217639
H69   H     H_    0.657084 0.558732 0.966218 0.219721
H70   H     H_    0.344865 0.436783 0.964271 0.221065
H71   H     H_    0.331647 0.498069 0.978776 0.213913
H72   H     H_    0.668297 0.496705 0.978665 0.216171
H73   H     H_    0.655796 0.062138 0.464974 0.221010
H74   H     H_    0.342241 0.942885 0.467016 0.218947
H75   H     H_    0.331659 0.005214 0.478729 0.217526
H76   H     H_    0.668588 0.000490 0.478794 0.213446
H77   H     H_    0.150254 0.571880 0.459180 0.222971
H78   H     H_    0.841505 0.444467 0.467646 0.218879
H79   H     H_    0.831524 0.507040 0.478616 0.216756
H80   H     H_    0.167197 0.512962 0.478140 0.211841
O1    O     O_R   0.321670 0.000000 0.730060 -0.622018
O2    O     O_R   0.678330 0.000000 0.730060 -0.622132
O3    O     O_R   0.821670 0.500000 0.730060 -0.622267
O4    O     O_R   0.178330 0.500000 0.730060 -0.622159
O5    O     O_R   0.821670 0.000000 0.230060 -0.622250
O6    O     O_R   0.178330 0.000000 0.230060 -0.622142
O7    O     O_R   0.321670 0.500000 0.230060 -0.622364
O8    O     O_R   0.678330 0.500000 0.230060 -0.622192
O9    O     O_R   0.269940 0.000000 0.678340 -0.612585
O10   O     O_R   0.730060 0.000000 0.678340 -0.614786
O11   O     O_R   0.769940 0.500000 0.678340 -0.614313
O12   O     O_R   0.230060 0.500000 0.678340 -0.613153
O13   O     O_R   0.769940 0.000000 0.178340 -0.613908
O14   O     O_R   0.230060 0.000000 0.178340 -0.614024
O15   O     O_R   0.269940 0.500000 0.178340 -0.614263
O16   O     O_R   0.730060 0.500000 0.178340 -0.613653
O17   O     O_R   0.275870 0.936860 0.775860 -0.585636
O18   O     O_R   0.724130 0.063140 0.775860 -0.587110
O19   O     O_R   0.724130 0.936860 0.775860 -0.577438
O20   O     O_R   0.275870 0.063140 0.775860 -0.578263
O21   O     O_R   0.775870 0.436860 0.775860 -0.587035
O22   O     O_R   0.224130 0.563140 0.775860 -0.587591
O23   O     O_R   0.224130 0.436860 0.775860 -0.577213
O24   O     O_R   0.775870 0.563140 0.775860 -0.577453
O25   O     O_R   0.775870 0.936860 0.275860 -0.587410
O26   O     O_R   0.224130 0.063140 0.275860 -0.586718
O27   O     O_R   0.224130 0.936860 0.275860 -0.577537
O28   O     O_R   0.775870 0.063140 0.275860 -0.577325
O29   O     O_R   0.275870 0.436860 0.275860 -0.589861
O30   O     O_R   0.724130 0.563140 0.275860 -0.586225
O31   O     O_R   0.724130 0.436860 0.275860 -0.577952
O32   O     O_R   0.275870 0.563140 0.275860 -0.576255
O33   O     O_R   0.224140 0.936870 0.724140 -0.603126
O34   O     O_R   0.775860 0.063130 0.724140 -0.602690
O35   O     O_R   0.775860 0.936870 0.724140 -0.600449
O36   O     O_R   0.224140 0.063130 0.724140 -0.600356
O37   O     O_R   0.724140 0.436870 0.724140 -0.602785
O38   O     O_R   0.275860 0.563130 0.724140 -0.603154
O39   O     O_R   0.275860 0.436870 0.724140 -0.600637
O40   O     O_R   0.724140 0.563130 0.724140 -0.600375
O41   O     O_R   0.724140 0.936870 0.224140 -0.603024
O42   O     O_R   0.275860 0.063130 0.224140 -0.602846
O43   O     O_R   0.275860 0.936870 0.224140 -0.600410
O44   O     O_R   0.724140 0.063130 0.224140 -0.600403
O45   O     O_R   0.224140 0.436870 0.224140 -0.602942
O46   O     O_R   0.775860 0.563130 0.224140 -0.602861
O47   O     O_R   0.775860 0.436870 0.224140 -0.600365
O48   O     O_R   0.224140 0.563130 0.224140 -0.600558
O49   O     O_R   0.230060 0.000000 0.821670 -0.565743
O50   O     O_R   0.769940 0.000000 0.821670 -0.566272
O51   O     O_R   0.730060 0.500000 0.821670 -0.566046
O52   O     O_R   0.269940 0.500000 0.821670 -0.566661
O53   O     O_R   0.730060 0.000000 0.321670 -0.566689
O54   O     O_R   0.269940 0.000000 0.321670 -0.566026
O55   O     O_R   0.230060 0.500000 0.321670 -0.567649
O56   O     O_R   0.769940 0.500000 0.321670 -0.565860
O57   O     O_R   0.178330 0.000000 0.769950 -0.629807
O58   O     O_R   0.821670 0.000000 0.769950 -0.629202
O59   O     O_R   0.678330 0.500000 0.769950 -0.629203
O60   O     O_R   0.321670 0.500000 0.769950 -0.628497
O61   O     O_R   0.678330 0.000000 0.269950 -0.628585
O62   O     O_R   0.321670 0.000000 0.269950 -0.629414
O63   O     O_R   0.178330 0.500000 0.269950 -0.626919
O64   O     O_R   0.821670 0.500000 0.269950 -0.629562
O65   O     O_R   0.954170 0.964330 0.954180 -0.620059
O66   O     O_R   0.045830 0.035670 0.954180 -0.620697
O67   O     O_R   0.045830 0.964330 0.954180 -0.619775
O68   O     O_R   0.954170 0.035670 0.954180 -0.620074
O69   O     O_R   0.454170 0.464330 0.954180 -0.620277
O70   O     O_R   0.545830 0.535670 0.954180 -0.620764
O71   O     O_R   0.545830 0.464330 0.954180 -0.620166
O72   O     O_R   0.454170 0.535670 0.954180 -0.620539
O73   O     O_R   0.454170 0.964330 0.454180 -0.620838
O74   O     O_R   0.545830 0.035670 0.454180 -0.620036
O75   O     O_R   0.545830 0.964330 0.454180 -0.620427
O76   O     O_R   0.454170 0.035670 0.454180 -0.620133
O77   O     O_R   0.954170 0.464330 0.454180 -0.621379
O78   O     O_R   0.045830 0.535670 0.454180 -0.619821
O79   O     O_R   0.045830 0.464330 0.454180 -0.621128
O80   O     O_R   0.954170 0.535670 0.454180 -0.619854
O81   O     O_R   0.454180 0.964360 0.545790 -0.624943
O82   O     O_R   0.545820 0.035640 0.545790 -0.624828
O83   O     O_R   0.545820 0.964360 0.545790 -0.619055
O84   O     O_R   0.454180 0.035640 0.545790 -0.619794
O85   O     O_R   0.954180 0.464360 0.545790 -0.624965
O86   O     O_R   0.045820 0.535640 0.545790 -0.624834
O87   O     O_R   0.045820 0.464360 0.545790 -0.618846
O88   O     O_R   0.954180 0.535640 0.545790 -0.619405
O89   O     O_R   0.954180 0.964360 0.045790 -0.624675
O90   O     O_R   0.045820 0.035640 0.045790 -0.625036
O91   O     O_R   0.045820 0.964360 0.045790 -0.619750
O92   O     O_R   0.954180 0.035640 0.045790 -0.619478
O93   O     O_R   0.454180 0.464360 0.045790 -0.624709
O94   O     O_R   0.545820 0.535640 0.045790 -0.624702
O95   O     O_R   0.545820 0.464360 0.045790 -0.619396
O96   O     O_R   0.454180 0.535640 0.045790 -0.619156
Zn1   Zn    Zn3+2 0.284540 0.000000 0.784540 1.049906
Zn2   Zn    Zn3+2 0.715460 0.000000 0.784540 1.048443
Zn3   Zn    Zn3+2 0.784540 0.500000 0.784540 1.048449
Zn4   Zn    Zn3+2 0.215460 0.500000 0.784540 1.047963
Zn5   Zn    Zn3+2 0.784540 0.000000 0.284540 1.048042
Zn6   Zn    Zn3+2 0.215460 0.000000 0.284540 1.049036
Zn7   Zn    Zn3+2 0.284540 0.500000 0.284540 1.045309
Zn8   Zn    Zn3+2 0.715460 0.500000 0.284540 1.049121
Zn9   Zn    Zn3+2 0.215460 0.000000 0.715470 0.987454
Zn10  Zn    Zn3+2 0.784540 0.000000 0.715470 0.986646
Zn11  Zn    Zn3+2 0.715460 0.500000 0.715470 0.986952
Zn12  Zn    Zn3+2 0.284540 0.500000 0.715470 0.987363
Zn13  Zn    Zn3+2 0.715460 0.000000 0.215470 0.987383
Zn14  Zn    Zn3+2 0.284540 0.000000 0.215470 0.987046
Zn15  Zn    Zn3+2 0.215460 0.500000 0.215470 0.987999
Zn16  Zn    Zn3+2 0.784540 0.500000 0.215470 0.987177
Zn17  Zn    Zn3+2 1.000000 0.952400 0.999990 0.986885
Zn18  Zn    Zn3+2 0.000000 0.047600 0.999990 0.986126
Zn19  Zn    Zn3+2 0.500000 0.452400 0.999990 0.986342
Zn20  Zn    Zn3+2 0.500000 0.547600 0.999990 0.986225
Zn21  Zn    Zn3+2 0.500000 0.952400 0.499990 0.986295
Zn22  Zn    Zn3+2 0.500000 0.047600 0.499990 0.985612
Zn23  Zn    Zn3+2 1.000000 0.452400 0.499990 0.984742
Zn24  Zn    Zn3+2 1.000000 0.547600 0.499990 0.986552
Br1   Br    Br    0.227676 0.077942 0.907770 -0.450152
Br2   Br    Br    0.775067 0.917148 0.905025 -0.451469
Br3   Br    Br    0.755209 0.024588 0.927392 -0.442735
Br4   Br    Br    0.243888 0.969264 0.926033 -0.443254
Br5   Br    Br    0.724958 0.582829 0.904826 -0.451628
Br6   Br    Br    0.277771 0.412492 0.901952 -0.453222
Br7   Br    Br    0.254587 0.518344 0.928180 -0.442323
Br8   Br    Br    0.744602 0.475564 0.927123 -0.442782
Br9   Br    Br    0.723003 0.086592 0.402795 -0.452582
Br10  Br    Br    0.274108 0.918749 0.405955 -0.449901
Br11  Br    Br    0.255574 0.026591 0.426876 -0.442992
Br12  Br    Br    0.745462 0.980117 0.427995 -0.442799
Br13  Br    Br    0.216055 0.595878 0.395283 -0.456120
Br14  Br    Br    0.773202 0.420345 0.406789 -0.450791
Br15  Br    Br    0.755757 0.528611 0.426420 -0.443312
Br16  Br    Br    0.245723 0.494317 0.429313 -0.441586

loop_
_geom_bond_atom_site_label_1
_geom_bond_atom_site_label_2
_ccdc_geom_bond_type
O74   Zn22  S    
C57   C145  S    
C51   C123  S    
C96   O40   A    
C4    O12   A    
C125  Br12  S    
C79   C87   A    
C5    O13   A    
C185  C190  T    
C179  C195  S    
C130  O66   A    
C7    O15   A    
C177  C193  S    
C64   C152  S    
C188  C191  T    
C95   O23   A    
C86   C110  A    
O78   Zn24  S    
C43   H40   S    
C194  C197  T    
C113  H65   S    
C15   H15   S    
C144  O95   A    
C154  C170  T    
O95   Zn19  S    
O63   Zn15  S    
O83   Zn21  S    
C146  O50   A    
C47   H48   S    
C158  C174  T    
C36   H22   S    
C48   H47   S    
C46   H43   S    
C148  O60   A    
C150  O54   A    
C2    O10   A    
C2    O2    A    
O62   Zn14  S    
O55   Zn7   S    
C40   H30   S    
C206  C214  A    
C45   H41   S    
O23   Zn4   S    
C79   H63   S    
C23   C143  S    
C204  C212  A    
C51   C107  A    
C73   C81   A    
C98   C162  S    
C99   O43   A    
C11   H11   S    
C35   H21   S    
C80   H64   S    
C9    H9    S    
C126  Br11  S    
C121  Br4   S    
C122  Br3   S    
C137  O84   A    
C90   O18   A    
C112  C120  S    
C13   H13   S    
C165  C181  T    
C20   C28   A    
C27   C35   S    
C1    C209  S    
C151  O55   A    
O44   Zn13  S    
C23   C31   A    
O42   Zn14  S    
C41   H36   S    
C216  C224  A    
C31   C207  A    
O75   Zn21  S    
O13   Zn13  S    
C135  O80   A    
C54   C126  S    
O36   Zn9   S    
O82   Zn22  S    
C11   C19   A    
C48   C208  S    
C13   C21   A    
C129  O65   A    
O54   Zn6   S    
O76   Zn22  S    
C63   C71   A    
C36   C44   S    
C37   C45   S    
C37   H28   S    
C32   C40   S    
O73   Zn21  S    
C39   C47   S    
C53   C109  A    
C40   C48   S    
O70   Zn20  S    
C89   O33   A    
C62   C150  S    
O77   Zn23  S    
C34   H19   S    
O68   Zn18  S    
C87   C136  S    
C76   H60   S    
C88   C135  S    
C77   H61   S    
C8    C216  S    
C39   H29   S    
C70   H54   S    
C17   C25   A    
C209  C217  A    
C80   C88   A    
C52   C124  S    
C108  C116  S    
C10   C18   A    
C136  O78   A    
C123  Br5   S    
C98   O26   A    
C8    O8    A    
C56   C128  S    
O50   Zn2   S    
O34   Zn10  S    
C19   C139  S    
C101  O45   A    
C96   O24   A    
O26   Zn6   S    
C17   C137  S    
C60   C148  S    
C103  O47   A    
C143  O93   A    
C61   C149  S    
C12   C220  A    
O20   Zn1   S    
C142  O90   A    
C97   O25   A    
C140  O87   A    
C59   C147  S    
C149  O61   A    
C116  H71   S    
C103  C167  S    
C93   O37   A    
C117  H73   S    
C69   C77   A    
C166  C182  T    
C181  C197  S    
O29   Zn7   S    
C44   H39   S    
C71   C79   A    
O30   Zn8   S    
O35   Zn10  S    
C100  O28   A    
C100  O44   A    
C95   C159  S    
C105  C113  S    
O84   Zn22  S    
C25   C201  A    
O85   Zn23  S    
C125  Br9   S    
C127  Br13  S    
C94   O38   A    
C66   C74   A    
C29   C205  A    
C54   C110  A    
C111  C119  S    
C90   O34   A    
C52   C60   A    
C59   C67   A    
C53   C61   A    
C104  O48   A    
C184  C200  S    
C147  O59   A    
C144  O94   A    
C56   C64   A    
C119  H80   S    
C32   C208  A    
O10   Zn10  S    
C120  H79   S    
C152  O64   A    
C85   C134  S    
C6    O14   A    
C139  O85   A    
C77   C85   A    
C102  C166  S    
O96   Zn20  S    
C15   C223  A    
C133  O76   A    
C203  C211  A    
C213  C221  A    
C196  C199  T    
C201  C209  A    
C51   C59   A    
C3    C211  S    
C222  H6    S    
C81   C105  A    
C114  H66   S    
C118  H74   S    
C65   H49   S    
O47   Zn16  S    
O40   Zn11  S    
C28   C36   S    
C102  O46   A    
O71   Zn19  S    
O11   Zn11  S    
C131  O69   A    
C94   O22   A    
C1    O1    A    
C156  C172  T    
C71   H55   S    
C141  O89   A    
C72   H56   S    
C3    O11   A    
C121  Br1   S    
C132  O71   A    
C137  O81   A    
O3    Zn3   S    
C49   C121  S    
C22   C142  S    
O19   Zn2   S    
C138  O82   A    
C82   C129  S    
C41   H33   S    
C74   H58   S    
C187  C192  T    
C53   C125  S    
C134  O75   A    
C4    O4    A    
C99   C163  S    
C5    O5    A    
C55   C127  S    
O93   Zn19  S    
C97   C161  S    
C163  C179  T    
C42   C202  S    
C67   C75   A    
C221  H5    S    
C11   C219  A    
C73   H57   S    
O12   Zn12  S    
C46   C206  S    
O51   Zn3   S    
O64   Zn16  S    
O49   Zn1   S    
C13   C221  A    
O45   Zn15  S    
C146  O58   A    
O41   Zn13  S    
C68   C76   A    
C211  C219  A    
C130  O67   A    
C148  O52   A    
O56   Zn8   S    
C42   H34   S    
O89   Zn17  S    
O2    Zn2   S    
C38   H26   S    
C101  O29   A    
O28   Zn5   S    
O52   Zn4   S    
C31   C39   S    
O53   Zn5   S    
C218  H2    S    
C82   C106  A    
C97   O41   A    
C38   C46   S    
O65   Zn17  S    
C113  C121  S    
C16   H16   S    
O79   Zn23  S    
C44   C204  S    
C36   H23   S    
C138  O83   A    
C117  C125  S    
C78   H62   S    
O59   Zn11  S    
O91   Zn17  S    
C25   C33   S    
C119  C127  S    
O57   Zn9   S    
C115  H69   S    
C151  O63   A    
C33   H17   S    
C18   C26   A    
O15   Zn15  S    
C76   C84   A    
C109  C117  S    
O6    Zn6   S    
C140  O86   A    
O69   Zn19  S    
C178  C194  S    
C116  H70   S    
C35   H24   S    
O60   Zn12  S    
C85   C109  A    
C104  O32   A    
C44   H38   S    
C87   C111  A    
O27   Zn6   S    
C9    C217  A    
C193  C198  T    
O33   Zn9   S    
C220  H4    S    
O37   Zn11  S    
C18   C138  S    
O38   Zn12  S    
O43   Zn14  S    
C145  O49   A    
C75   C83   A    
C90   C154  S    
C91   O19   A    
C164  C180  T    
C205  C213  A    
C94   C158  S    
C102  O30   A    
C74   C82   A    
C120  H78   S    
C223  H7    S    
C126  Br10  S    
C98   O42   A    
C10   H10   S    
C50   C58   A    
C133  O73   A    
C115  C123  S    
C14   H14   S    
C49   C105  A    
C39   H32   S    
C54   C62   A    
C150  O62   A    
O67   Zn17  S    
C214  C222  A    
C47   H45   S    
C86   C133  S    
C212  C220  A    
C6    C214  S    
C7    O7    A    
C46   H42   S    
C149  O53   A    
C170  C186  S    
C207  C215  A    
C123  Br8   S    
C100  C164  S    
C124  Br7   S    
C139  O88   A    
O7    Zn7   S    
C63   C151  S    
C174  C190  S    
C106  C114  S    
O21   Zn3   S    
C27   C203  A    
C66   H50   S    
O22   Zn4   S    
C41   C201  S    
C143  O96   A    
C142  O91   A    
C43   H37   S    
C45   C205  S    
C116  C124  S    
C57   C65   A    
C122  Br2   S    
C210  C218  A    
C120  C128  S    
C47   C207  S    
O24   Zn3   S    
O88   Zn24  S    
C33   C41   S    
C20   C140  S    
C186  C189  T    
C21   C141  S    
C83   C132  S    
C135  O77   A    
O94   Zn20  S    
C127  Br16  S    
C14   C22   A    
C81   C130  S    
C128  Br15  S    
C21   C29   A    
C24   C144  S    
C84   C108  A    
C180  C196  S    
C67   H51   S    
O66   Zn18  S    
C88   C112  A    
O48   Zn15  S    
C50   C122  S    
C60   C68   A    
C72   C80   A    
C29   C37   S    
C50   C106  A    
O87   Zn23  S    
O39   Zn12  S    
C219  H3    S    
C7    C215  S    
C157  C173  T    
O31   Zn8   S    
C92   O20   A    
O32   Zn7   S    
C1    O9    A    
C70   C78   A    
C153  C169  T    
C16   C24   A    
C182  C198  S    
O61   Zn13  S    
C24   C32   A    
C49   C57   A    
C6    O6    A    
C113  H68   S    
C117  H76   S    
C114  H67   S    
C118  H75   S    
C8    O16   A    
C34   H18   S    
C26   C202  A    
C224  H8    S    
C175  C191  S    
C176  C192  S    
C131  O72   A    
O92   Zn18  S    
C30   C206  A    
C141  O92   A    
C75   H59   S    
C65   C73   A    
C91   O35   A    
C40   H31   S    
C58   C66   A    
C45   H44   S    
C167  C183  T    
C103  O31   A    
C34   C42   S    
O58   Zn10  S    
O14   Zn14  S    
O8    Zn8   S    
C19   C27   A    
C78   C86   A    
C15   C23   A    
C5    C213  S    
O4    Zn4   S    
C159  C175  T    
O5    Zn5   S    
C160  C176  T    
C62   C70   A    
C12   C20   A    
C202  C210  A    
C26   C34   S    
C2    C210  S    
C162  C178  T    
C28   C204  A    
C84   C131  S    
O90   Zn18  S    
O72   Zn20  S    
C168  C184  T    
O9    Zn9   S    
C183  C199  S    
C55   C63   A    
C101  C165  S    
C91   C155  S    
C42   H35   S    
C129  O68   A    
C104  C168  S    
C89   C153  S    
C38   H27   S    
C68   H52   S    
C132  O70   A    
O16   Zn16  S    
O1    Zn1   S    
C92   C156  S    
C119  H77   S    
O18   Zn2   S    
C93   C157  S    
C110  C118  S    
C107  C115  S    
C9    C17   A    
C96   C160  S    
C43   C203  S    
C55   C111  A    
C124  Br6   S    
C35   C43   S    
C10   C218  A    
O80   Zn24  S    
C195  C200  T    
C61   C69   A    
C12   H12   S    
C147  O51   A    
C69   H53   S    
O46   Zn16  S    
O25   Zn5   S    
C115  H72   S    
C14   C222  A    
C152  O56   A    
C99   O27   A    
C215  C223  A    
C93   O21   A    
C58   C146  S    
O17   Zn1   S    
C145  O57   A    
C95   O39   A    
C136  O79   A    
C4    C212  S    
C171  C187  S    
C89   O17   A    
C169  C185  S    
C22   C30   A    
O81   Zn21  S    
C172  C188  S    
C37   H25   S    
C173  C189  S    
C83   C107  A    
O86   Zn24  S    
C64   C72   A    
C92   O36   A    
C16   C224  A    
C134  O74   A    
C48   H46   S    
C114  C122  S    
C155  C171  T    
C128  Br14  S    
C52   C108  A    
C208  C216  A    
C217  H1    S    
C3    O3    A    
C33   H20   S    
C118  C126  S    
C30   C38   S    
C161  C177  T    
C56   C112  A    
