data_mof_unit_pretest_1491.cif
_audit_creation_date              2013-03-05T16:10:14-0500
_audit_creation_method            fapswitch 2.2
_symmetry_space_group_name_H-M    P1
_symmetry_Int_Tables_number       1
_space_group_crystal_system       triclinic
_cell_length_a                    9.88398
_cell_length_b                    10.605923
_cell_length_c                    13.124271
_cell_angle_alpha                 90.036199
_cell_angle_beta                  69.588535
_cell_angle_gamma                 89.721573
_cell_volume                      1289.39800547

loop_
_atom_site_label
_atom_site_type_symbol
_atom_site_description
_atom_site_fract_x
_atom_site_fract_y
_atom_site_fract_z
_atom_type_partial_charge
O1    O     O_R   0.385370 0.683250 0.500010 -0.569191
O2    O     O_R   0.614700 0.683220 0.500010 -0.619085
C1    C     C_R   0.499850 0.739464 0.500008 0.975652
O3    O     O_R   0.328400 0.499990 0.653620 -0.541644
O4    O     O_R   0.557730 0.499960 0.653620 -0.633160
C2    C     C_R   0.419788 0.493717 0.704358 0.928018
Zn1   Zn    Zn3+2 0.346870 0.500020 0.500000 1.061929
Zn2   Zn    Zn3+2 0.653130 0.499980 0.500000 0.979069
O5    O     O_R   0.385300 0.316780 0.499990 -0.583419
O6    O     O_R   0.614630 0.316750 0.499990 -0.626643
O7    O     O_R   0.442270 0.500040 0.346380 -0.624200
O8    O     O_R   0.671600 0.500010 0.346380 -0.616653
C3    C     C_R   0.499239 0.260425 0.501816 1.003947
C4    C     C_R   0.580511 0.499737 0.295546 0.909318
C5    C     C_R   0.784459 0.377755 0.014905 0.314734
H1    H     H_    0.835674 0.399162 0.160943 0.194771
H2    H     H_    0.776487 0.279079 0.824949 0.214128
C6    C     C_R   0.630185 0.483316 0.178349 -0.098408
C7    C     C_R   0.232404 0.533552 0.884039 -0.014206
C8    C     C_R   0.193976 0.548359 0.995644 -0.097715
C9    C     C_R   0.294411 0.522988 0.045520 -0.159147
C10   C     C_R   0.433690 0.475386 0.984456 0.110758
C11   C     C_R   0.461996 0.440662 0.875590 0.079156
C12   C     C_R   0.545606 0.460667 0.027748 0.063481
C13   C     C_R   0.674645 0.393605 0.969072 0.033312
C14   C     C_R   0.687133 0.340002 0.868748 -0.139410
C15   C     C_R   0.583538 0.364389 0.822215 -0.116972
C16   C     C_R   0.532456 0.512910 0.127784 -0.226387
C17   C     C_R   0.758231 0.419361 0.121544 -0.203806
C18   C     C_R   0.368069 0.483821 0.822826 -0.081779
H3    H     H_    0.442477 0.573247 0.170957 0.158572
H4    H     H_    0.157417 0.563919 0.845516 0.216570
H5    H     H_    0.258798 0.538201 0.132185 0.139599
H6    H     H_    0.088132 0.584804 0.043027 0.154116
H7    H     H_    0.598563 0.320726 0.744499 0.187094
C19   C     C_R   0.446774 0.933898 0.603220 0.366639
C20   C     C_R   0.445543 0.064809 0.603787 0.190988
C21   C     C_R   0.498070 0.127849 0.503359 -0.300514
C22   C     C_R   0.550396 0.063876 0.403862 0.383991
C23   C     C_R   0.550137 0.934505 0.404279 -0.258288
H8    H     H_    0.589695 0.882871 0.328066 0.185429
C24   C     C_R   0.498381 0.871526 0.503023 -0.216783
C25   C     C_R   0.950516 0.403443 0.453204 -0.080950
H9    H     H_    0.914414 0.326089 0.415550 0.171067
C26   C     C_R   0.094101 0.403523 0.453122 -0.103956
H10   H     H_    0.166005 0.326290 0.415360 0.178743
N1    N     N_R   0.142790 0.500030 0.500030 -0.136200
C27   C     C_R   0.048525 0.597451 0.546432 0.354892
C28   C     C_R   0.905490 0.596895 0.545682 -0.107542
H11   H     H_    0.832487 0.673610 0.583186 0.185418
N2    N     N_R   0.857180 0.499940 0.500010 -0.111144
N3    N     N_R   0.390182 0.133153 0.704677 0.212577
O9    O     O_R   0.286731 0.215267 0.720068 -0.330619
O10   O     O_R   0.435577 0.107129 0.784213 -0.322881
Cl1   Cl    Cl    0.615476 0.143037 0.277966 -0.586253
N4    N     N_R   0.092043 0.700868 0.597312 0.221020
O11   O     O_R   0.124766 0.681186 0.683587 -0.341110
O12   O     O_R   0.066849 0.815706 0.573707 -0.370714
N5    N     N_R   0.920554 0.318252 0.956042 0.205111
O13   O     O_R   0.985848 0.250283 0.007559 -0.310717
O14   O     O_R   0.990919 0.349195 0.855576 -0.375636
Cl2   Cl    Cl    0.379432 0.847991 0.726189 -0.474966

loop_
_geom_bond_atom_site_label_1
_geom_bond_atom_site_label_2
_geom_bond_distance
_ccdc_geom_bond_type
O4    Zn2   1.904713 S    
C25   H9    1.081650 S    
C1    C24   1.401036 S    
C23   H8    1.085207 S    
C20   C21   1.407476 A    
C11   C15   1.411074 A    
C22   Cl1   1.764761 S    
C4    C6    1.452334 S    
C19   C24   1.398136 A    
N1    C27   1.378625 A    
C27   N4    1.427577 S    
Zn2   O8    1.959964 S    
C13   C14   1.398960 A    
C8    H6    1.082842 S    
C28   N2    1.359529 A    
C23   C24   1.389004 A    
O2    C1    1.279805 A    
C14   C15   1.386407 A    
N5    O13   1.301438 A    
C6    C17   1.396621 A    
O1    Zn1   1.982052 S    
C9    C10   1.419673 A    
C12   C13   1.425136 A    
Zn1   O7    1.904714 S    
C25   C26   1.418821 A    
Zn2   N2    2.016870 S    
C25   N2    1.367694 A    
C3    C21   1.406296 S    
C21   C22   1.399073 A    
O3    Zn1   1.959963 S    
C19   Cl2   1.770943 S    
H2    C14   1.080646 S    
O3    C2    1.297221 A    
C27   C28   1.417262 A    
C2    C18   1.461539 S    
N3    O10   1.301140 A    
C5    C17   1.402044 A    
N4    O12   1.301062 A    
O4    C2    1.293971 A    
O7    C4    1.294678 A    
C10   C12   1.416908 A    
N5    O14   1.301187 A    
C9    H5    1.078704 S    
N4    O11   1.298216 A    
C7    H4    1.080716 S    
C11   C18   1.412663 A    
C12   C16   1.388162 A    
O8    C4    1.294096 A    
C6    C16   1.384349 A    
C8    C9    1.391839 A    
C5    C13   1.421945 A    
Zn2   O6    1.982054 S    
C28   H11   1.082117 S    
C26   N1    1.367066 A    
C22   C23   1.372124 A    
Zn1   O5    1.978380 S    
C20   N3    1.437929 S    
O5    C3    1.279991 A    
C10   C11   1.405295 A    
C19   C20   1.388421 A    
C15   H7    1.081618 S    
H1    C17   1.083419 S    
C26   H10   1.081588 S    
C7    C18   1.401015 A    
C5    N5    1.439035 S    
C16   H3    1.078901 S    
O2    Zn2   1.978380 S    
C7    C8    1.387609 A    
N3    O9    1.300703 A    
O1    C1    1.281534 A    
O6    C3    1.282887 A    
Zn1   N1    2.016985 S    
