data_mof_unit_pretest_767.cif
_audit_creation_date              2012-12-11T14:17:36-0500
_audit_creation_method            fapswitch 2.2
_symmetry_space_group_name_H-M    P1
_symmetry_Int_Tables_number       1
_space_group_crystal_system       triclinic
_cell_length_a                    6.945609
_cell_length_b                    13.638242
_cell_length_c                    20.406376
_cell_angle_alpha                 102.152621
_cell_angle_beta                  89.950948
_cell_angle_gamma                 90.662701
_cell_volume                      1889.56518629

loop_
_atom_site_label
_atom_site_type_symbol
_atom_type_description
_atom_site_fract_x
_atom_site_fract_y
_atom_site_fract_z
_atom_type_partial_charge
O1    O     O_R   0.506860 0.599390 0.449240 -0.539247
O2    O     O_R   0.180220 0.594600 0.586780 -0.543191
O3    O     O_R   0.004500 0.400610 0.550760 -0.538653
C1    C     C_R   0.349055 0.616056 0.613465 0.741267
O4    O     O_R   0.177490 0.611290 0.451970 -0.541495
O5    O     O_R   0.001750 0.417420 0.414990 -0.539327
C2    C     C_R   0.346960 0.637840 0.435177 0.696098
O6    O     O_R   0.509610 0.582580 0.585010 -0.543123
O7    O     O_3   0.337420 0.436370 0.488020 -0.372305
V1    V     V_3+5 0.064680 0.511800 0.502220 1.418693
O8    O     O_R   0.671710 0.405400 0.413220 -0.546764
C3    C     C_R   0.839773 0.384121 0.386512 0.741363
O9    O     O_R   0.674440 0.388710 0.548030 -0.541613
C4    C     C_R   0.842563 0.362277 0.564960 0.696738
V2    V     V_3+5 0.564010 0.488200 0.497780 1.414737
O10   O     O_3   0.841140 0.563630 0.511980 -0.372763
C5    C     C_R   0.853623 0.111666 0.613209 -0.159957
H1    H     H_    0.846187 0.161290 0.520225 0.104678
H2    H     H_    0.862098 0.986864 0.696562 0.120625
H3    H     H_    0.854152 0.033199 0.588240 0.113697
C6    C     C_R   0.849117 0.285677 0.605309 -0.032164
C7    C     C_R   0.861721 0.318303 0.930296 0.156106
C8    C     C_R   0.857113 0.393655 0.893457 -0.114123
C9    C     C_R   0.854842 0.370133 0.823697 -0.205953
C10   C     C_R   0.857078 0.269397 0.787740 0.078207
C11   C     C_R   0.860978 0.191996 0.825023 0.028637
C12   C     C_R   0.855451 0.242929 0.716052 0.083677
C13   C     C_R   0.856677 0.139874 0.683483 0.140081
C14   C     C_R   0.860729 0.065534 0.721095 -0.200353
C15   C     C_R   0.863087 0.090918 0.790588 -0.183781
C16   C     C_R   0.852456 0.314991 0.675255 -0.213975
C17   C     C_R   0.849278 0.184209 0.574382 -0.175428
C18   C     C_R   0.863326 0.217006 0.896181 -0.089691
H4    H     H_    0.851887 0.394486 0.695910 0.094061
H5    H     H_    0.851236 0.433095 0.799591 0.117227
H6    H     H_    0.855475 0.471868 0.918874 0.120517
H7    H     H_    0.866418 0.030020 0.817078 0.114652
C19   C     C_2   0.005288 0.289421 0.284795 -0.133266
C20   C     C_2   0.842176 0.315811 0.319700 -0.310649
H8    H     H_    0.142398 0.318380 0.306654 0.133703
H9    H     H_    0.703592 0.287325 0.299514 0.126292
C21   C     C_2   0.013669 0.221327 0.217177 -0.131915
C22   C     C_2   0.858538 0.183701 0.180201 -0.305126
H10   H     H_    0.156529 0.202283 0.197148 0.131728
H11   H     H_    0.714388 0.202063 0.198604 0.125816
C23   C     C_2   0.204574 0.790861 0.782304 -0.136314
C24   C     C_2   0.363585 0.815644 0.819954 -0.305505
H12   H     H_    0.066950 0.821197 0.801614 0.130942
H13   H     H_    0.502018 0.785637 0.801955 0.127823
C25   C     C_2   0.202885 0.722325 0.714806 -0.131569
C26   C     C_2   0.361026 0.684352 0.680207 -0.311298
H14   H     H_    0.061654 0.703288 0.692659 0.133865
H15   H     H_    0.504130 0.703010 0.700293 0.125079
C27   C     C_R   0.405181 0.887216 0.387055 -0.158101
H16   H     H_    0.401937 0.837019 0.479872 0.104678
H17   H     H_    0.431674 0.011742 0.303741 0.122059
H18   H     H_    0.428958 0.964815 0.411937 0.113213
C28   C     C_R   0.358657 0.714536 0.395006 -0.030834
C29   C     C_R   0.324231 0.685410 0.071345 -0.169493
C30   C     C_R   0.307374 0.609726 0.107167 -0.117953
C31   C     C_R   0.319275 0.632047 0.176904 -0.156807
C32   C     C_R   0.348856 0.731930 0.212936 0.076736
C33   C     C_R   0.366957 0.809165 0.175741 0.067586
C34   C     C_R   0.360785 0.757786 0.284472 0.072051
C35   C     C_R   0.391377 0.859813 0.316911 0.141823
C36   C     C_R   0.408527 0.933879 0.279292 -0.203142
C37   C     C_R   0.396378 0.909192 0.209903 -0.194787
C38   C     C_R   0.343970 0.686054 0.325218 -0.213568
C39   C     C_R   0.389584 0.814867 0.425836 -0.175797
C40   C     C_R   0.354192 0.784765 0.104857 -0.074436
H19   H     H_    0.320890 0.607357 0.304587 0.093535
H20   H     H_    0.313391 0.666509 0.017159 0.103752
H21   H     H_    0.304448 0.569224 0.200883 0.107912
H22   H     H_    0.284197 0.532938 0.080671 0.123409
H23   H     H_    0.410547 0.969606 0.183209 0.118359
O11   O     O_R   0.203230 0.917310 0.915020 -0.539334
O12   O     O_R   0.535500 0.888690 0.048040 -0.540870
O13   O     O_R   0.711080 0.082610 0.085000 -0.544688
C41   C     C_R   0.366041 0.862094 0.064826 0.688495
O14   O     O_R   0.532630 0.905370 0.913230 -0.548213
O15   O     O_R   0.708190 0.099410 0.949230 -0.539376
C42   C     C_R   0.364361 0.884208 0.886523 0.744017
O16   O     O_R   0.206120 0.900510 0.050790 -0.538145
O17   O     O_3   0.375360 0.063570 0.011990 -0.373047
V3    V     V_3+5 0.648170 0.988200 0.997780 1.413031
O18   O     O_R   0.038240 0.111390 0.951940 -0.541801
C43   C     C_R   0.870096 0.137877 0.935150 0.708183
O19   O     O_R   0.041120 0.094710 0.086750 -0.542220
C44   C     C_R   0.872492 0.115902 0.113456 0.746664
V4    V     V_3+5 0.148810 0.011930 0.002180 1.418567
O20   O     O_3   0.871750 0.936430 0.988010 -0.372687
C45   C     C_3   0.864788 0.346833 0.005859 -0.802102
H24   H     H_    0.861995 0.429464 0.024378 0.208455
H25   H     H_    0.737153 0.313870 0.026410 0.203939
H26   H     H_    0.997675 0.318273 0.025195 0.204173

loop_
_geom_bond_atom_site_label_1
_geom_bond_atom_site_label_2
_ccdc_geom_bond_type
C41   O16   A    
C1    O6    A    
V3    O20   S    
C24   H13   S    
C27   C35   A    
C6    C16   A    
C32   C33   A    
C21   H10   S    
C34   C38   A    
C4    C6    S    
C13   C14   A    
C19   C21   S    
O5    C3    A    
C19   C20   D    
V2    O10   S    
C8    H6    S    
C5    H3    S    
C24   C42   S    
O16   V4    S    
C32   C34   A    
O8    V2    S    
C25   H14   S    
C8    C9    A    
O1    V2    S    
C14   C15   A    
O7    V1    S    
C2    C28   S    
C29   H20   S    
C36   C37   A    
O12   V3    S    
C29   C30   A    
O9    C4    A    
O17   V4    S    
C33   C37   A    
O12   C41   A    
O13   C44   A    
C6    C17   A    
C23   H12   S    
C9    H5    S    
C1    C26   S    
C12   C16   A    
C9    C10   A    
O14   C42   A    
O18   V4    S    
O11   C42   A    
O4    C2    A    
O18   C43   A    
C31   H21   S    
C10   C11   A    
C45   H26   S    
C15   H7    S    
C30   C31   A    
C26   H15   S    
O2    C1    A    
O14   V3    S    
C11   C18   A    
C33   C40   A    
C45   H25   S    
C25   C26   D    
C16   H4    S    
C22   C44   S    
O17   V3    S    
C22   H11   S    
H16   C39   S    
O3    C4    A    
O13   V3    S    
C28   C38   A    
O19   V4    S    
C11   C15   A    
O6    V2    S    
O9    V2    S    
C37   H23   S    
C21   C22   D    
O2    V1    S    
C7    C18   A    
C23   C24   D    
C40   C41   S    
O1    C2    A    
C5    C13   A    
O5    V1    S    
O8    C3    A    
C28   C39   A    
C10   C12   A    
C23   C25   S    
C34   C35   A    
C3    C20   S    
O7    V2    S    
O4    V1    S    
O3    V1    S    
V1    O10   S    
C19   H8    S    
O15   C43   A    
V4    O20   S    
C27   C39   A    
C38   H19   S    
H17   C36   S    
C30   H22   S    
C45   H24   S    
C18   C43   S    
C31   C32   A    
C29   C40   A    
H1    C17   S    
O19   C44   A    
C20   H9    S    
C35   C36   A    
C12   C13   A    
C5    C17   A    
C7    C45   S    
C7    C8    A    
O15   V3    S    
O11   V4    S    
C27   H18   S    
H2    C14   S    
