data_mof_unit_pretest_1781.cif
_audit_creation_date              2012-12-10T16:44:34-0500
_audit_creation_method            fapswitch 2.2
_symmetry_space_group_name_H-M    P1
_symmetry_Int_Tables_number       1
_space_group_crystal_system       triclinic
_cell_length_a                    18.423538
_cell_length_b                    18.459151
_cell_length_c                    18.437182
_cell_angle_alpha                 119.605808
_cell_angle_beta                  119.646442
_cell_angle_gamma                 90.570609
_cell_volume                      4461.49232608

loop_
_atom_site_label
_atom_site_type_symbol
_atom_type_description
_atom_site_fract_x
_atom_site_fract_y
_atom_site_fract_z
_atom_type_partial_charge
C1    C     C_R   0.138870 0.361758 0.000373 0.571174
C2    C     C_R   0.523969 0.176390 0.756192 0.245375
C3    C     C_R   0.577141 0.229188 0.755046 -0.014809
C4    C     C_R   0.861086 0.638171 0.999710 0.545497
C5    C     C_R   0.666088 0.278525 0.837857 0.172231
C6    C     C_2   0.721200 0.777281 0.940107 -0.132038
C7    C     C_2   0.696817 0.808998 0.004478 -0.070809
C8    C     C_2   0.779719 0.723500 0.942484 -0.128415
C9    C     C_2   0.803266 0.691002 0.998763 -0.069062
C10   C     C_2   0.700734 0.274153 0.444615 0.222957
C11   C     C_2   0.703769 0.194083 0.386414 -0.022513
C12   C     C_R   0.832484 0.218625 0.154543 -0.004378
C13   C     C_2   0.770906 0.335487 0.553517 0.243164
C14   C     C_2   0.795022 0.306503 0.613480 -0.065822
C15   C     C_2   0.335416 0.278899 0.050999 -0.058374
C16   C     C_R   0.138529 0.637256 0.276996 0.516924
C17   C     C_2   0.304481 0.190882 0.987258 -0.051910
C18   C     C_2   0.276945 0.330520 0.034752 0.210683
C19   C     C_2   0.194785 0.307897 0.012562 0.233904
C20   C     C_2   0.220883 0.772866 0.938351 -0.126902
C21   C     C_2   0.306039 0.821891 0.016137 0.244865
C22   C     C_2   0.163288 0.725278 0.944275 -0.111558
C23   C     C_R   0.787467 0.234619 0.076204 -0.046579
C24   C     C_2   0.194574 0.684039 0.989766 -0.024608
C25   C     C_2   0.222472 0.770741 0.555513 -0.127847
C26   C     C_2   0.307936 0.821302 0.613505 0.252943
C27   C     C_2   0.164537 0.724121 0.444377 -0.112784
C28   C     C_R   0.860573 0.361758 0.723050 0.565692
C29   C     C_2   0.194725 0.684425 0.387039 -0.035324
C30   C     C_R   0.638547 0.138439 0.276885 0.558979
C31   C     C_R   0.361611 0.863069 0.722913 0.556531
C32   C     C_R   0.638960 0.861785 0.000434 0.526742
C33   C     C_R   0.361347 0.138088 0.998350 0.552623
C34   C     C_R   0.839138 0.292165 0.076598 -0.020550
C35   C     C_R   0.360429 0.862352 0.002051 0.537996
C36   C     C_R   0.639619 0.139797 0.999561 0.558955
C37   C     C_R   0.139545 0.637987 0.998367 0.527387
C38   C     C_R   0.859079 0.360201 0.999188 0.563123
C39   C     C_R   0.930974 0.335798 0.156152 -0.136899
C40   C     C_R   0.972060 0.323617 0.233787 0.007469
C41   C     C_R   0.923558 0.264726 0.233122 0.237000
C42   C     C_1   0.538383 0.235459 0.668983 0.361793
C43   C     C_1   0.777702 0.164778 0.426461 0.186867
C44   C     C_1   0.065510 0.371481 0.313219 0.288243
C45   C     C_R   0.694119 0.195627 0.998098 0.028272
C46   C     C_1   0.790575 0.153248 0.156449 0.272829
C47   C     C_R   0.652900 0.210125 0.919030 -0.051401
C48   C     C_R   0.707259 0.264996 0.918034 -0.024966
C49   C     C_R   0.800041 0.305090 0.997499 0.054849
C50   C     C_R   0.558724 0.171582 0.840020 0.246122
Cl1   Cl    Cl    0.611128 0.310223 0.394848 -0.441866
Cl2   Cl    Cl    0.717779 0.360388 0.837452 -0.577112
Cl3   Cl    Cl    0.818084 0.444728 0.597556 -0.442378
Cl4   Cl    Cl    0.319960 0.422008 0.042436 -0.500567
Cl5   Cl    Cl    0.154580 0.222037 0.014982 -0.563540
Cl6   Cl    Cl    0.353214 0.853159 0.142117 -0.505930
Cl7   Cl    Cl    0.357294 0.852551 0.567013 -0.462605
Cl8   Cl    Cl    0.978308 0.248163 0.331664 -0.488445
Cl9   Cl    Cl    0.476910 0.122093 0.842018 -0.479563
Cl10  Cl    Cl    0.410447 0.118333 0.652118 -0.389459
H1    H     H_    0.719884 0.798158 0.063617 0.124254
H2    H     H_    0.261925 0.682802 0.020261 0.179015
H3    H     H_    0.193018 0.762970 0.590869 0.131562
H4    H     H_    0.094951 0.718077 0.409244 0.166915
H5    H     H_    0.262469 0.684374 0.421231 0.174717
H6    H     H_    0.698479 0.791835 0.883600 0.176418
H7    H     H_    0.803139 0.709591 0.894779 0.179665
H8    H     H_    0.779519 0.701205 0.045078 0.122088
H9    H     H_    0.761906 0.238460 0.580476 0.095705
H10   H     H_    0.405728 0.314177 0.111162 0.196813
H11   H     H_    0.235521 0.156174 0.922224 0.168457
H12   H     H_    0.972789 0.380756 0.159655 0.117847
H13   H     H_    0.192482 0.765476 0.866502 0.140425
H14   H     H_    0.094067 0.720819 0.906826 0.175974
N1    N     N_1   0.507482 0.240440 0.600281 -0.159850
N2    N     N_1   0.836624 0.141308 0.458164 -0.207120
N3    N     N_1   0.140383 0.409899 0.376818 -0.215232
N4    N     N_1   0.758100 0.101215 0.158919 -0.269441
O1    O     O_3   0.000000 0.500000 0.000000 -0.484838
O2    O     O_R   0.325040 0.054120 0.939900 -0.514900
O3    O     O_R   0.444330 0.884140 0.060080 -0.493784
O4    O     O_R   0.054210 0.325030 0.939940 -0.510086
O5    O     O_R   0.615830 0.175840 0.060080 -0.504391
O6    O     O_R   0.324160 0.884140 0.939910 -0.567669
O7    O     O_R   0.615850 0.055700 0.939930 -0.499348
O8    O     O_R   0.614980 0.885710 0.939940 -0.538527
O9    O     O_R   0.445830 0.174930 0.060060 -0.507271
O10   O     O_R   0.614300 0.054120 0.229160 -0.520816
O11   O     O_R   0.325070 0.885060 0.770830 -0.557390
O12   O     O_R   0.054160 0.614240 0.229150 -0.552619
O13   O     O_R   0.885070 0.614240 0.060060 -0.515140
O14   O     O_R   0.174980 0.614900 0.229170 -0.511785
O15   O     O_R   0.885740 0.445830 0.770840 -0.469716
O16   O     O_R   0.175880 0.615810 0.060090 -0.500569
O17   O     O_R   0.884210 0.324110 0.939920 -0.496725
O18   O     O_R   0.055710 0.615810 0.939920 -0.541202
O19   O     O_R   0.884190 0.444260 0.060070 -0.519091
O20   O     O_R   0.885120 0.325030 0.770840 -0.517298
O21   O     O_R   0.175010 0.445830 0.060100 -0.503132
O22   O     O_R   0.885710 0.614900 0.939900 -0.521995
O23   O     O_3   0.500040 0.999960 0.000000 -0.480247
O24   O     O_R   0.614930 0.174930 0.229160 -0.484283
O25   O     O_R   0.445880 0.885710 0.770850 -0.480783
O26   O     O_R   0.614330 0.885060 0.060100 -0.526481
Zn1   Zn    Zn3+2 0.956610 0.542450 0.085830 0.995454
Zn2   Zn    Zn3+2 0.129220 0.543380 0.085850 1.030156
Zn3   Zn    Zn3+2 0.957530 0.543380 0.914160 1.034038
Zn4   Zn    Zn3+2 0.956640 0.370790 0.914170 1.034373
Zn5   Zn    Zn3+2 0.543440 0.957510 0.914170 1.037107
Zn6   Zn    Zn3+2 0.542510 0.956570 0.085840 1.022161
Zn7   Zn    Zn3+2 0.370820 0.956570 0.914150 0.999754
Zn8   Zn    Zn3+2 0.543410 0.129170 0.085830 1.066649

loop_
_geom_bond_atom_site_label_1
_geom_bond_atom_site_label_2
_ccdc_geom_bond_type
C15   C18   S    
C3    C42   S    
C16   O12   A    
C23   C45   A    
C27   C29   D    
O13   Zn1   S    
O24   Zn8   S    
C1    O21   A    
C35   O3    A    
C38   C49   S    
O23   Zn8   S    
C12   C23   A    
C42   N1    T    
C50   Cl9   S    
C44   N3    T    
C41   Cl8   S    
O7    Zn5   S    
C2    Cl10  S    
C36   O5    A    
O23   Zn5   S    
O20   Zn4   S    
O1    Zn1   S    
C18   C19   D    
C25   H3    S    
C15   H10   S    
C7    H1    S    
C2    C50   A    
C27   H4    S    
O16   Zn2   S    
C11   C30   S    
C8    C9    D    
C31   O11   A    
C38   O17   A    
C37   O16   A    
C39   H12   S    
C32   O26   A    
C5    Cl2   S    
C11   C43   S    
O4    Zn4   S    
C4    O13   A    
O10   Zn6   S    
C26   C31   S    
O1    Zn2   S    
C13   C14   D    
C17   C33   S    
C38   O19   A    
C10   Cl1   S    
C47   C50   A    
C13   Cl3   S    
C45   C47   A    
C5    C48   A    
C1    C19   S    
O6    Zn7   S    
C34   C39   A    
O8    Zn5   S    
C12   C46   S    
O17   Zn4   S    
C39   C40   A    
C46   N4    T    
C6    C8    S    
O9    Zn8   S    
O23   Zn6   S    
C37   O18   A    
C28   O15   A    
C31   O25   A    
C12   C41   A    
C47   C48   A    
C40   C44   S    
C23   C34   A    
C32   O8    A    
C30   O24   A    
C24   C37   S    
O1    Zn3   S    
C36   C45   S    
O3    Zn6   S    
O22   Zn3   S    
C29   H5    S    
O14   Zn2   S    
C48   C49   A    
O18   Zn3   S    
C20   C22   S    
C16   O14   A    
C4    O22   A    
C14   H9    S    
C22   C24   D    
O23   Zn7   S    
C22   H14   S    
C30   O10   A    
O1    Zn4   S    
C28   O20   A    
C43   N2    T    
C15   C17   D    
O21   Zn2   S    
C40   C41   A    
C34   C49   A    
C24   H2    S    
C7    C32   S    
O12   Zn1   S    
C3    C5    A    
C10   C13   S    
C21   Cl6   S    
C35   O6    A    
C33   O2    A    
C17   H11   S    
C6    C7    D    
C21   C35   S    
C19   Cl5   S    
C36   O7    A    
C25   C27   S    
O11   Zn7   S    
O25   Zn5   S    
C2    C3    A    
C25   C26   D    
C9    H8    S    
O19   Zn1   S    
O15   Zn3   S    
O26   Zn6   S    
C1    O4    A    
O2    Zn7   S    
C20   H13   S    
C33   O9    A    
C26   Cl7   S    
C10   C11   D    
C18   Cl4   S    
C6    H6    S    
C20   C21   D    
C16   C29   S    
C8    H7    S    
O5    Zn8   S    
C14   C28   S    
C4    C9    S    
