data_mof_unit_pretest_547.cif
_audit_creation_date              2012-12-11T15:44:57-0500
_audit_creation_method            fapswitch 2.2
_symmetry_space_group_name_H-M    P1
_symmetry_Int_Tables_number       1
_space_group_crystal_system       triclinic
_cell_length_a                    19.03357
_cell_length_b                    10.915956
_cell_length_c                    18.745885
_cell_angle_alpha                 89.604618
_cell_angle_beta                  90.144221
_cell_angle_gamma                 90.239957
_cell_volume                      3894.68631635

loop_
_atom_site_label
_atom_site_type_symbol
_atom_type_description
_atom_site_fract_x
_atom_site_fract_y
_atom_site_fract_z
_atom_type_partial_charge
C1    C     C_R   0.760832 0.535035 0.646790 0.533284
C2    C     C_R   0.281600 0.009501 0.520328 -0.126525
C3    C     C_R   0.515915 0.952861 0.958348 0.101037
C4    C     C_R   0.020707 0.232383 0.956014 -0.180093
C5    C     C_R   0.024376 0.231101 0.030658 -0.164710
C6    C     C_R   0.520707 0.732383 0.956014 -0.180093
C7    C     C_R   0.524376 0.731101 0.030658 -0.164710
C8    C     C_3   0.977698 0.562769 0.040720 -0.254620
C9    C     C_3   0.971112 0.565857 0.960501 -0.226844
C10   C     C_3   0.477698 0.062769 0.040720 -0.254620
C11   C     C_3   0.471112 0.065857 0.960501 -0.226844
C12   C     C_R   0.760769 0.530787 0.852963 0.543368
C13   C     C_R   0.325989 0.588236 0.447936 -0.161690
C14   C     C_R   0.237996 0.528371 0.145982 0.552726
C15   C     C_R   0.260769 0.030787 0.852963 0.543368
C16   C     C_R   0.737997 0.028371 0.145982 0.552726
C17   C     C_R   0.772044 0.123417 0.852191 0.579098
C18   C     C_R   0.227985 0.126407 0.146909 0.574902
C19   C     C_R   0.272044 0.623417 0.852191 0.579098
C20   C     C_R   0.727985 0.626407 0.146909 0.574902
C21   C     C_R   0.971768 0.347178 0.852543 0.545694
C22   C     C_R   0.032973 0.346962 0.144362 0.546126
C23   C     C_R   0.471768 0.847178 0.852543 0.545694
C24   C     C_R   0.781600 0.509501 0.520328 -0.126525
C25   C     C_R   0.532973 0.846962 0.144362 0.546126
C26   C     C_R   0.759340 0.106955 0.416579 0.004289
C27   C     C_R   0.252427 0.079300 0.575386 0.033882
C28   C     C_R   0.259340 0.606955 0.416579 0.004289
C29   C     C_R   0.752427 0.579300 0.575386 0.033882
C30   C     C_R   0.710736 0.176336 0.454628 0.012723
C31   C     C_R   0.202737 0.168368 0.559432 0.010258
C32   C     C_R   0.210736 0.676336 0.454628 0.012723
C33   C     C_R   0.702737 0.668368 0.559432 0.010258
C34   C     C_R   0.722208 0.202098 0.526101 0.024658
C35   C     C_3   0.633756 0.159090 0.465461 -0.256460
C36   C     C_R   0.189114 0.198722 0.489003 0.013590
C37   C     C_R   0.222209 0.702098 0.526101 0.024658
C38   C     C_R   0.689114 0.698722 0.489003 0.013590
C39   C     C_3   0.201887 0.299314 0.581877 -0.278338
C40   C     C_3   0.133756 0.659090 0.465461 -0.256460
C41   C     C_3   0.701887 0.799314 0.581877 -0.278338
C42   C     C_3   0.646649 0.183862 0.544059 -0.261766
C43   C     C_3   0.187220 0.332173 0.504638 -0.282085
C44   C     C_3   0.146649 0.683862 0.544059 -0.261766
C45   C     C_R   0.239970 0.535489 0.353420 0.525978
C46   C     C_3   0.687220 0.832173 0.504638 -0.282085
C47   C     C_R   0.782733 0.161264 0.561551 -0.000418
C48   C     C_R   0.223332 0.138436 0.433880 0.034021
C49   C     C_R   0.282733 0.661264 0.561551 -0.000418
C50   C     C_R   0.723332 0.638436 0.433880 0.034021
C51   C     C_R   0.989761 0.329331 0.420961 -0.042202
C52   C     C_R   0.996212 0.347168 0.570925 -0.045828
C53   C     C_R   0.489761 0.829331 0.420961 -0.042202
C54   C     C_R   0.496212 0.847168 0.570925 -0.045828
C55   C     C_R   0.007164 0.104868 0.432600 -0.083652
C56   C     C_R   0.260832 0.035035 0.646790 0.533284
C57   C     C_R   0.031820 0.130553 0.578061 -0.085881
C58   C     C_R   0.507164 0.604868 0.432600 -0.083652
C59   C     C_R   0.531820 0.630553 0.578061 -0.085881
C60   C     C_R   0.025261 0.003180 0.473919 -0.131461
C61   C     C_R   0.038967 0.016589 0.546241 -0.120222
C62   C     C_R   0.525261 0.503180 0.473919 -0.131461
C63   C     C_R   0.538967 0.516589 0.546241 -0.120222
C64   C     C_R   0.009829 0.233724 0.537946 -0.008679
C65   C     C_R   0.002333 0.222811 0.463093 0.007423
C66   C     C_R   0.509829 0.733724 0.537946 -0.008679
C67   C     C_R   0.739970 0.035489 0.353420 0.525978
C68   C     C_R   0.502333 0.722812 0.463093 0.007423
C69   C     C_R   0.983116 0.453273 0.527192 0.003213
C70   C     C_R   0.968743 0.437800 0.454286 -0.000562
C71   C     C_R   0.483116 0.953273 0.527192 0.003213
C72   C     C_R   0.468743 0.937800 0.454286 -0.000562
C73   C     C_R   0.791723 0.172657 0.638873 0.560133
C74   C     C_R   0.208455 0.170906 0.361182 0.558669
C75   C     C_R   0.291723 0.672658 0.638873 0.560133
C76   C     C_R   0.708455 0.670906 0.361182 0.558669
C77   C     C_R   0.983360 0.575480 0.553179 -0.076314
C78   C     C_R   0.837267 0.114126 0.519962 -0.166519
C79   C     C_R   0.939014 0.535361 0.414469 -0.083289
C80   C     C_R   0.483360 0.075480 0.553179 -0.076314
C81   C     C_R   0.439014 0.035360 0.414469 -0.083289
C82   C     C_R   0.956770 0.672274 0.512524 -0.132441
C83   C     C_R   0.932206 0.651287 0.443963 -0.117674
C84   C     C_R   0.456770 0.172274 0.512524 -0.132441
C85   C     C_R   0.432206 0.151287 0.443963 -0.117674
C86   C     C_R   0.743178 0.057915 0.070735 -0.044942
C87   C     C_R   0.253629 0.061376 0.927742 -0.036503
C88   C     C_R   0.243178 0.557915 0.070735 -0.044942
C89   C     C_R   0.266439 0.038193 0.449529 -0.127626
C90   C     C_R   0.753629 0.561376 0.927742 -0.036503
C91   C     C_R   0.802078 0.015418 0.035581 0.102896
C92   C     C_R   0.218933 0.976452 0.971309 0.011273
C93   C     C_R   0.302078 0.515418 0.035581 0.102896
C94   C     C_R   0.718933 0.476452 0.971309 0.011273
C95   C     C_R   0.807335 0.022549 0.963060 -0.013560
C96   C     C_R   0.218154 0.986342 0.044191 -0.047358
C97   C     C_R   0.307335 0.522548 0.963060 -0.013560
C98   C     C_R   0.718154 0.486342 0.044191 -0.047358
C99   C     C_R   0.688798 0.096877 0.954635 0.317098
C100  C     C_R   0.337267 0.614126 0.519962 -0.166519
C101  C     C_R   0.295309 0.161652 0.034865 0.328547
C102  C     C_R   0.188799 0.596877 0.954635 0.317098
C103  C     C_R   0.795309 0.661652 0.034865 0.328547
C104  C     C_R   0.683820 0.090320 0.029430 -0.141993
C105  C     C_R   0.295738 0.150287 0.960444 -0.141447
C106  C     C_R   0.183820 0.590319 0.029430 -0.141993
C107  C     C_R   0.795738 0.650287 0.960444 -0.141447
C108  C     C_3   0.877144 0.046887 0.048155 -0.253503
C109  C     C_3   0.145338 0.929771 0.968283 -0.249192
C110  C     C_3   0.377144 0.546887 0.048155 -0.253503
C111  C     C_R   0.766439 0.538193 0.449529 -0.127627
C112  C     C_3   0.645338 0.429771 0.968283 -0.249192
C113  C     C_3   0.883393 0.056584 0.968052 -0.265607
C114  C     C_3   0.145243 0.934993 0.048954 -0.269788
C115  C     C_3   0.383393 0.556584 0.968052 -0.265607
C116  C     C_3   0.645243 0.434993 0.048954 -0.269788
C117  C     C_R   0.753555 0.074140 0.921839 0.024985
C118  C     C_R   0.250853 0.085682 0.077027 0.020302
C119  C     C_R   0.253555 0.574140 0.921839 0.024985
C120  C     C_R   0.750853 0.585682 0.077027 0.020302
C121  C     C_R   0.970878 0.347919 0.645831 0.523813
C122  C     C_R   0.825989 0.088236 0.447936 -0.161690
C123  C     C_R   0.026204 0.343913 0.351655 0.522963
C124  C     C_R   0.470879 0.847919 0.645831 0.523813
C125  C     C_R   0.526204 0.843913 0.351655 0.522963
C126  C     C_R   0.018831 0.341260 0.068814 0.005107
C127  C     C_R   0.008305 0.343446 0.920295 0.021612
C128  C     C_R   0.518831 0.841260 0.068814 0.005107
C129  C     C_R   0.508305 0.843446 0.920295 0.021612
C130  C     C_R   0.020916 0.450880 0.030987 0.016661
C131  C     C_R   0.015915 0.452861 0.958348 0.101037
C132  C     C_R   0.520916 0.950880 0.030987 0.016661
Cr1   Cr    Cr6+3 0.885860 0.491680 0.749630 1.013422
Cr2   Cr    Cr6+3 0.112430 0.179310 0.249850 0.998126
Cr3   Cr    Cr6+3 0.387570 0.679310 0.750150 0.997918
Cr4   Cr    Cr6+3 0.612430 0.679310 0.249850 0.998126
Cr5   Cr    Cr6+3 0.114140 0.491680 0.250370 1.007583
Cr6   Cr    Cr6+3 0.385860 0.991680 0.749630 1.013422
Cr7   Cr    Cr6+3 0.614140 0.991680 0.250370 1.007583
Cr8   Cr    Cr6+3 0.730490 0.332970 0.748720 1.041818
Cr9   Cr    Cr6+3 0.269510 0.332970 0.251280 1.044868
Cr10  Cr    Cr6+3 0.230490 0.832970 0.748720 1.041818
Cr11  Cr    Cr6+3 0.769510 0.832970 0.251280 1.044868
Cr12  Cr    Cr6+3 0.887570 0.179310 0.750150 0.997918
F1    F     F_    0.632179 0.129287 0.914918 -0.670667
F2    F     F_    0.334324 0.252388 0.064402 -0.646050
F3    F     F_    0.132180 0.629287 0.914918 -0.670667
F4    F     F_    0.834324 0.752388 0.064402 -0.646050
H1    H     H_    0.886446 0.087591 0.544331 0.158126
H2    H     H_    0.328162 0.211402 0.928653 0.143718
H3    H     H_    0.134473 0.611459 0.054763 0.145960
H4    H     H_    0.828162 0.711402 0.928653 0.143718
H5    H     H_    0.907258 0.969074 0.071245 0.194304
H6    H     H_    0.142121 0.836046 0.947222 0.222800
H7    H     H_    0.407258 0.469075 0.071245 0.194304
H8    H     H_    0.642121 0.336046 0.947222 0.222800
H9    H     H_    0.884015 0.135927 0.075868 0.115229
H10   H     H_    0.108891 0.996145 0.942765 0.134065
H11   H     H_    0.384015 0.635927 0.075868 0.115229
H12   H     H_    0.289393 0.984541 0.407217 0.128835
H13   H     H_    0.608891 0.496145 0.942765 0.134065
H14   H     H_    0.892142 0.152039 0.949446 0.158259
H15   H     H_    0.105918 0.999338 0.069869 0.159968
H16   H     H_    0.392142 0.652039 0.949446 0.158259
H17   H     H_    0.605918 0.499338 0.069869 0.159968
H18   H     H_    0.918225 0.986052 0.944579 0.151732
H19   H     H_    0.144428 0.843003 0.074682 0.138272
H20   H     H_    0.418225 0.486052 0.944579 0.151732
H21   H     H_    0.644428 0.343003 0.074682 0.138272
H22   H     H_    0.018898 0.146562 0.927549 0.121051
H23   H     H_    0.386446 0.587591 0.544331 0.158126
H24   H     H_    0.027574 0.144570 0.058463 0.127656
H25   H     H_    0.518898 0.646562 0.927549 0.121051
H26   H     H_    0.527574 0.644570 0.058463 0.127656
H27   H     H_    0.008528 0.640855 0.062334 0.156982
H28   H     H_    0.916802 0.547627 0.942252 0.149083
H29   H     H_    0.508528 0.140855 0.062334 0.156982
H30   H     H_    0.416802 0.047627 0.942252 0.149083
H31   H     H_    0.927339 0.543205 0.068560 0.160122
H32   H     H_    0.996946 0.646921 0.935598 0.196796
H33   H     H_    0.427339 0.043205 0.068560 0.160122
H34   H     H_    0.789393 0.484541 0.407217 0.128836
H35   H     H_    0.496946 0.146921 0.935598 0.196796
H36   H     H_    0.866737 0.040016 0.419636 0.140493
H37   H     H_    0.315850 0.932912 0.532237 0.122067
H38   H     H_    0.366737 0.540016 0.419636 0.140493
H39   H     H_    0.815850 0.432912 0.532237 0.122067
H40   H     H_    0.115369 0.564657 0.454403 0.159634
H41   H     H_    0.753964 0.832247 0.601036 0.156083
H42   H     H_    0.615369 0.064657 0.454403 0.159634
H43   H     H_    0.253964 0.332248 0.601036 0.156083
H44   H     H_    0.602828 0.232046 0.438503 0.143091
H45   H     H_    0.955591 0.763814 0.534283 0.108046
H46   H     H_    0.157108 0.319466 0.617839 0.137858
H47   H     H_    0.102828 0.732046 0.438503 0.143091
H48   H     H_    0.657108 0.819466 0.617839 0.137858
H49   H     H_    0.621945 0.269358 0.562889 0.139100
H50   H     H_    0.134186 0.370943 0.495997 0.135321
H51   H     H_    0.121945 0.769357 0.562889 0.139100
H52   H     H_    0.634186 0.870943 0.495997 0.135321
H53   H     H_    0.637900 0.102051 0.578657 0.142940
H54   H     H_    0.231051 0.382888 0.478999 0.148313
H55   H     H_    0.137900 0.602051 0.578657 0.142940
H56   H     H_    0.910401 0.725755 0.412677 0.124044
H57   H     H_    0.731052 0.882888 0.478999 0.148313
H58   H     H_    0.028542 0.913808 0.449647 0.104433
H59   H     H_    0.054007 0.938431 0.578318 0.107910
H60   H     H_    0.528542 0.413808 0.449647 0.104433
H61   H     H_    0.554007 0.438431 0.578318 0.107910
H62   H     H_    0.993780 0.088743 0.377387 0.131694
H63   H     H_    0.045115 0.137504 0.634019 0.132220
H64   H     H_    0.493780 0.588743 0.377387 0.131694
H65   H     H_    0.545115 0.637504 0.634019 0.132220
H66   H     H_    0.922017 0.522137 0.359845 0.127751
H67   H     H_    0.455591 0.263814 0.534283 0.108046
H68   H     H_    0.006673 0.599655 0.603743 0.142113
H69   H     H_    0.422017 0.022137 0.359845 0.127751
H70   H     H_    0.506673 0.099655 0.603743 0.142113
H71   H     H_    0.410402 0.225755 0.412677 0.124044
H72   H     H_    0.634473 0.111459 0.054763 0.145960
O1    O     O_R   0.957020 0.451640 0.669920 -0.521960
O2    O     O_R   0.168040 0.093290 0.169870 -0.536267
O3    O     O_R   0.331960 0.593290 0.830130 -0.532242
O4    O     O_R   0.668040 0.593290 0.169870 -0.536267
O5    O     O_R   0.945600 0.250580 0.824860 -0.514530
O6    O     O_R   0.054400 0.250580 0.175140 -0.510501
O7    O     O_R   0.445600 0.750580 0.824860 -0.514530
O8    O     O_R   0.554400 0.750580 0.175140 -0.510501
O9    O     O_3   0.834640 0.334650 0.749500 -0.273763
O10   O     O_3   0.165360 0.334650 0.250500 -0.269319
O11   O     O_3   0.334640 0.834650 0.749500 -0.273763
O12   O     O_R   0.042980 0.451640 0.330080 -0.517012
O13   O     O_3   0.665360 0.834650 0.250500 -0.269319
O14   O     O_R   0.821450 0.543440 0.674610 -0.500699
O15   O     O_R   0.178550 0.543440 0.325390 -0.498450
O16   O     O_R   0.321450 0.043440 0.674610 -0.500699
O17   O     O_R   0.678550 0.043440 0.325390 -0.498450
O18   O     O_R   0.715320 0.458650 0.668100 -0.528030
O19   O     O_R   0.284680 0.458650 0.331900 -0.540619
O20   O     O_R   0.215320 0.958650 0.668100 -0.528030
O21   O     O_R   0.784680 0.958650 0.331900 -0.540619
O22   O     O_R   0.737170 0.209590 0.674530 -0.498251
O23   O     O_R   0.457020 0.951640 0.669920 -0.521960
O24   O     O_R   0.262830 0.209590 0.325470 -0.515038
O25   O     O_R   0.237170 0.709590 0.674530 -0.498251
O26   O     O_R   0.762830 0.709590 0.325470 -0.515038
O27   O     O_R   0.832710 0.092740 0.669580 -0.519976
O28   O     O_R   0.167290 0.092740 0.330420 -0.513454
O29   O     O_R   0.332710 0.592740 0.669580 -0.519976
O30   O     O_R   0.667290 0.592740 0.330420 -0.513454
O31   O     O_R   0.946290 0.250060 0.676040 -0.518848
O32   O     O_R   0.053710 0.250060 0.323960 -0.520997
O33   O     O_R   0.446290 0.750060 0.676040 -0.518848
O34   O     O_R   0.542980 0.951640 0.330080 -0.517012
O35   O     O_R   0.553710 0.750060 0.323960 -0.520997
O36   O     O_R   0.956270 0.452200 0.830470 -0.508849
O37   O     O_R   0.043730 0.452200 0.169530 -0.517447
O38   O     O_R   0.456270 0.952200 0.830470 -0.508849
O39   O     O_R   0.543730 0.952200 0.169530 -0.517447
O40   O     O_R   0.820760 0.543950 0.823440 -0.512862
O41   O     O_R   0.179240 0.543950 0.176560 -0.513442
O42   O     O_R   0.320760 0.043950 0.823440 -0.512862
O43   O     O_R   0.679240 0.043950 0.176560 -0.513442
O44   O     O_R   0.714570 0.459210 0.828640 -0.505930
O45   O     O_R   0.736470 0.210100 0.823360 -0.443761
O46   O     O_R   0.285430 0.459210 0.171360 -0.472032
O47   O     O_R   0.214570 0.959210 0.828640 -0.505930
O48   O     O_R   0.785430 0.959210 0.171360 -0.472032
O49   O     O_R   0.263530 0.210100 0.176640 -0.429345
O50   O     O_R   0.236470 0.710100 0.823360 -0.443760
O51   O     O_R   0.763530 0.710100 0.176640 -0.429345
O52   O     O_R   0.831960 0.093290 0.830130 -0.532242

loop_
_geom_bond_atom_site_label_1
_geom_bond_atom_site_label_2
_ccdc_geom_bond_type
C58   C62   A    
C46   H57   S    
C66   C68   A    
C124  O33   A    
Cr6   O38   S    
C35   H44   S    
Cr7   O43   S    
Cr7   O17   S    
C51   C123  S    
Cr4   O35   S    
C69   C77   A    
C103  C120  A    
C34   C42   S    
C3    C11   S    
Cr2   O32   S    
C80   C84   A    
C86   C104  A    
C57   H63   S    
C67   O21   A    
C8    H27   S    
C114  H19   S    
C102  C119  A    
C95   C117  A    
Cr10  O20   S    
C112  H13   S    
Cr5   O12   S    
C76   O30   A    
C4    C5    A    
C4    H22   S    
C30   C35   S    
C57   C64   A    
C24   H39   S    
Cr11  O51   S    
C101  C118  A    
Cr2   O6    S    
C96   C118  A    
Cr6   O11   S    
Cr12  O52   S    
C25   C128  S    
C63   H61   S    
C90   C107  A    
C41   H48   S    
C15   O47   A    
C86   C91   A    
C6    C129  A    
C59   C66   A    
C80   H70   S    
Cr12  O5    S    
C92   C109  S    
C121  O31   A    
C94   C98   A    
Cr10  O11   S    
C7    H26   S    
C29   C33   A    
C92   C96   A    
C106  H3    S    
C39   H43   S    
C23   C129  S    
C9    H28   S    
Cr11  O48   S    
C51   C65   A    
C9    C131  S    
Cr2   O28   S    
C115  H16   S    
C125  O35   A    
C35   C42   S    
C24   C29   A    
C104  H72   S    
C82   H45   S    
C17   O45   A    
C110  H7    S    
C113  H14   S    
C16   O43   A    
Cr6   O16   S    
Cr8   O45   S    
C79   H66   S    
C73   O22   A    
Cr6   O42   S    
C23   O38   A    
Cr5   O15   S    
C8    C9    S    
Cr2   O2    S    
C20   C120  S    
Cr7   O39   S    
C5    C126  A    
Cr7   O13   S    
C44   H55   S    
Cr1   O1    S    
C41   C46   S    
C49   C75   S    
C13   C28   A    
C102  C106  A    
C2    C27   A    
C52   C69   A    
C51   C70   A    
Cr9   O49   S    
C7    C128  A    
C97   C115  S    
C18   C118  S    
C72   C81   A    
C75   O25   A    
C84   H67   S    
C17   C117  S    
C93   C110  S    
C74   O24   A    
C122  H36   S    
C99   C104  A    
C99   F1    S    
C19   C119  S    
Cr8   O9    S    
Cr9   O19   S    
Cr3   O11   S    
C55   C60   A    
C100  H23   S    
C16   C86   S    
Cr4   O30   S    
C69   C70   A    
C24   C111  A    
Cr3   O29   S    
C17   O52   A    
C78   C122  A    
C109  H10   S    
C128  C132  A    
Cr1   O36   S    
C62   H60   S    
C71   C80   A    
C55   C65   A    
C1    O14   A    
C103  F4    S    
C90   C94   A    
C19   O50   A    
C10   C132  S    
Cr1   O40   S    
C22   O37   A    
C101  C105  A    
C101  F2    S    
C39   H46   S    
C76   O26   A    
C28   C45   S    
C110  C115  S    
Cr9   O24   S    
C38   C46   S    
C38   C50   A    
C108  H5    S    
C27   C31   A    
C3    C132  A    
C48   C74   S    
Cr12  O9    S    
C28   C32   A    
Cr7   O34   S    
C11   H35   S    
C84   C85   A    
C47   C73   S    
C52   C64   A    
C113  H18   S    
Cr11  O26   S    
C30   C34   A    
C27   C56   S    
C83   H56   S    
C39   C43   S    
C108  H9    S    
C95   C113  S    
Cr9   O10   S    
C67   O17   A    
C111  H34   S    
C60   C61   A    
C25   O39   A    
C108  C113  S    
C97   C119  A    
C2    C89   A    
C45   O19   A    
C62   C63   A    
C105  H2    S    
C14   O41   A    
C50   C76   S    
C102  F3    S    
C99   C117  A    
C88   C106  A    
C52   C121  S    
C98   C116  S    
Cr4   O4    S    
C53   C68   A    
Cr10  O25   S    
C81   H69   S    
Cr4   O13   S    
C43   H54   S    
Cr8   O18   S    
C20   O4    A    
C19   O3    A    
C11   H30   S    
C32   C37   A    
Cr3   O33   S    
C124  O23   A    
C98   C120  A    
C109  H6    S    
C55   H62   S    
C20   O51   A    
C37   C49   A    
C16   O48   A    
C9    H32   S    
C53   C125  S    
C109  C114  S    
C87   C105  A    
C54   C66   A    
C107  H4    S    
C58   C68   A    
C112  H8    S    
Cr12  O31   S    
C61   H59   S    
C26   C30   A    
C35   H42   S    
C58   H64   S    
C48   C89   A    
C8    C130  S    
C116  H17   S    
C21   C127  S    
C1    C29   S    
C93   C97   A    
C112  C116  S    
C32   C40   S    
C21   O5    A    
C89   H12   S    
C15   C87   S    
C12   C90   S    
C54   C124  S    
C88   C93   A    
C123  O12   A    
C121  O1    A    
C13   H38   S    
C4    C127  A    
C26   C67   S    
C3    C129  A    
C10   H29   S    
C40   H40   S    
C91   C108  S    
C56   O20   A    
C42   H49   S    
C74   O28   A    
C45   O15   A    
Cr5   O10   S    
C42   H53   S    
Cr1   O9    S    
C23   O7    A    
Cr10  O47   S    
C59   H65   S    
C57   C61   A    
C6    C7    A    
C22   O6    A    
C6    H25   S    
Cr5   O37   S    
C1    O18   A    
Cr3   O3    S    
C25   O8    A    
C59   C63   A    
C33   C38   A    
Cr11  O21   S    
C41   H41   S    
C33   C41   S    
Cr9   O46   S    
Cr11  O13   S    
C13   C100  A    
C130  C131  A    
C85   H71   S    
C2    H37   S    
C14   C88   S    
C123  O32   A    
C15   O42   A    
C75   O29   A    
C64   C65   A    
C49   C100  A    
C79   C83   A    
C8    H31   S    
C60   H58   S    
C114  H15   S    
C70   C79   A    
C77   C82   A    
C37   C44   S    
C46   H52   S    
C54   C71   A    
C94   C112  S    
C50   C111  A    
C5    H24   S    
C31   C39   S    
C116  H21   S    
C36   C48   A    
C43   H50   S    
Cr8   O22   S    
Cr1   O14   S    
Cr2   O10   S    
Cr4   O8    S    
C125  O34   A    
C18   O2    A    
C127  C131  A    
C96   C114  S    
C22   C126  S    
C10   C11   S    
Cr3   O7    S    
C91   C95   A    
C110  H11   S    
C12   O40   A    
C40   C44   S    
C71   C72   A    
C78   H1    S    
C44   H51   S    
C81   C85   A    
C82   C83   A    
Cr8   O44   S    
Cr12  O27   S    
Cr10  O50   S    
C10   H33   S    
C126  C130  A    
C31   C36   A    
C56   O16   A    
C36   C43   S    
C103  C107  A    
C34   C47   A    
C26   C122  A    
C47   C78   A    
C115  H20   S    
C87   C92   A    
C53   C72   A    
C73   O27   A    
C18   O49   A    
C12   O44   A    
Cr6   O23   S    
C14   O46   A    
C77   H68   S    
C21   O36   A    
C40   H47   S    
Cr5   O41   S    
