data_mof_unit_pretest_1549.cif
_audit_creation_date              2012-12-10T18:24:08-0500
_audit_creation_method            fapswitch 2.2
_symmetry_space_group_name_H-M    P1
_symmetry_Int_Tables_number       1
_space_group_crystal_system       triclinic
_cell_length_a                    16.098357
_cell_length_b                    16.117548
_cell_length_c                    16.133223
_cell_angle_alpha                 95.938713
_cell_angle_beta                  84.406736
_cell_angle_gamma                 90.206721
_cell_volume                      4143.64575192

loop_
_atom_site_label
_atom_site_type_symbol
_atom_type_description
_atom_site_fract_x
_atom_site_fract_y
_atom_site_fract_z
_atom_type_partial_charge
C1    C     C_R   0.510748 0.724152 0.510774 0.518309
C2    C     C_1   0.485752 0.186631 0.483795 0.015495
C3    C     C_1   0.515199 0.483113 0.185284 0.061370
C4    C     C_R   0.489225 0.275851 0.489249 0.512205
C5    C     C_2   0.523336 0.473909 0.019705 0.026452
C6    C     C_2   0.476860 0.525845 0.980232 0.024754
C7    C     C_1   0.481404 0.520676 0.889906 -0.017832
C8    C     C_1   0.518770 0.479078 0.110035 -0.014635
C9    C     C_1   0.484925 0.516691 0.814663 0.056202
C10   C     C_R   0.510782 0.488078 0.274745 0.523626
C11   C     C_R   0.489242 0.511848 0.725215 0.513196
C12   C     C_1   0.111476 0.518428 0.518240 0.030623
C13   C     C_R   0.724199 0.488250 0.488235 0.508475
C14   C     C_R   0.275781 0.511807 0.511759 0.516867
C15   C     C_1   0.813476 0.482283 0.482179 0.015769
C16   C     C_2   0.978272 0.468830 0.468675 0.016326
C17   C     C_2   0.021656 0.520203 0.519941 -0.090327
C18   C     C_2   0.016357 0.403948 0.403943 0.261533
C19   C     C_2   0.426266 0.982312 0.408818 0.231922
C20   C     C_3   0.628835 0.974564 0.625074 -0.292592
C21   C     C_2   0.418446 0.591226 0.024582 0.235001
C22   C     C_2   0.581749 0.408530 0.975349 0.228787
C23   C     C_1   0.888496 0.476570 0.476428 -0.086091
C24   C     C_1   0.186503 0.516114 0.515994 0.066026
C25   C     C_1   0.515176 0.813262 0.514988 0.041899
C26   C     C_2   0.524721 0.978469 0.521607 0.165392
C27   C     C_2   0.480361 0.021432 0.471817 0.024332
C28   C     C_1   0.483149 0.111571 0.478631 -0.080703
C29   C     C_1   0.519162 0.888181 0.518030 0.050369
H1    H     H_    0.988457 0.565858 0.565489 0.114281
H2    H     H_    0.976078 0.365537 0.365778 0.110619
H3    H     H_    0.390694 0.022193 0.374789 0.124605
H4    H     H_    0.602360 0.076884 0.562469 0.264641
H5    H     H_    0.661540 0.017403 0.669375 0.158632
H6    H     H_    0.676227 0.939294 0.580467 0.146729
H7    H     H_    0.591020 0.930891 0.662003 0.161185
H8    H     H_    0.383978 0.629544 0.987987 0.114497
H9    H     H_    0.616130 0.370130 0.011940 0.109218
N1    N     N_2   0.575533 0.022417 0.580127 -0.513851
O1    O     O_3   0.500000 0.500000 0.500000 -0.452505
O2    O     O_R   0.689040 0.536050 0.444000 -0.538107
O3    O     O_R   0.315570 0.560650 0.560630 -0.540310
O4    O     O_R   0.679800 0.444450 0.536560 -0.531564
O5    O     O_R   0.315590 0.458850 0.458810 -0.507526
O6    O     O_2   0.091643 0.392248 0.392075 -0.478725
O7    O     O_2   0.420793 0.906879 0.393198 -0.489625
O8    O     O_2   0.407616 0.603661 0.100788 -0.478382
O9    O     O_2   0.592683 0.396197 0.899141 -0.482799
O10   O     O_R   0.458170 0.444480 0.314880 -0.528110
O11   O     O_R   0.445130 0.560630 0.690220 -0.548254
O12   O     O_R   0.559450 0.679320 0.457680 -0.526629
O13   O     O_R   0.537250 0.315570 0.537220 -0.532093
O14   O     O_R   0.458120 0.689530 0.559970 -0.532895
O15   O     O_R   0.445170 0.315580 0.445130 -0.533909
O16   O     O_R   0.559480 0.536070 0.314410 -0.529344
O17   O     O_R   0.537220 0.458810 0.680490 -0.509944
Zn1   Zn    Zn3+2 0.430930 0.430930 0.430910 0.985859
Zn2   Zn    Zn3+2 0.575680 0.561790 0.430230 0.969557
Zn3   Zn    Zn3+2 0.562480 0.430910 0.562480 0.970186
Zn4   Zn    Zn3+2 0.430910 0.576380 0.576380 0.961813

loop_
_geom_bond_atom_site_label_1
_geom_bond_atom_site_label_2
_ccdc_geom_bond_type
C12   C17   S    
C5    C8    S    
C2    C4    S    
O12   Zn2   S    
C6    C7    S    
O1    Zn4   S    
O13   Zn3   S    
C26   C29   S    
C10   O10   A    
C9    C11   S    
C12   C24   T    
C14   O5    A    
C22   O9    D    
O17   Zn3   S    
O4    Zn3   S    
O5    Zn1   S    
C14   O3    A    
C20   H5    S    
C13   O2    A    
C19   O7    D    
O11   Zn4   S    
O1    Zn3   S    
C1    C25   S    
C17   H1    S    
C1    O12   A    
C26   C27   D    
H4    N1    S    
C4    O13   A    
C19   H3    S    
C15   C23   T    
C19   C27   S    
O14   Zn4   S    
O2    Zn2   S    
C16   C23   S    
C13   C15   S    
C10   O16   A    
C5    C6    D    
C26   N1    S    
O1    Zn2   S    
C5    C22   S    
O3    Zn4   S    
C22   H9    S    
C18   O6    D    
C13   O4    A    
C21   H8    S    
C25   C29   T    
C7    C9    T    
C3    C8    T    
O16   Zn2   S    
C14   C24   S    
C27   C28   S    
C3    C10   S    
C20   N1    S    
C11   O11   A    
C2    C28   T    
C1    O14   A    
C18   H2    S    
C4    O15   A    
C6    C21   S    
O1    Zn1   S    
C20   H6    S    
C16   C18   S    
O10   Zn1   S    
C11   O17   A    
C16   C17   D    
C21   O8    D    
O15   Zn1   S    
C20   H7    S    
