data_mof_unit_pretest_1970.cif
_audit_creation_date              2012-12-10T17:20:12-0500
_audit_creation_method            fapswitch 2.2
_symmetry_space_group_name_H-M    P1
_symmetry_Int_Tables_number       1
_space_group_crystal_system       triclinic
_cell_length_a                    10.27773
_cell_length_b                    10.682227
_cell_length_c                    14.132181
_cell_angle_alpha                 91.26169
_cell_angle_beta                  81.874814
_cell_angle_gamma                 95.509412
_cell_volume                      1528.83175393

loop_
_atom_site_label
_atom_site_type_symbol
_atom_type_description
_atom_site_fract_x
_atom_site_fract_y
_atom_site_fract_z
_atom_type_partial_charge
C1    C     C_R   0.556004 0.733433 0.491313 0.855233
C2    C     C_1   0.500269 0.499841 0.042633 0.041858
C3    C     C_2   0.588174 0.868243 0.476739 -0.213785
C4    C     C_2   0.410982 0.133041 0.485632 -0.211322
C5    C     C_2   0.495234 0.931000 0.445530 -0.221533
C6    C     C_2   0.506218 0.066839 0.440515 -0.147698
C7    C     C_2   0.922557 0.487077 0.525710 -0.050653
C8    C     C_2   0.066536 0.469813 0.508044 -0.076934
C9    C     C_2   0.129362 0.673907 0.568247 1.026686
C10   C     C_2   0.893267 0.431812 0.366307 1.040088
C11   C     C_2   0.273862 0.077457 0.514443 0.969427
C12   C     C_R   0.444094 0.266692 0.501370 0.863555
C13   C     C_2   0.716038 0.930029 0.500356 0.957470
C14   C     C_2   0.101187 0.347639 0.465694 0.988770
C15   C     C_2   0.870001 0.529788 0.622465 0.982193
C16   C     C_R   0.499878 0.500177 0.670468 0.899181
C17   C     C_R   0.500103 0.499720 0.329520 0.872335
C18   C     C_1   0.499740 0.500225 0.772042 -0.141887
C19   C     C_1   0.500339 0.499637 0.227938 -0.123819
C20   C     C_1   0.499905 0.500172 0.857360 0.034397
C21   C     C_1   0.500357 0.499681 0.142599 0.024684
C22   C     C_1   0.500129 0.500009 0.957310 0.048582
H1    H     H_    0.602579 0.112942 0.412865 0.224069
H2    H     H_    0.403572 0.881308 0.429518 0.230065
H3    H     H_    0.025434 0.822116 0.560646 0.371790
H4    H     H_    0.023077 0.491313 0.251761 0.354067
H5    H     H_    0.109684 0.990914 0.470559 0.382099
H6    H     H_    0.814022 0.078860 0.558081 0.378809
H7    H     H_    0.199454 0.254149 0.356953 0.342669
H8    H     H_    0.784174 0.664337 0.704559 0.332596
N1    N     N_2   0.842710 0.448890 0.464580 -0.196083
N2    N     N_2   0.157290 0.551110 0.535420 -0.195770
O1    O     O_R   0.431050 0.692470 0.507130 -0.601461
O2    O     O_R   0.043579 0.740815 0.525189 -0.742073
O3    O     O_2   0.840118 0.349101 0.319891 -0.607970
O4    O     O_R   0.998044 0.512971 0.321760 -0.774274
O5    O     O_2   0.216998 0.097809 0.594472 -0.557310
O6    O     O_R   0.207322 0.009133 0.447494 -0.786634
O7    O     O_2   0.816337 0.876181 0.481926 -0.556694
O8    O     O_R   0.721608 0.047869 0.545538 -0.776367
O9    O     O_2   0.045126 0.250413 0.501598 -0.625211
O10   O     O_R   0.187690 0.343293 0.380341 -0.761073
O11   O     O_2   0.883056 0.468396 0.691941 -0.612981
O12   O     O_R   0.568950 0.307530 0.492870 -0.579223
O13   O     O_R   0.812933 0.643752 0.634813 -0.740441
O14   O     O_R   0.651120 0.659650 0.484400 -0.538362
O15   O     O_R   0.348880 0.340350 0.515600 -0.594770
O16   O     O_R   0.389940 0.516410 0.637650 -0.568613
O17   O     O_R   0.610060 0.483590 0.362350 -0.593922
O18   O     O_R   0.610010 0.483590 0.614920 -0.587680
O19   O     O_R   0.389990 0.516410 0.385080 -0.554583
O20   O     O_2   0.185999 0.722959 0.631945 -0.584854
Zn1   Zn    Zn3+2 0.353060 0.521920 0.515180 1.047369
Zn2   Zn    Zn3+2 0.646940 0.478080 0.484820 1.055988

loop_
_geom_bond_atom_site_label_1
_geom_bond_atom_site_label_2
_ccdc_geom_bond_type
C2    C22   T    
C11   O6    S    
C10   O4    S    
C10   O3    D    
H7    O10   S    
C4    C12   S    
H8    O13   S    
O14   Zn2   S    
C3    C13   S    
O15   Zn1   S    
H3    O2    S    
C14   O10   S    
C17   O19   A    
C2    C21   S    
C7    C15   S    
C3    C5    D    
C1    O1    A    
C7    C8    S    
C12   O12   A    
C16   C18   S    
C4    C11   S    
C5    H2    S    
C16   O16   A    
O18   Zn2   S    
C9    O20   D    
C12   O15   A    
C5    C6    S    
C6    H1    S    
H4    O4    S    
C17   C19   S    
C20   C22   S    
C9    O2    S    
C18   C20   T    
C14   O9    D    
N1    Zn2   S    
O1    Zn1   S    
O16   Zn1   S    
C1    O14   A    
C13   O7    D    
C7    N1    D    
H6    O8    S    
H5    O6    S    
C15   O11   D    
O17   Zn2   S    
C8    N2    D    
O12   Zn2   S    
N2    Zn1   S    
C4    C6    D    
C17   O17   A    
C11   O5    D    
C15   O13   S    
C13   O8    S    
C8    C14   S    
C9    N2    S    
C19   C21   T    
C10   N1    S    
O19   Zn1   S    
C16   O18   A    
C1    C3    S    
