data_mof_unit_pretest_1654.cif
_audit_creation_date              2012-12-10T20:42:20-0500
_audit_creation_method            fapswitch 2.2
_symmetry_space_group_name_H-M    P1
_symmetry_Int_Tables_number       1
_space_group_crystal_system       triclinic
_cell_length_a                    26.078392
_cell_length_b                    39.703922
_cell_length_c                    23.822665
_cell_angle_alpha                 90.000226
_cell_angle_beta                  123.535414
_cell_angle_gamma                 90.000049
_cell_volume                      20560.4852445

loop_
_atom_site_label
_atom_site_type_symbol
_atom_type_description
_atom_site_fract_x
_atom_site_fract_y
_atom_site_fract_z
_atom_type_partial_charge
C1    C     C_R   0.500000 0.621964 0.000000 -0.036180
C2    C     C_1   0.500000 0.015113 1.000000 0.150424
C3    C     C_R   0.809794 0.780054 0.637054 -0.120424
C4    C     C_R   0.309782 0.719947 0.637053 -0.120425
C5    C     C_R   0.690206 0.280054 0.362946 -0.120424
C6    C     C_R   0.690228 0.719948 0.362948 -0.120425
C7    C     C_R   0.309774 0.280052 0.637053 -0.120425
C8    C     C_R   0.844959 0.219536 0.707314 -0.020852
C9    C     C_R   0.155048 0.780462 0.292686 -0.020857
C10   C     C_R   0.155032 0.219535 0.292684 -0.020858
C11   C     C_R   0.844989 0.780466 0.707318 -0.020870
C12   C     C_R   0.344978 0.719534 0.707317 -0.020866
C13   C     C_1   1.000000 0.484887 1.000000 0.150424
C14   C     C_R   0.655011 0.280466 0.292682 -0.020870
C15   C     C_R   0.655032 0.719536 0.292684 -0.020861
C16   C     C_R   0.344970 0.280465 0.707316 -0.020861
C17   C     C_R   0.871768 0.249704 0.743711 0.072206
C18   C     C_R   0.128231 0.750295 0.256289 0.072204
C19   C     C_R   0.128230 0.249704 0.256288 0.072209
C20   C     C_R   0.871770 0.750295 0.743713 0.072223
C21   C     C_R   0.371769 0.749704 0.743712 0.072220
C22   C     C_R   0.628231 0.250295 0.256287 0.072229
C23   C     C_R   0.628231 0.749705 0.256288 0.072207
C24   C     C_1   1.000000 0.515113 1.000000 0.150424
C25   C     C_R   0.371769 0.250295 0.743712 0.072209
C26   C     C_R   0.862630 0.280077 0.708290 0.227353
C27   C     C_R   0.137362 0.719924 0.291711 0.227352
C28   C     C_R   0.137376 0.280078 0.291710 0.227352
C29   C     C_R   0.862603 0.719920 0.708291 0.227348
C30   C     C_R   0.362612 0.780078 0.708291 0.227349
C31   C     C_R   0.637399 0.219920 0.291708 0.227345
C32   C     C_R   0.637377 0.780078 0.291710 0.227352
C33   C     C_R   0.362620 0.219922 0.708290 0.227352
C34   C     C_R   0.827082 0.279833 0.637478 -0.111211
C35   C     C_R   0.450069 0.604175 0.947197 -0.114117
C36   C     C_R   0.172910 0.720168 0.362522 -0.111212
C37   C     C_R   0.172924 0.279833 0.362522 -0.111212
C38   C     C_R   0.827054 0.720165 0.637479 -0.111213
C39   C     C_R   0.327063 0.779834 0.637480 -0.111212
C40   C     C_R   0.672948 0.220165 0.362520 -0.111214
C41   C     C_R   0.672925 0.779834 0.362522 -0.111212
C42   C     C_R   0.327071 0.220166 0.637478 -0.111213
C43   C     C_R   0.800909 0.249929 0.602327 -0.013660
C44   C     C_R   0.199090 0.750071 0.397673 -0.013661
C45   C     C_R   0.199089 0.249928 0.397672 -0.013661
C46   C     C_R   0.549927 0.395825 0.052811 -0.114105
C47   C     C_R   0.800910 0.750072 0.602329 -0.013663
C48   C     C_R   0.300909 0.749928 0.602329 -0.013663
C49   C     C_R   0.699090 0.250072 0.397670 -0.013664
C50   C     C_R   0.699091 0.749929 0.397672 -0.013661
C51   C     C_R   0.300909 0.250071 0.602328 -0.013661
C52   C     C_1   0.765031 0.249979 0.530234 -0.010525
C53   C     C_1   0.234968 0.750021 0.469765 -0.010526
C54   C     C_1   0.234968 0.249979 0.469764 -0.010526
C55   C     C_1   0.765032 0.750021 0.530237 -0.010526
C56   C     C_1   0.265031 0.749979 0.530237 -0.010526
C57   C     C_R   0.549930 0.604175 0.052804 -0.114125
C58   C     C_1   0.734969 0.250022 0.469763 -0.010527
C59   C     C_1   0.734969 0.749979 0.469765 -0.010526
C60   C     C_1   0.265031 0.250021 0.530236 -0.010526
C61   C     C_1   0.500000 0.515127 0.000002 0.152497
C62   C     C_1   0.500000 0.484873 0.000003 0.152494
C63   C     C_1   0.000001 0.015127 0.999996 0.152506
C64   C     C_1   0.000001 0.984873 0.999997 0.152497
C65   C     C_R   0.359753 0.250277 0.999979 0.511564
C66   C     C_R   0.640246 0.749723 0.000021 0.511563
C67   C     C_R   0.640247 0.250277 0.000021 0.511568
C68   C     C_R   0.450073 0.395825 0.947192 -0.114106
C69   C     C_R   0.359753 0.749723 0.999979 0.511565
C70   C     C_R   0.859754 0.750277 0.999979 0.511564
C71   C     C_R   0.140246 0.249723 0.000021 0.511566
C72   C     C_R   0.140246 0.750277 0.000021 0.511566
C73   C     C_R   0.859754 0.249722 0.999980 0.511567
C74   C     C_R   0.449672 0.568779 0.946826 0.220335
C75   C     C_R   0.550324 0.431220 0.053183 0.220342
C76   C     C_R   0.550328 0.568780 0.053176 0.220333
C77   C     C_R   0.449675 0.431220 0.946821 0.220342
C78   C     C_R   0.949691 0.068780 0.946802 0.220353
C79   C     C_R   0.950088 0.104175 0.947175 -0.114092
C80   C     C_R   0.050327 0.931221 0.053176 0.220340
C81   C     C_R   0.050312 0.068780 0.053191 0.220348
C82   C     C_R   0.949675 0.931220 0.946820 0.220335
C83   C     C_R   0.409135 0.250182 0.818070 0.544848
C84   C     C_R   0.590865 0.749818 0.181930 0.544846
C85   C     C_R   0.590865 0.250182 0.181930 0.544867
C86   C     C_R   0.409135 0.749818 0.818070 0.544857
C87   C     C_R   0.909135 0.750182 0.818070 0.544864
C88   C     C_R   0.090865 0.249818 0.181930 0.544846
C89   C     C_R   0.090865 0.750182 0.181931 0.544835
C90   C     C_R   0.049930 0.895825 0.052805 -0.114101
C91   C     C_R   0.909135 0.249818 0.818069 0.544843
C92   C     C_R   0.500000 0.340956 0.000000 0.513988
C93   C     C_R   0.500000 0.659044 1.000000 0.513989
C94   C     C_R   0.000000 0.840956 1.000000 0.513991
C95   C     C_R   0.000000 0.159044 1.000000 0.513980
C96   C     C_R   0.500000 0.159020 1.000000 0.518753
C97   C     C_R   0.500000 0.840980 0.000000 0.518751
C98   C     C_R   0.000000 0.659020 1.000000 0.518750
C99   C     C_R   1.000000 0.340980 0.000000 0.518749
C100  C     C_R   0.488084 0.931304 0.042876 0.207251
C101  C     C_R   0.049914 0.104175 0.052820 -0.114083
C102  C     C_R   0.511915 0.068696 0.957123 0.207252
C103  C     C_R   0.511916 0.931304 0.957124 0.207250
C104  C     C_R   0.488085 0.068696 0.042877 0.207251
C105  C     C_R   0.988084 0.431304 0.042876 0.207251
C106  C     C_R   0.011916 0.568696 0.957124 0.207251
C107  C     C_R   0.011916 0.431304 0.957124 0.207250
C108  C     C_R   0.988084 0.568696 0.042876 0.207251
C109  C     C_R   0.488177 0.895924 0.042574 -0.130850
C110  C     C_R   0.511822 0.104076 0.957425 -0.130849
C111  C     C_R   0.511823 0.895924 0.957426 -0.130849
C112  C     C_R   0.500000 0.378035 0.000001 -0.036173
C113  C     C_R   0.950072 0.895825 0.947192 -0.114115
C114  C     C_R   0.488178 0.104076 0.042574 -0.130849
C115  C     C_R   0.988177 0.395924 0.042574 -0.130849
C116  C     C_R   0.011823 0.604076 0.957426 -0.130849
C117  C     C_R   0.011823 0.395924 0.957426 -0.130849
C118  C     C_R   0.988177 0.604076 0.042573 -0.130849
C119  C     C_R   0.500000 0.878102 0.000000 -0.026263
C120  C     C_R   0.500000 0.121898 1.000000 -0.026263
C121  C     C_R   1.000000 0.378102 0.000000 -0.026264
C122  C     C_R   1.000000 0.621898 1.000000 -0.026264
C123  C     C_R   0.708467 0.357315 0.092022 0.268411
C124  C     C_R   0.291522 0.642683 0.907974 0.268399
C125  C     C_R   0.291528 0.357317 0.907982 0.268407
C126  C     C_R   0.708479 0.642683 0.092026 0.268396
C127  C     C_R   0.208476 0.857318 0.092020 0.268398
C128  C     C_R   0.791565 0.142681 0.908018 0.268426
C129  C     C_R   0.791522 0.857315 0.907969 0.268403
C130  C     C_R   0.208449 0.142682 0.091998 0.268425
C131  C     C_R   0.711456 0.332429 0.051017 0.041430
C132  C     C_R   0.000000 0.121965 0.999998 -0.036163
C133  C     C_R   0.288536 0.667570 0.948980 0.041425
C134  C     C_R   0.288541 0.332431 0.948986 0.041422
C135  C     C_R   0.711466 0.667570 0.051021 0.041424
C136  C     C_R   0.211463 0.832431 0.051015 0.041419
C137  C     C_R   0.788576 0.167571 0.949016 0.041439
C138  C     C_R   0.788533 0.832430 0.948976 0.041422
C139  C     C_R   0.211442 0.167570 0.050998 0.041424
C140  C     C_R   0.740606 0.301353 0.079736 0.021540
C141  C     C_R   0.259393 0.698647 0.920262 0.021541
C142  C     C_R   0.259396 0.301354 0.920267 0.021541
C143  C     C_R   0.000000 0.878036 0.999999 -0.036172
C144  C     C_R   0.740606 0.698647 0.079737 0.021542
C145  C     C_R   0.240605 0.801354 0.079734 0.021541
C146  C     C_R   0.759403 0.198639 0.920282 0.021544
C147  C     C_R   0.759393 0.801352 0.920261 0.021539
C148  C     C_R   0.240600 0.198642 0.079725 0.021540
C149  C     C_R   0.766469 0.295260 0.148248 -0.122341
C150  C     C_R   0.233534 0.704741 0.851752 -0.122337
C151  C     C_R   0.233536 0.295261 0.851755 -0.122334
C152  C     C_R   0.766464 0.704742 0.148247 -0.122333
C153  C     C_R   0.266462 0.795261 0.148245 -0.122334
C154  C     C_R   0.500000 0.948756 0.000000 0.106954
C155  C     C_R   0.733516 0.204720 0.851763 -0.122370
C156  C     C_R   0.733538 0.795256 0.851752 -0.122331
C157  C     C_R   0.266468 0.204731 0.148239 -0.122349
C158  C     C_R   0.763122 0.319585 0.188223 -0.145204
C159  C     C_R   0.236879 0.680415 0.811776 -0.145202
C160  C     C_R   0.236882 0.319586 0.811780 -0.145201
C161  C     C_R   0.763119 0.680416 0.188224 -0.145201
C162  C     C_R   0.263117 0.819588 0.188219 -0.145201
C163  C     C_R   0.736862 0.180390 0.811794 -0.145226
C164  C     C_R   0.736886 0.819580 0.811775 -0.145200
C165  C     C_R   0.500000 0.051244 1.000000 0.106954
C166  C     C_R   0.263118 0.180404 0.188209 -0.145211
C167  C     C_R   0.734455 0.350422 0.160506 0.106945
C168  C     C_R   0.265540 0.649577 0.839491 0.106945
C169  C     C_R   0.265544 0.350424 0.839498 0.106944
C170  C     C_R   0.734461 0.649577 0.160508 0.106946
C171  C     C_R   0.234458 0.850426 0.160502 0.106947
C172  C     C_R   0.765551 0.149561 0.839526 0.106964
C173  C     C_R   0.765544 0.850419 0.839488 0.106946
C174  C     C_R   0.234442 0.149570 0.160484 0.106958
C175  C     C_R   0.296782 0.773421 0.037667 -0.140586
C176  C     C_R   1.000000 0.448756 0.000000 0.106954
C177  C     C_R   0.703221 0.226576 0.962338 -0.140592
C178  C     C_R   0.703218 0.773421 0.962332 -0.140584
C179  C     C_R   0.296780 0.226577 0.037663 -0.140589
C180  C     C_R   0.796782 0.273421 0.037668 -0.140586
C181  C     C_R   0.203218 0.726579 0.962332 -0.140586
C182  C     C_R   0.203219 0.273422 0.962334 -0.140584
C183  C     C_R   0.796782 0.726579 0.037668 -0.140583
C184  C     C_R   0.500000 0.551302 0.000002 0.098815
C185  C     C_R   0.500000 0.448698 0.000002 0.098806
C186  C     C_R   0.000002 0.051302 0.999997 0.098833
C187  C     C_R   1.000000 0.551244 1.000000 0.106954
C188  C     C_R   0.000001 0.948698 0.999997 0.098812
C189  C     C_R   0.303387 0.749210 0.999422 0.023879
C190  C     C_R   0.696614 0.250790 0.000579 0.023880
C191  C     C_R   0.696613 0.749210 0.000577 0.023878
C192  C     C_R   0.303386 0.250790 0.999422 0.023879
C193  C     C_R   0.803389 0.249208 0.999426 0.023884
C194  C     C_R   0.196613 0.750791 0.000577 0.023880
C195  C     C_R   0.196612 0.249209 0.000576 0.023882
C196  C     C_R   0.803387 0.750790 0.999422 0.023878
C197  C     C_R   0.255927 0.725389 0.961375 -0.015006
C198  C     C_1   0.500000 0.984887 0.000000 0.150424
C199  C     C_R   0.744072 0.274611 0.038624 -0.015006
C200  C     C_R   0.744073 0.725389 0.038625 -0.015007
C201  C     C_R   0.255929 0.274612 0.961377 -0.015006
C202  C     C_R   0.755932 0.225385 0.961384 -0.015005
C203  C     C_R   0.244072 0.774612 0.038624 -0.015007
C204  C     C_R   0.244069 0.225386 0.038619 -0.015005
C205  C     C_R   0.755927 0.774611 0.961374 -0.015006
C206  C     C_R   0.809763 0.219949 0.637050 -0.120423
C207  C     C_R   0.190243 0.780049 0.362950 -0.120427
C208  C     C_R   0.190227 0.219948 0.362947 -0.120424
Cl1   Cl    Cl    0.856472 0.180215 0.747084 -0.064384
Cl2   Cl    Cl    0.268330 0.619457 0.787173 -0.039086
Cl3   Cl    Cl    0.268335 0.380545 0.787181 -0.039086
Cl4   Cl    Cl    0.731672 0.619457 0.212827 -0.039082
Cl5   Cl    Cl    0.231668 0.880547 0.212819 -0.039086
Cl6   Cl    Cl    0.768342 0.119435 0.787217 -0.039074
Cl7   Cl    Cl    0.768338 0.880536 0.787169 -0.039087
Cl8   Cl    Cl    0.231646 0.119448 0.212795 -0.039082
Cl9   Cl    Cl    0.679205 0.339426 0.964333 -0.087061
Cl10  Cl    Cl    0.320781 0.660571 0.035662 -0.087063
Cl11  Cl    Cl    0.320788 0.339428 0.035669 -0.087063
Cl12  Cl    Cl    0.143543 0.819783 0.252917 -0.064374
Cl13  Cl    Cl    0.679223 0.660570 0.964339 -0.087059
Cl14  Cl    Cl    0.179216 0.839428 0.964332 -0.087064
Cl15  Cl    Cl    0.820849 0.160587 0.035707 -0.087068
Cl16  Cl    Cl    0.820774 0.839431 0.035656 -0.087062
Cl17  Cl    Cl    0.179183 0.160579 0.964311 -0.087070
Cl18  Cl    Cl    0.143508 0.180213 0.252912 -0.064388
Cl19  Cl    Cl    0.856540 0.819790 0.747093 -0.064380
Cl20  Cl    Cl    0.356516 0.680212 0.747090 -0.064376
Cl21  Cl    Cl    0.643459 0.319789 0.252907 -0.064381
Cl22  Cl    Cl    0.643508 0.680214 0.252912 -0.064374
Cl23  Cl    Cl    0.356499 0.319787 0.747089 -0.064378
Cl24  Cl    Cl    0.731660 0.380541 0.212823 -0.039089
H1    H     H_    0.411623 0.617796 0.906021 0.164299
H2    H     H_    0.667344 0.208117 0.933240 0.150488
H3    H     H_    0.667339 0.791878 0.933229 0.150489
H4    H     H_    0.332656 0.208118 0.066762 0.150486
H5    H     H_    0.832659 0.291880 0.066767 0.150489
H6    H     H_    0.167340 0.708121 0.933230 0.150488
H7    H     H_    0.167342 0.291880 0.933235 0.150490
H8    H     H_    0.832660 0.708121 0.066770 0.150491
H9    H     H_    0.789661 0.196744 0.609441 0.134388
H10   H     H_    0.210351 0.803253 0.390559 0.134390
H11   H     H_    0.210323 0.196742 0.390556 0.134389
H12   H     H_    0.588370 0.382203 0.093992 0.164294
H13   H     H_    0.789714 0.803261 0.609446 0.134394
H14   H     H_    0.289694 0.696741 0.609444 0.134393
H15   H     H_    0.710285 0.303261 0.390554 0.134394
H16   H     H_    0.710324 0.696743 0.390557 0.134391
H17   H     H_    0.289680 0.303258 0.609444 0.134391
H18   H     H_    0.819645 0.302959 0.609758 0.109684
H19   H     H_    0.180341 0.697043 0.390243 0.109684
H20   H     H_    0.180367 0.302960 0.390243 0.109684
H21   H     H_    0.819594 0.697036 0.609758 0.109686
H22   H     H_    0.319611 0.802962 0.609759 0.109685
H23   H     H_    0.588376 0.617797 0.093980 0.164296
H24   H     H_    0.680408 0.197036 0.390240 0.109686
H25   H     H_    0.680369 0.802961 0.390243 0.109684
H26   H     H_    0.319626 0.197038 0.609757 0.109684
H27   H     H_    0.479004 0.882380 0.075601 0.144359
H28   H     H_    0.520994 0.117620 0.924398 0.144359
H29   H     H_    0.520996 0.882380 0.924399 0.144360
H30   H     H_    0.479006 0.117620 0.075602 0.144358
H31   H     H_    0.979003 0.382380 0.075601 0.144360
H32   H     H_    0.020996 0.617620 0.924399 0.144359
H33   H     H_    0.020996 0.382380 0.924399 0.144361
H34   H     H_    0.411630 0.382203 0.906011 0.164285
H35   H     H_    0.979004 0.617620 0.075601 0.144362
H36   H     H_    0.788797 0.271443 0.170543 0.129127
H37   H     H_    0.211212 0.728559 0.829459 0.129125
H38   H     H_    0.211212 0.271442 0.829460 0.129125
H39   H     H_    0.788785 0.728561 0.170541 0.129125
H40   H     H_    0.288784 0.771443 0.170540 0.129124
H41   H     H_    0.711170 0.228531 0.829457 0.129133
H42   H     H_    0.711218 0.771436 0.829460 0.129125
H43   H     H_    0.288802 0.228546 0.170540 0.129128
H44   H     H_    0.782961 0.314440 0.241018 0.128375
H45   H     H_    0.911655 0.117797 0.905986 0.164257
H46   H     H_    0.217045 0.685561 0.758982 0.128376
H47   H     H_    0.217046 0.314441 0.758986 0.128375
H48   H     H_    0.782953 0.685562 0.241017 0.128376
H49   H     H_    0.282950 0.814443 0.241013 0.128377
H50   H     H_    0.717004 0.185526 0.758993 0.128379
H51   H     H_    0.717054 0.814432 0.758982 0.128374
H52   H     H_    0.282961 0.185545 0.241006 0.128376
H53   H     H_    0.876767 0.328427 0.711361 0.323194
H54   H     H_    0.123213 0.671576 0.288639 0.323194
H55   H     H_    0.123252 0.328429 0.288640 0.323195
H56   H     H_    0.088374 0.882204 0.093983 0.164289
H57   H     H_    0.876691 0.671566 0.711362 0.323199
H58   H     H_    0.376718 0.828431 0.711363 0.323198
H59   H     H_    0.623314 0.171567 0.288636 0.323201
H60   H     H_    0.623253 0.828429 0.288639 0.323195
H61   H     H_    0.376739 0.171570 0.711361 0.323194
H62   H     H_    0.369641 0.566791 0.862031 0.351602
H63   H     H_    0.630348 0.433208 0.137989 0.351590
H64   H     H_    0.630358 0.566792 0.137972 0.351600
H65   H     H_    0.369651 0.433208 0.862015 0.351589
H66   H     H_    0.869693 0.066792 0.861973 0.351556
H67   H     H_    0.088346 0.117797 0.094011 0.164258
H68   H     H_    0.130353 0.933209 0.137977 0.351593
H69   H     H_    0.130311 0.066792 0.138020 0.351562
H70   H     H_    0.869648 0.933208 0.862019 0.351596
H71   H     H_    0.469087 0.933298 0.111156 0.334362
H72   H     H_    0.530910 0.066702 0.888842 0.334362
H73   H     H_    0.530913 0.933297 0.888844 0.334362
H74   H     H_    0.469089 0.066703 0.111158 0.334361
H75   H     H_    0.969086 0.433298 0.111156 0.334363
H76   H     H_    0.030913 0.566702 0.888844 0.334363
H77   H     H_    0.030913 0.433297 0.888844 0.334362
H78   H     H_    0.911627 0.882203 0.906014 0.164295
H79   H     H_    0.969087 0.566703 0.111156 0.334363
H80   H     H_    0.663353 0.389986 0.019034 0.340417
H81   H     H_    0.336626 0.610010 0.980958 0.340422
H82   H     H_    0.336636 0.389990 0.980970 0.340417
H83   H     H_    0.663368 0.610012 0.019041 0.340426
H84   H     H_    0.163390 0.889995 0.019038 0.340426
H85   H     H_    0.836738 0.110031 0.981028 0.340404
H86   H     H_    0.836624 0.889990 0.980952 0.340420
H87   H     H_    0.163326 0.110017 0.019002 0.340408
H88   H     H_    0.332660 0.791879 0.066769 0.150488
O1    O     O_3   0.500000 0.249970 0.000000 -0.453563
O2    O     O_R   0.096160 0.269650 0.960760 -0.549876
O3    O     O_R   0.096160 0.730350 0.960760 -0.549881
O4    O     O_R   0.903840 0.269650 0.039240 -0.549877
O5    O     O_R   0.394820 0.269600 0.850350 -0.547254
O6    O     O_R   0.605180 0.730400 0.149650 -0.547254
O7    O     O_R   0.605180 0.269600 0.149650 -0.547254
O8    O     O_R   0.394820 0.730400 0.850350 -0.547255
O9    O     O_R   0.894820 0.769600 0.850350 -0.547254
O10   O     O_R   0.105180 0.230400 0.149650 -0.547254
O11   O     O_R   0.105180 0.769600 0.149650 -0.547258
O12   O     O_3   0.500000 0.750030 0.000000 -0.453563
O13   O     O_R   0.894820 0.230400 0.850350 -0.547252
O14   O     O_R   0.450030 0.324790 0.960750 -0.538574
O15   O     O_R   0.549970 0.675210 0.039250 -0.538578
O16   O     O_R   0.549970 0.324790 0.039250 -0.538574
O17   O     O_R   0.450030 0.675210 0.960750 -0.538576
O18   O     O_R   0.950030 0.824790 0.960750 -0.538576
O19   O     O_R   0.049970 0.175210 0.039250 -0.538567
O20   O     O_R   0.049970 0.824790 0.039250 -0.538572
O21   O     O_R   0.950030 0.175210 0.960750 -0.538574
O22   O     O_R   0.489260 0.175140 0.039240 -0.533203
O23   O     O_3   0.000000 0.749970 0.000000 -0.453564
O24   O     O_R   0.510740 0.824860 0.960760 -0.533203
O25   O     O_R   0.510740 0.175140 0.960760 -0.533203
O26   O     O_R   0.489260 0.824860 0.039240 -0.533204
O27   O     O_R   0.989260 0.675140 0.039240 -0.533203
O28   O     O_R   0.010740 0.324860 0.960760 -0.533203
O29   O     O_R   0.010740 0.675140 0.960760 -0.533204
O30   O     O_R   0.989260 0.324860 0.039240 -0.533204
O31   O     O_R   0.455530 0.230360 0.850350 -0.483707
O32   O     O_R   0.544470 0.769640 0.149650 -0.483703
O33   O     O_R   0.544470 0.230360 0.149650 -0.483721
O34   O     O_3   0.000000 0.250030 0.000000 -0.453566
O35   O     O_R   0.455530 0.769640 0.850350 -0.483711
O36   O     O_R   0.955530 0.730360 0.850350 -0.483721
O37   O     O_R   0.044470 0.269640 0.149650 -0.483704
O38   O     O_R   0.044470 0.730360 0.149650 -0.483690
O39   O     O_R   0.955530 0.269640 0.850350 -0.483697
O40   O     O_R   0.364600 0.269590 0.960770 -0.536393
O41   O     O_R   0.635400 0.730410 0.039230 -0.536395
O42   O     O_R   0.635400 0.269590 0.039230 -0.536393
O43   O     O_R   0.364600 0.730410 0.960770 -0.536393
O44   O     O_R   0.864600 0.769590 0.960770 -0.536394
O45   O     O_R   0.403840 0.230350 0.039240 -0.549881
O46   O     O_R   0.135400 0.230410 0.039230 -0.536393
O47   O     O_R   0.135400 0.769590 0.039230 -0.536392
O48   O     O_R   0.864600 0.230410 0.960770 -0.536394
O49   O     O_3   0.887640 0.309696 0.743630 -0.674333
O50   O     O_3   0.112345 0.690306 0.256370 -0.674332
O51   O     O_3   0.112374 0.309698 0.256370 -0.674338
O52   O     O_3   0.887585 0.690299 0.743632 -0.674353
O53   O     O_3   0.387605 0.809699 0.743632 -0.674349
O54   O     O_3   0.612418 0.190299 0.256367 -0.674359
O55   O     O_3   0.612374 0.809698 0.256370 -0.674338
O56   O     O_R   0.596160 0.769650 0.960760 -0.549878
O57   O     O_3   0.387620 0.190301 0.743630 -0.674340
O58   O     O_3   0.400941 0.550790 0.895265 -0.646186
O59   O     O_3   0.599051 0.449209 0.104752 -0.646185
O60   O     O_3   0.599059 0.550791 0.104739 -0.646185
O61   O     O_3   0.400948 0.449209 0.895253 -0.646184
O62   O     O_3   0.900979 0.050791 0.895220 -0.646201
O63   O     O_3   0.099056 0.949210 0.104740 -0.646186
O64   O     O_3   0.099025 0.050791 0.104773 -0.646201
O65   O     O_3   0.900946 0.949209 0.895254 -0.646186
O66   O     O_3   0.476530 0.949296 0.084418 -0.660318
O67   O     O_R   0.596160 0.230350 0.960760 -0.549877
O68   O     O_3   0.523468 0.050704 0.915580 -0.660317
O69   O     O_3   0.523470 0.949296 0.915582 -0.660316
O70   O     O_3   0.476532 0.050704 0.084419 -0.660319
O71   O     O_3   0.976530 0.449296 0.084418 -0.660317
O72   O     O_3   0.023470 0.550704 0.915582 -0.660316
O73   O     O_3   0.023470 0.449296 0.915582 -0.660316
O74   O     O_3   0.976530 0.550704 0.084418 -0.660317
O75   O     O_3   0.681229 0.388430 0.067858 -0.690359
O76   O     O_3   0.318753 0.611567 0.932136 -0.690366
O77   O     O_3   0.318762 0.388433 0.932146 -0.690349
O78   O     O_R   0.403840 0.769650 0.039240 -0.549876
O79   O     O_3   0.681250 0.611567 0.067864 -0.690368
O80   O     O_3   0.181246 0.888435 0.067856 -0.690363
O81   O     O_3   0.818826 0.111573 0.932197 -0.690327
O82   O     O_3   0.818752 0.888432 0.932130 -0.690361
O83   O     O_3   0.181201 0.111570 0.067826 -0.690325
O84   O     O_R   0.903840 0.730350 0.039240 -0.549874
Zn1   Zn    Zn3+2 0.515340 0.221940 0.943940 0.975469
Zn2   Zn    Zn3+2 0.571400 0.722000 0.056060 0.951282
Zn3   Zn    Zn3+2 0.571400 0.278000 0.056060 0.951290
Zn4   Zn    Zn3+2 0.428600 0.722000 0.943940 0.951287
Zn5   Zn    Zn3+2 0.928600 0.778000 0.943940 0.951288
Zn6   Zn    Zn3+2 0.071400 0.222000 0.056060 0.951285
Zn7   Zn    Zn3+2 0.071400 0.778000 0.056060 0.951285
Zn8   Zn    Zn3+2 0.928600 0.222000 0.943940 0.951284
Zn9   Zn    Zn3+2 0.484660 0.778060 0.056060 0.975469
Zn10  Zn    Zn3+2 0.484660 0.221940 0.056060 0.975463
Zn11  Zn    Zn3+2 0.515340 0.778060 0.943940 0.975466
Zn12  Zn    Zn3+2 0.015340 0.721940 0.943940 0.975463
Zn13  Zn    Zn3+2 0.984660 0.278060 0.056060 0.975467
Zn14  Zn    Zn3+2 0.984660 0.721940 0.056060 0.975472
Zn15  Zn    Zn3+2 0.015340 0.278060 0.943940 0.975469
Zn16  Zn    Zn3+2 0.428600 0.278000 0.943940 0.951284

loop_
_geom_bond_atom_site_label_1
_geom_bond_atom_site_label_2
_ccdc_geom_bond_type
C181  H6    S    
H68   O63   S    
C28   O51   S    
C46   C112  A    
O5    Zn16  S    
O12   Zn11  S    
O4    Zn13  S    
C130  C174  A    
C82   O65   S    
H79   O74   S    
C124  C133  A    
C50   C59   S    
C57   C76   A    
C6    H16   S    
C91   O13   A    
C55   C59   T    
C72   C194  S    
O12   Zn4   S    
C66   O41   A    
C134  Cl11  S    
C169  Cl3   S    
C68   C77   A    
O23   Zn12  S    
C73   O48   A    
C87   O36   A    
O24   Zn11  S    
C147  C205  S    
H85   O81   S    
C97   O26   A    
C111  H29   S    
C131  C140  A    
C88   O10   A    
C124  C168  A    
C44   C53   S    
C162  C171  A    
C105  C176  A    
C182  H7    S    
C67   O42   A    
C78   C186  A    
C4    C12   A    
C125  C169  A    
C156  H42   S    
C90   C143  A    
C99   C121  S    
C53   C56   T    
C26   O49   S    
C100  C109  A    
C129  C173  A    
C141  C197  S    
C172  Cl6   S    
C190  C199  A    
C127  O80   S    
C95   O21   A    
C11   C20   A    
C166  C174  A    
C23   C84   S    
H71   O66   S    
C142  C201  S    
C137  C146  A    
C127  C136  A    
C9    C207  A    
C145  C203  S    
C98   O27   A    
C97   O24   A    
C142  C151  A    
C109  H27   S    
O29   Zn12  S    
C110  H28   S    
C116  H32   S    
C144  C200  S    
C138  Cl16  S    
O38   Zn14  S    
C63   C186  S    
C183  C196  A    
C164  C173  A    
C34   H18   S    
C181  C194  A    
C2    C165  S    
C52   C58   T    
C75   O59   S    
O43   Zn4   S    
C9    Cl12  S    
C15   Cl22  S    
C90   H56   S    
C95   C132  S    
O23   Zn7   S    
C36   C44   A    
C110  C120  A    
C71   O46   A    
C84   O32   A    
C189  C197  A    
C16   C25   A    
C21   C86   S    
C84   O6    A    
C18   C89   S    
C23   C32   A    
C86   O8    A    
C161  H48   S    
O17   Zn4   S    
C8    C17   A    
C114  H30   S    
C72   O47   A    
H84   O80   S    
C33   O57   S    
O1    Zn16  S    
O2    Zn15  S    
C3    C11   A    
C7    C51   A    
C118  H35   S    
C40   H24   S    
C101  C132  A    
C136  Cl14  S    
C164  H51   S    
C1    C93   S    
O9    Zn5   S    
C25   C83   S    
C32   O55   S    
C78   O62   S    
C107  O73   S    
O14   Zn16  S    
C115  C121  A    
C182  C201  A    
C17   C91   S    
C208  H11   S    
C181  C197  A    
H70   O65   S    
O19   Zn6   S    
C81   C101  A    
C65   O45   A    
C129  O82   S    
C24   C187  S    
C126  C170  A    
C33   C42   A    
C173  Cl7   S    
C101  H67   S    
C89   O38   A    
O20   Zn7   S    
C43   C52   S    
C92   O14   A    
C107  C176  A    
C127  C171  A    
C40   C49   A    
C20   C87   S    
C111  C119  A    
C68   C112  A    
C22   C85   S    
C10   C208  A    
C104  C165  A    
H75   O71   S    
C124  O76   S    
C67   O67   A    
O44   Zn5   S    
C29   C38   A    
O56   Zn11  S    
C32   C41   A    
O23   Zn5   S    
O3    Zn12  S    
O31   Zn1   S    
C149  C158  A    
C152  C161  A    
H58   O53   S    
C103  O69   S    
C43   C206  A    
C108  O74   S    
O45   Zn10  S    
C46   C75   A    
C141  C150  A    
C135  Cl13  S    
O34   Zn8   S    
C139  C148  A    
C96   O25   A    
C27   O50   S    
H65   O61   S    
C191  C200  A    
C155  C163  A    
O35   Zn11  S    
C44   C207  A    
H81   O76   S    
C82   C188  A    
C76   O60   S    
C97   C119  S    
O46   Zn6   S    
C1    C57   A    
C183  H8    S    
O36   Zn12  S    
C103  C154  A    
C71   C195  S    
C192  C201  A    
C38   H21   S    
C88   O37   A    
C80   C188  A    
C170  Cl4   S    
C6    C50   A    
C41   H25   S    
C19   C28   A    
O22   Zn10  S    
C64   C188  S    
C104  O70   S    
H61   O57   S    
C80   O63   S    
C102  O68   S    
C45   C208  A    
C62   C185  S    
O48   Zn8   S    
C100  O66   S    
C128  O81   S    
C206  H9    S    
C126  O79   S    
C148  C204  S    
C162  H49   S    
C100  C154  A    
C98   C122  S    
H73   O69   S    
C61   C184  S    
C177  C190  A    
C105  C115  A    
C34   C43   A    
C82   C113  A    
O1    Zn10  S    
O40   Zn16  S    
C94   O20   A    
C177  H2    S    
C92   O16   A    
C182  C195  A    
C16   Cl23  S    
O39   Zn15  S    
C183  C200  A    
C14   C22   A    
O37   Zn13  S    
C146  C202  S    
C66   O56   A    
C28   C37   A    
C3    C47   A    
C107  C117  A    
C30   C39   A    
C174  Cl8   S    
C148  C157  A    
C93   O17   A    
C61   C62   T    
C63   C64   T    
C93   O15   A    
C98   O29   A    
C9    C18   A    
C70   C196  S    
C150  C159  A    
C69   O78   A    
C140  C149  A    
C117  H33   S    
C180  C193  A    
C25   C33   A    
C125  C134  A    
O34   Zn6   S    
C35   C74   A    
C73   C193  S    
C83   O5    A    
C81   C186  A    
O6    Zn2   S    
C46   H12   S    
C83   O31   A    
C99   O30   A    
C167  Cl24  S    
C86   O35   A    
C116  C122  A    
C7    H17   S    
H77   O73   S    
C29   O52   S    
C106  C187  A    
O13   Zn8   S    
C4    C48   A    
C12   Cl20  S    
C70   O84   A    
C152  H39   S    
C77   O61   S    
C31   C40   A    
O10   Zn6   S    
C103  C111  A    
H87   O83   S    
H53   O49   S    
C87   O9    A    
C146  C155  A    
C31   O54   S    
C158  C167  A    
C160  C169  A    
O27   Zn14  S    
C35   H1    S    
C30   O53   S    
C68   H34   S    
C72   O3    A    
O32   Zn9   S    
C130  C139  A    
H55   O51   S    
C94   O18   A    
H64   O60   S    
C85   O33   A    
C168  Cl2   S    
C19   C88   S    
H74   O70   S    
C207  H10   S    
C92   C112  S    
C195  C204  A    
C65   O40   A    
C193  C202  A    
C113  C143  A    
C106  C116  A    
C57   H23   S    
C134  C142  A    
C163  H50   S    
C10   C19   A    
C95   O19   A    
C69   O43   A    
C8    C206  A    
C147  C156  A    
C4    H14   S    
C5    C14   A    
C42   H26   S    
C7    C16   A    
C126  C135  A    
C102  C110  A    
C153  H40   S    
C17   C26   A    
C41   C50   A    
C99   O28   A    
C109  C119  A    
C73   O4    A    
H57   O52   S    
C123  C131  A    
C133  Cl10  S    
C125  O77   S    
C157  H43   S    
C151  H38   S    
C158  H44   S    
C27   C36   A    
C37   H20   S    
C21   C30   A    
C137  Cl15  S    
C133  C141  A    
C113  H78   S    
C131  Cl9   S    
C153  C162  A    
C139  Cl17  S    
O84   Zn14  S    
O33   Zn10  S    
O26   Zn9   S    
C175  C203  A    
H82   O77   S    
C154  C198  S    
C89   O11   A    
C5    C49   A    
H66   O62   S    
C171  Cl5   S    
O11   Zn7   S    
O23   Zn14  S    
C74   C184  A    
C144  C152  A    
H86   O82   S    
C3    H13   S    
C149  H36   S    
O47   Zn7   S    
O21   Zn8   S    
C114  C120  A    
C39   C48   A    
C13   C176  S    
O1    Zn3   S    
C77   C185  A    
C108  C187  A    
C166  H52   S    
C155  H41   S    
O34   Zn15  S    
C39   H22   S    
C54   C60   T    
O41   Zn2   S    
C94   C143  S    
C140  C199  S    
C81   O64   S    
C118  C122  A    
C178  H3    S    
C194  C203  A    
C178  C205  A    
C36   H19   S    
H63   O59   S    
C159  C168  A    
C196  C205  A    
H60   O55   S    
C117  C121  A    
C14   Cl21  S    
C6    C15   A    
O18   Zn5   S    
C26   C34   A    
O7    Zn3   S    
C179  C192  A    
C91   O39   A    
O8    Zn4   S    
C136  C145  A    
C42   C51   A    
C123  C167  A    
C15   C23   A    
C130  O83   S    
H83   O79   S    
C70   O44   A    
O1    Zn1   S    
C75   C185  A    
C160  H47   S    
C5    H15   S    
C150  H37   S    
C67   C190  S    
C20   C29   A    
O12   Zn9   S    
C22   C31   A    
C129  C138  A    
C108  C118  A    
C96   O22   A    
C69   C189  S    
H80   O75   S    
C78   C79   A    
C12   C21   A    
C49   C58   S    
C13   C24   T    
C128  C137  A    
C163  C172  A    
C65   C192  S    
O12   Zn2   S    
C138  C147  A    
C79   H45   S    
C66   C191  S    
H69   O64   S    
C179  H4    S    
O30   Zn13  S    
C38   C47   A    
H62   O58   S    
O16   Zn3   S    
C115  H31   S    
O15   Zn2   S    
C104  C114  A    
C161  C170  A    
O28   Zn15  S    
C11   Cl19  S    
C135  C144  A    
C45   C54   S    
C128  C172  A    
C102  C165  A    
H76   O72   S    
O78   Zn9   S    
C8    Cl1   S    
C123  O75   S    
O34   Zn13  S    
C1    C35   A    
C47   C55   S    
H54   O50   S    
C48   C56   S    
C71   O2    A    
O42   Zn3   S    
C2    C198  T    
C96   C120  S    
C18   C27   A    
C157  C166  A    
C175  C189  A    
C51   C60   S    
C105  O71   S    
C151  C160  A    
C106  O72   S    
C145  C153  A    
C180  C199  A    
C178  C191  A    
C180  H5    S    
C79   C132  A    
O25   Zn1   S    
C80   C90   A    
C175  H88   S    
O67   Zn1   S    
C179  C204  A    
C156  C164  A    
C10   Cl18  S    
C159  H46   S    
C177  C202  A    
H72   O68   S    
H59   O54   S    
C76   C184  A    
C37   C45   A    
C85   O7    A    
C74   O58   S    
