data_mof_unit_pretest_1804.cif
_audit_creation_date              2012-12-10T18:46:45-0500
_audit_creation_method            fapswitch 2.2
_symmetry_space_group_name_H-M    P1
_symmetry_Int_Tables_number       1
_space_group_crystal_system       triclinic
_cell_length_a                    18.146871
_cell_length_b                    18.115564
_cell_length_c                    51.363834
_cell_angle_alpha                 89.926082
_cell_angle_beta                  90.074735
_cell_angle_gamma                 90.001472
_cell_volume                      16885.3596133

loop_
_atom_site_label
_atom_site_type_symbol
_atom_type_description
_atom_site_fract_x
_atom_site_fract_y
_atom_site_fract_z
_atom_type_partial_charge
C1    C     C_R   0.000008 0.499957 0.820750 0.920593
C2    C     C_R   0.450553 0.873915 0.013683 0.362630
C3    C     C_3   0.267433 0.301145 0.732369 0.405587
C4    C     C_3   0.301312 0.731866 0.267477 0.406004
C5    C     C_3   0.698930 0.267902 0.732405 0.405504
C6    C     C_3   0.267640 0.300970 0.267641 0.405349
C7    C     C_3   0.732430 0.699098 0.732327 0.405537
C8    C     C_3   0.219968 0.816252 0.743971 -0.349987
C9    C     C_3   0.780011 0.183752 0.256054 -0.337871
C10   C     C_3   0.183913 0.219746 0.744016 -0.349997
C11   C     C_3   0.781216 0.744467 0.273869 -0.332933
C12   C     C_3   0.779964 0.183805 0.743936 -0.350054
C13   C     C_R   0.873666 0.548221 0.986240 0.363047
C14   C     C_3   0.220138 0.816120 0.256220 -0.344624
C15   C     C_3   0.816073 0.780268 0.744056 -0.349853
C16   C     C_3   0.183946 0.219759 0.255989 -0.346984
C17   C     C_3   0.719989 0.316248 0.243946 -0.337869
C18   C     C_3   0.280032 0.683747 0.756029 -0.349986
C19   C     C_3   0.718784 0.755533 0.226131 -0.332931
C20   C     C_3   0.316087 0.280254 0.755984 -0.349998
C21   C     C_3   0.279862 0.683880 0.243780 -0.344623
C22   C     C_3   0.720036 0.316195 0.756063 -0.350053
C23   C     C_3   0.316054 0.280241 0.244011 -0.346985
C24   C     C_R   0.126629 0.451909 0.013756 0.362841
C25   C     C_3   0.683927 0.719732 0.755944 -0.349854
C26   C     C_3   0.301820 0.800852 0.749987 -0.271085
C27   C     C_3   0.698174 0.199154 0.250011 -0.276705
C28   C     C_3   0.199061 0.301730 0.750029 -0.271380
C29   C     C_3   0.801742 0.699098 0.249541 -0.273538
C30   C     C_3   0.698181 0.199162 0.749990 -0.271558
C31   C     C_3   0.301831 0.800825 0.249999 -0.276444
C32   C     C_3   0.800880 0.698213 0.749998 -0.271286
C33   C     C_3   0.199124 0.301791 0.250000 -0.273149
C34   C     C_3   0.801826 0.300845 0.249989 -0.276705
C35   C     C_R   0.450684 0.873894 0.986352 0.362937
C36   C     C_3   0.198180 0.699148 0.750013 -0.271085
C37   C     C_3   0.698258 0.800902 0.250459 -0.273537
C38   C     C_3   0.300939 0.198270 0.749971 -0.271380
C39   C     C_3   0.198168 0.699175 0.250001 -0.276444
C40   C     C_3   0.801819 0.300838 0.750009 -0.271557
C41   C     C_3   0.300876 0.198209 0.250000 -0.273149
C42   C     C_3   0.699120 0.801787 0.750002 -0.271285
C43   C     C_3   0.280862 0.753249 0.773520 0.361530
C44   C     C_3   0.719192 0.246711 0.226471 0.357800
C45   C     C_3   0.246793 0.280741 0.773524 0.361538
C46   C     C_R   0.548729 0.126555 0.013650 0.362830
C47   C     C_3   0.800969 0.768977 0.232541 0.401119
C48   C     C_3   0.719389 0.246521 0.773533 0.361747
C49   C     C_3   0.280282 0.753771 0.226419 0.359844
C50   C     C_3   0.753307 0.718952 0.773500 0.361376
C51   C     C_3   0.246609 0.280957 0.226486 0.360777
C52   C     C_3   0.780808 0.253289 0.273529 0.357798
C53   C     C_3   0.219138 0.746751 0.726480 0.361528
C54   C     C_3   0.699031 0.731022 0.267459 0.401118
C55   C     C_3   0.253207 0.219259 0.726476 0.361538
C56   C     C_3   0.219718 0.746228 0.273581 0.359842
C57   C     C_R   0.126610 0.451802 0.986426 0.362851
C58   C     C_3   0.780611 0.253479 0.726467 0.361746
C59   C     C_3   0.253391 0.219043 0.273514 0.360778
C60   C     C_3   0.746693 0.781048 0.726500 0.361375
C61   C     C_R   0.472459 0.940507 0.944819 0.613109
C62   C     C_R   0.527187 0.059855 0.055179 0.612624
C63   C     C_R   0.059855 0.472644 0.944867 0.613051
C64   C     C_R   0.940403 0.527398 0.055130 0.612564
C65   C     C_R   0.527556 0.059848 0.944814 0.613074
C66   C     C_R   0.471959 0.940576 0.055189 0.612656
C67   C     C_R   0.940373 0.527072 0.944771 0.613097
C68   C     C_R   0.873679 0.548319 0.013569 0.362965
C69   C     C_R   0.059916 0.473036 0.055225 0.613465
C70   C     C_R   0.972805 0.440148 0.444821 0.612618
C71   C     C_R   0.027548 0.559489 0.555181 0.613103
C72   C     C_R   0.559622 0.972657 0.444870 0.612554
C73   C     C_R   0.440119 0.027301 0.555133 0.613042
C74   C     C_R   0.028048 0.559420 0.444811 0.612650
C75   C     C_R   0.972436 0.440155 0.555186 0.613069
C76   C     C_R   0.440059 0.026908 0.444775 0.613455
C77   C     C_R   0.559652 0.972983 0.555228 0.613088
C78   C     C_R   0.525805 0.063023 0.972332 -0.163011
C79   C     C_R   0.049466 0.626078 0.486317 0.362623
C80   C     C_R   0.473660 0.937414 0.027670 -0.162970
C81   C     C_R   0.937230 0.525489 0.972290 -0.163079
C82   C     C_R   0.063060 0.474625 0.027706 -0.163262
C83   C     C_R   0.473919 0.937376 0.972344 -0.162986
C84   C     C_R   0.525591 0.063037 0.027656 -0.162839
C85   C     C_R   0.063026 0.474418 0.972385 -0.162894
C86   C     C_R   0.937253 0.525673 0.027611 -0.162110
C87   C     C_R   0.026349 0.562582 0.472330 -0.162976
C88   C     C_R   0.974186 0.436981 0.527668 -0.163016
C89   C     C_R   0.436913 0.025308 0.472294 -0.163261
C90   C     C_R   0.951137 0.373461 0.513680 0.362810
C91   C     C_R   0.562797 0.974578 0.527710 -0.163077
C92   C     C_R   0.974400 0.436966 0.472344 -0.162844
C93   C     C_R   0.026090 0.562620 0.527656 -0.162991
C94   C     C_R   0.562774 0.974394 0.472389 -0.162109
C95   C     C_R   0.436948 0.025515 0.527614 -0.162892
C96   C     C_R   0.499800 0.000207 0.986178 -0.092838
C97   C     C_R   0.499682 0.000219 0.013822 -0.092830
C98   C     C_R   0.000135 0.500003 0.986177 -0.092820
C99   C     C_R   0.000149 0.500101 0.013819 -0.093024
C100  C     C_R   0.000318 0.499780 0.486177 -0.092831
C101  C     C_R   0.373317 0.047947 0.486244 0.362833
C102  C     C_R   0.000200 0.499793 0.513821 -0.092839
C103  C     C_R   0.499851 0.999899 0.486181 -0.093026
C104  C     C_R   0.499865 0.999996 0.513822 -0.092822
C105  C     C_R   0.000009 0.500042 0.179249 0.914851
C106  C     C_R   0.626388 0.951922 0.513760 0.363039
C107  C     C_R   0.951253 0.373452 0.486349 0.362823
C108  C     C_R   0.049335 0.626098 0.513648 0.362929
C109  C     C_R   0.626375 0.951825 0.486431 0.362957
C110  C     C_R   0.373336 0.048054 0.513574 0.362843
C111  C     C_R   0.046837 0.452395 0.609657 -0.096479
C112  C     C_R   0.953610 0.547579 0.390374 -0.095490
C113  C     C_R   0.547052 0.047440 0.609602 -0.096264
C114  C     C_R   0.452863 0.952437 0.390387 -0.098351
C115  C     C_R   0.952868 0.547254 0.609556 -0.096432
C116  C     C_R   0.500043 0.000016 0.820737 0.919419
C117  C     C_R   0.047066 0.452211 0.390400 -0.096003
C118  C     C_R   0.452705 0.952954 0.609598 -0.096410
C119  C     C_R   0.546957 0.047174 0.390424 -0.097630
C120  C     C_R   0.546392 0.952423 0.109626 -0.095487
C121  C     C_R   0.453161 0.047602 0.890343 -0.096475
C122  C     C_R   0.047151 0.547549 0.109613 -0.098352
C123  C     C_R   0.952933 0.452574 0.890398 -0.096266
C124  C     C_R   0.452931 0.047787 0.109600 -0.095998
C125  C     C_R   0.547133 0.952748 0.890444 -0.096427
C126  C     C_R   0.953030 0.452839 0.109576 -0.097635
C127  C     C_R   0.499950 0.000009 0.179265 0.921118
C128  C     C_R   0.047308 0.547032 0.890402 -0.096414
C129  C     C_R   0.047203 0.452022 0.636814 0.346652
C130  C     C_R   0.953170 0.548045 0.363217 0.348807
C131  C     C_R   0.547493 0.047764 0.636759 0.346550
C132  C     C_R   0.452494 0.952116 0.363230 0.346841
C133  C     C_R   0.952511 0.547698 0.636715 0.346642
C134  C     C_R   0.047326 0.451851 0.363241 0.345127
C135  C     C_R   0.452317 0.952560 0.636753 0.346528
C136  C     C_R   0.547412 0.047581 0.363268 0.342776
C137  C     C_R   0.546832 0.951957 0.136783 0.348807
C138  C     C_R   0.499991 0.999958 0.320751 0.914839
C139  C     C_R   0.452795 0.047976 0.863186 0.346651
C140  C     C_R   0.047519 0.547871 0.136770 0.346844
C141  C     C_R   0.952494 0.452249 0.863241 0.346552
C142  C     C_R   0.452671 0.048147 0.136759 0.345127
C143  C     C_R   0.547491 0.952304 0.863285 0.346642
C144  C     C_R   0.952575 0.452432 0.136732 0.342777
C145  C     C_R   0.047696 0.547427 0.863247 0.346530
C146  C     C_R   0.999875 0.499893 0.650645 -0.215281
C147  C     C_R   0.000179 0.499958 0.349351 -0.210986
C148  C     C_R   0.499929 0.000132 0.650636 -0.215925
C149  C     C_R   0.499992 0.000043 0.679250 0.920580
C150  C     C_R   0.499974 0.999872 0.349368 -0.217877
C151  C     C_R   0.499821 0.000042 0.150649 -0.210991
C152  C     C_R   0.500125 0.000107 0.849354 -0.215285
C153  C     C_R   0.000026 0.500127 0.150632 -0.217861
C154  C     C_R   0.000070 0.499868 0.849364 -0.215910
C155  C     C_R   0.999863 0.499816 0.595993 0.129634
C156  C     C_R   0.000374 0.499862 0.404003 0.129393
C157  C     C_R   0.499873 0.000205 0.595987 0.129454
C158  C     C_R   0.499889 0.999787 0.404017 0.129853
C159  C     C_R   0.499626 0.000138 0.095997 0.129387
C160  C     C_R   0.000050 0.499991 0.320735 0.921121
C161  C     C_R   0.500137 0.000183 0.904007 0.129627
C162  C     C_R   0.000111 0.500213 0.095983 0.129876
C163  C     C_R   0.000127 0.499795 0.904012 0.129477
C164  C     C_R   0.141806 0.358582 0.750348 0.921651
C165  C     C_R   0.858353 0.641583 0.249554 0.924926
C166  C     C_R   0.641377 0.141871 0.750327 0.922296
C167  C     C_R   0.358633 0.858118 0.249667 0.924906
C168  C     C_R   0.858161 0.641385 0.750331 0.921722
C169  C     C_R   0.141841 0.358617 0.249667 0.922421
C170  C     C_R   0.358640 0.858157 0.750324 0.921012
C171  C     C_R   0.999957 0.499984 0.679263 0.919421
C172  C     C_R   0.641357 0.141846 0.249674 0.928347
C173  C     C_R   0.641647 0.858417 0.250446 0.924924
C174  C     C_R   0.358194 0.141418 0.749652 0.921650
C175  C     C_R   0.141367 0.641881 0.250333 0.924909
C176  C     C_R   0.858623 0.358129 0.749673 0.922298
C177  C     C_R   0.358159 0.141383 0.250333 0.922419
C178  C     C_R   0.641838 0.858615 0.749668 0.921721
C179  C     C_R   0.858643 0.358154 0.250325 0.928349
C180  C     C_R   0.141359 0.641842 0.749676 0.921015
C181  C     C_3   0.199115 0.767717 0.767620 0.405608
C182  C     C_R   0.548844 0.126546 0.986320 0.362817
C183  C     C_3   0.800925 0.232241 0.232398 0.403364
C184  C     C_3   0.232567 0.198855 0.767631 0.405586
C185  C     C_3   0.779799 0.814541 0.256605 0.355708
C186  C     C_3   0.801070 0.232098 0.767594 0.405504
C187  C     C_3   0.198688 0.768134 0.232523 0.406004
C188  C     C_3   0.767570 0.800902 0.767673 0.405534
C189  C     C_3   0.232360 0.199029 0.232359 0.405348
C190  C     C_3   0.699075 0.267759 0.267602 0.403363
C191  C     C_3   0.300885 0.732283 0.732379 0.405607
C192  C     C_3   0.720201 0.685458 0.243394 0.355708
Cl1   Cl    Cl    0.132195 0.792855 0.791390 -0.359430
Cl2   Cl    Cl    0.367805 0.707145 0.708610 -0.359426
Cl3   Cl    Cl    0.681159 0.598774 0.234551 -0.441597
Cl4   Cl    Cl    0.292276 0.368379 0.708570 -0.359344
Cl5   Cl    Cl    0.368884 0.706173 0.291029 -0.334670
Cl6   Cl    Cl    0.631743 0.293275 0.708676 -0.359751
Cl7   Cl    Cl    0.292695 0.368000 0.291440 -0.354940
Cl8   Cl    Cl    0.707475 0.632166 0.708482 -0.359457
Cl9   Cl    Cl    0.322691 0.758119 0.804868 -0.410241
Cl10  Cl    Cl    0.677432 0.241797 0.195112 -0.407064
Cl11  Cl    Cl    0.241948 0.322390 0.804877 -0.410347
Cl12  Cl    Cl    0.867906 0.207041 0.208658 -0.353814
Cl13  Cl    Cl    0.868278 0.795856 0.209123 -0.357705
Cl14  Cl    Cl    0.677890 0.241334 0.804896 -0.410196
Cl15  Cl    Cl    0.321339 0.759336 0.194992 -0.404728
Cl16  Cl    Cl    0.758269 0.676871 0.804818 -0.410685
Cl17  Cl    Cl    0.241538 0.322914 0.195148 -0.407876
Cl18  Cl    Cl    0.822567 0.258202 0.304888 -0.407062
Cl19  Cl    Cl    0.177309 0.741881 0.695132 -0.410239
Cl20  Cl    Cl    0.631722 0.704144 0.290877 -0.357711
Cl21  Cl    Cl    0.258052 0.177610 0.695123 -0.410356
Cl22  Cl    Cl    0.178661 0.740664 0.305008 -0.404726
Cl23  Cl    Cl    0.207724 0.131621 0.791430 -0.359339
Cl24  Cl    Cl    0.822110 0.258666 0.695104 -0.410195
Cl25  Cl    Cl    0.258462 0.177086 0.304852 -0.407884
Cl26  Cl    Cl    0.741731 0.823129 0.695182 -0.410693
Cl27  Cl    Cl    0.575812 0.209663 0.970507 -0.310313
Cl28  Cl    Cl    0.423488 0.790832 0.029498 -0.311432
Cl29  Cl    Cl    0.790481 0.574478 0.970383 -0.310427
Cl30  Cl    Cl    0.209821 0.425669 0.029612 -0.310042
Cl31  Cl    Cl    0.423746 0.790794 0.970572 -0.310384
Cl32  Cl    Cl    0.575487 0.209704 0.029436 -0.310536
Cl33  Cl    Cl    0.209782 0.425443 0.970682 -0.310237
Cl34  Cl    Cl    0.818840 0.901226 0.265449 -0.441599
Cl35  Cl    Cl    0.790520 0.574732 0.029310 -0.313974
Cl36  Cl    Cl    0.076545 0.709156 0.470502 -0.311415
Cl37  Cl    Cl    0.924156 0.290349 0.529493 -0.310296
Cl38  Cl    Cl    0.290090 0.074076 0.470388 -0.310005
Cl39  Cl    Cl    0.709608 0.925777 0.529618 -0.310389
Cl40  Cl    Cl    0.924480 0.290307 0.470564 -0.310519
Cl41  Cl    Cl    0.076287 0.709194 0.529428 -0.310367
Cl42  Cl    Cl    0.709569 0.925523 0.470689 -0.313933
Cl43  Cl    Cl    0.290130 0.074302 0.529319 -0.310199
Cl44  Cl    Cl    0.105540 0.388311 0.652651 -0.420100
Cl45  Cl    Cl    0.868257 0.206725 0.791324 -0.359756
Cl46  Cl    Cl    0.895213 0.612161 0.347417 -0.469741
Cl47  Cl    Cl    0.610927 0.106402 0.652534 -0.419946
Cl48  Cl    Cl    0.389249 0.893307 0.347438 -0.418989
Cl49  Cl    Cl    0.894177 0.611437 0.652426 -0.419995
Cl50  Cl    Cl    0.105282 0.387880 0.347473 -0.419875
Cl51  Cl    Cl    0.388905 0.893881 0.652517 -0.419802
Cl52  Cl    Cl    0.610702 0.106454 0.347533 -0.423017
Cl53  Cl    Cl    0.604792 0.887843 0.152583 -0.469730
Cl54  Cl    Cl    0.394455 0.111685 0.847349 -0.420090
Cl55  Cl    Cl    0.110777 0.606664 0.152562 -0.419013
Cl56  Cl    Cl    0.131116 0.793827 0.208971 -0.334674
Cl57  Cl    Cl    0.889046 0.393628 0.847465 -0.419970
Cl58  Cl    Cl    0.394713 0.112116 0.152527 -0.419864
Cl59  Cl    Cl    0.605828 0.888567 0.847574 -0.419985
Cl60  Cl    Cl    0.889271 0.393575 0.152468 -0.423043
Cl61  Cl    Cl    0.111122 0.606090 0.847483 -0.419827
Cl62  Cl    Cl    0.792525 0.867834 0.791518 -0.359452
Cl63  Cl    Cl    0.207305 0.132000 0.208559 -0.354934
Cl64  Cl    Cl    0.632094 0.292959 0.291342 -0.353810
H1    H     H_    0.195954 0.870862 0.739015 0.234437
H2    H     H_    0.304046 0.629138 0.760985 0.234438
H3    H     H_    0.692664 0.760498 0.206647 0.247830
H4    H     H_    0.370558 0.304452 0.760894 0.234469
H5    H     H_    0.303723 0.629372 0.238669 0.237463
H6    H     H_    0.696089 0.370761 0.761048 0.234400
H7    H     H_    0.370502 0.304423 0.239090 0.236532
H8    H     H_    0.629464 0.695529 0.760827 0.234457
H9    H     H_    0.082968 0.415560 0.599057 0.205896
H10   H     H_    0.917720 0.584588 0.401001 0.204969
H11   H     H_    0.583676 0.083775 0.598965 0.205968
H12   H     H_    0.803995 0.129138 0.261029 0.246688
H13   H     H_    0.416314 0.916001 0.401013 0.206031
H14   H     H_    0.916748 0.584072 0.598879 0.205862
H15   H     H_    0.083038 0.415174 0.401046 0.206198
H16   H     H_    0.416073 0.916635 0.598958 0.205960
H17   H     H_    0.583469 0.083583 0.401077 0.206065
H18   H     H_    0.582284 0.915416 0.098999 0.204976
H19   H     H_    0.417028 0.084436 0.900943 0.205902
H20   H     H_    0.083711 0.583974 0.098987 0.206018
H21   H     H_    0.916300 0.416251 0.901035 0.205955
H22   H     H_    0.416958 0.084822 0.098954 0.206205
H23   H     H_    0.129441 0.195548 0.739106 0.234470
H24   H     H_    0.583256 0.915931 0.901121 0.205869
H25   H     H_    0.916507 0.416442 0.098922 0.206051
H26   H     H_    0.083952 0.583340 0.901042 0.205947
H27   H     H_    0.807336 0.739502 0.293353 0.247830
H28   H     H_    0.803911 0.129239 0.738952 0.234400
H29   H     H_    0.196277 0.870628 0.261331 0.237462
H30   H     H_    0.870536 0.804471 0.739173 0.234458
H31   H     H_    0.129498 0.195577 0.260910 0.236533
H32   H     H_    0.696005 0.370862 0.238971 0.246689
N1    N     N_R   0.500071 0.000170 0.931967 -0.354868
N2    N     N_R   0.499566 0.000203 0.068035 -0.354846
N3    N     N_R   0.000110 0.499819 0.931970 -0.354833
N4    N     N_R   0.000155 0.500236 0.068026 -0.354587
N5    N     N_R   0.000434 0.499797 0.431965 -0.354848
N6    N     N_R   0.999929 0.499830 0.568033 -0.354870
N7    N     N_R   0.499845 0.999764 0.431975 -0.354576
N8    N     N_R   0.499889 0.000181 0.568029 -0.354822
O1    O     O_3   0.000000 0.500000 0.750000 -0.580073
O2    O     O_R   0.000220 0.561630 0.191620 -0.590757
O3    O     O_R   0.561630 0.999780 0.808380 -0.587066
O4    O     O_R   0.438370 0.000220 0.191620 -0.586768
O5    O     O_R   0.500220 0.061630 0.308380 -0.585217
O6    O     O_R   0.499780 0.938370 0.691620 -0.586848
O7    O     O_R   0.938370 0.500220 0.308380 -0.592467
O8    O     O_R   0.061630 0.499780 0.691620 -0.586653
O9    O     O_R   0.499780 0.938370 0.308380 -0.590754
O10   O     O_R   0.500220 0.061630 0.691620 -0.587357
O11   O     O_R   0.061630 0.499780 0.308380 -0.586769
O12   O     O_3   1.000000 0.500000 0.250000 -0.580787
O13   O     O_R   0.938370 0.500220 0.691620 -0.587067
O14   O     O_R   0.086770 0.352080 0.765560 -0.608218
O15   O     O_R   0.913230 0.647920 0.234440 -0.600288
O16   O     O_R   0.647920 0.086770 0.765560 -0.607770
O17   O     O_R   0.352080 0.913230 0.234440 -0.608704
O18   O     O_R   0.913230 0.647920 0.765560 -0.607945
O19   O     O_R   0.086770 0.352080 0.234440 -0.607666
O20   O     O_R   0.352080 0.913230 0.765560 -0.607597
O21   O     O_R   0.647920 0.086770 0.234440 -0.605243
O22   O     O_R   0.586770 0.852080 0.265560 -0.600288
O23   O     O_3   0.500000 0.000000 0.750000 -0.580074
O24   O     O_R   0.413230 0.147920 0.734440 -0.608218
O25   O     O_R   0.147920 0.586770 0.265560 -0.608704
O26   O     O_R   0.852080 0.413230 0.734440 -0.607770
O27   O     O_R   0.413230 0.147920 0.265560 -0.607665
O28   O     O_R   0.586770 0.852080 0.734440 -0.607945
O29   O     O_R   0.852080 0.413230 0.265560 -0.605243
O30   O     O_R   0.147920 0.586770 0.734440 -0.607597
O31   O     O_R   0.852120 0.586630 0.735130 -0.597247
O32   O     O_R   0.147880 0.413370 0.264870 -0.597224
O33   O     O_R   0.413370 0.852120 0.735130 -0.597269
O34   O     O_3   0.500000 0.000000 0.250000 -0.580787
O35   O     O_R   0.586630 0.147880 0.264870 -0.597593
O36   O     O_R   0.147880 0.413370 0.735130 -0.596877
O37   O     O_R   0.852120 0.586630 0.264870 -0.602748
O38   O     O_R   0.586630 0.147880 0.735130 -0.597416
O39   O     O_R   0.413370 0.852120 0.264870 -0.590862
O40   O     O_R   0.352120 0.086630 0.235130 -0.597224
O41   O     O_R   0.647880 0.913370 0.764870 -0.597247
O42   O     O_R   0.913370 0.352120 0.235130 -0.597594
O43   O     O_R   0.086630 0.647880 0.764870 -0.597270
O44   O     O_R   0.647880 0.913370 0.235130 -0.602747
O45   O     O_R   0.000220 0.561630 0.808380 -0.586850
O46   O     O_R   0.352120 0.086630 0.764870 -0.596877
O47   O     O_R   0.086630 0.647880 0.235130 -0.590863
O48   O     O_R   0.913370 0.352120 0.764870 -0.597417
O49   O     O_2   0.442912 0.885347 0.930665 -0.429573
O50   O     O_2   0.556910 0.114940 0.069324 -0.430114
O51   O     O_2   0.115062 0.443215 0.930766 -0.429693
O52   O     O_2   0.885164 0.556754 0.069234 -0.434267
O53   O     O_2   0.557258 0.114983 0.930665 -0.429585
O54   O     O_2   0.442196 0.885478 0.069339 -0.429971
O55   O     O_2   0.885153 0.556407 0.930574 -0.429668
O56   O     O_R   0.999780 0.438370 0.191620 -0.585219
O57   O     O_2   0.115158 0.443747 0.069423 -0.429198
O58   O     O_2   0.943077 0.385066 0.430675 -0.430112
O59   O     O_2   0.057101 0.614646 0.569336 -0.429571
O60   O     O_2   0.614884 0.943341 0.430767 -0.434283
O61   O     O_2   0.384890 0.056689 0.569233 -0.429709
O62   O     O_2   0.057817 0.614515 0.430660 -0.429969
O63   O     O_2   0.942728 0.385024 0.569335 -0.429584
O64   O     O_2   0.384794 0.056158 0.430578 -0.429212
O65   O     O_2   0.614894 0.943688 0.569425 -0.429684
O66   O     O_R   0.438370 0.000220 0.808380 -0.586652
O67   O     O_R   0.561630 0.999780 0.191620 -0.592466
O68   O     O_R   0.999780 0.438370 0.808380 -0.587359
Zn1   Zn    Zn3+2 0.088070 0.500110 0.728590 1.102159
Zn2   Zn    Zn3+2 0.411930 0.999890 0.771410 1.102158
Zn3   Zn    Zn3+2 0.999890 0.588070 0.228590 1.110918
Zn4   Zn    Zn3+2 0.000110 0.411930 0.771410 1.102161
Zn5   Zn    Zn3+2 0.411930 0.999890 0.228590 1.102988
Zn6   Zn    Zn3+2 0.588070 0.000110 0.771410 1.102257
Zn7   Zn    Zn3+2 0.000110 0.411930 0.228590 1.103262
Zn8   Zn    Zn3+2 0.999890 0.588070 0.771410 1.102132
Zn9   Zn    Zn3+2 0.911930 0.499890 0.271410 1.096191
Zn10  Zn    Zn3+2 0.499890 0.088070 0.728590 1.102159
Zn11  Zn    Zn3+2 0.500110 0.911930 0.271410 1.110916
Zn12  Zn    Zn3+2 0.911930 0.499890 0.728590 1.102258
Zn13  Zn    Zn3+2 0.088070 0.500110 0.271410 1.102990
Zn14  Zn    Zn3+2 0.500110 0.911930 0.728590 1.102130
Zn15  Zn    Zn3+2 0.499890 0.088070 0.271410 1.103260
Zn16  Zn    Zn3+2 0.588070 0.000110 0.228590 1.096190

loop_
_geom_bond_atom_site_label_1
_geom_bond_atom_site_label_2
_ccdc_geom_bond_type
C63   N3    A    
C140  Cl55  S    
C141  Cl57  S    
C79   C87   A    
C115  H14   S    
C15   C32   S    
C113  C131  A    
O34   Zn11  S    
C143  Cl59  S    
O31   Zn12  S    
C149  O10   A    
C3    C28   S    
C90   C107  A    
O3    Zn6   S    
C19   H3    S    
C128  C145  A    
C14   H29   S    
C42   C188  S    
C105  O56   A    
C67   N3    A    
C139  C152  A    
C46   Cl32  S    
C135  Cl51  S    
C36   C53   S    
C19   C37   S    
C127  O4    A    
C138  O9    A    
C175  O25   A    
C37   C185  S    
C38   C55   S    
C78   C96   A    
C43   Cl9   S    
O56   Zn7   S    
C168  O31   A    
C20   C45   S    
C72   C94   A    
C77   O65   S    
O8    Zn1   S    
O26   Zn12  S    
C4    C56   S    
C52   Cl18  S    
C92   C100  A    
C34   C179  S    
C9    C52   S    
C74   N5    A    
C125  C161  A    
O13   Zn12  S    
C40   C58   S    
C47   Cl13  S    
C192  Cl3   S    
C173  O22   A    
C59   Cl25  S    
O28   Zn14  S    
C124  H22   S    
C184  Cl23  S    
C155  N6    S    
C101  C110  A    
C167  O39   A    
C142  C151  A    
C93   C102  A    
C38   C184  S    
C113  H11   S    
C123  C163  A    
O12   Zn13  S    
C51   Cl17  S    
C39   C56   S    
C23   H7    S    
C45   Cl11  S    
C121  C161  A    
C123  C141  A    
C86   C99   A    
C41   C59   S    
C12   H28   S    
C46   C84   A    
C31   C167  S    
O4    Zn5   S    
C73   N8    A    
C122  H20   S    
C168  O18   A    
C17   C34   S    
C183  Cl12  S    
O1    Zn8   S    
C63   O51   S    
C114  H13   S    
C110  Cl43  S    
O66   Zn2   S    
O23   Zn10  S    
C77   C91   A    
C89   C101  A    
O43   Zn8   S    
C88   C102  A    
C26   C191  S    
C123  H21   S    
C120  H18   S    
C71   C93   A    
C94   C109  A    
C119  C136  A    
C23   C41   S    
C6    C33   S    
C41   C189  S    
C74   O62   S    
O23   Zn2   S    
C188  Cl62  S    
C191  Cl2   S    
C77   N8    A    
C14   C187  S    
C42   C178  S    
C61   O49   S    
C79   C108  A    
C1    O45   A    
C1    C154  S    
C141  C154  A    
C160  O7    A    
O20   Zn2   S    
C16   C189  S    
O7    Zn9   S    
C26   C170  S    
C98   C99   A    
O16   Zn6   S    
C170  O33   A    
C36   C181  S    
C113  C157  A    
C111  C155  A    
C71   N6    A    
C45   C184  S    
C50   Cl16  S    
C8    C181  S    
C105  C153  S    
C172  O21   A    
C15   C60   S    
C177  O40   A    
C128  H26   S    
C14   C31   S    
C50   C188  S    
C21   C49   S    
C54   C192  S    
C156  N5    S    
C29   C47   S    
O35   Zn15  S    
C157  N8    S    
C41   C177  S    
C22   H6    S    
C158  N7    S    
C75   N6    A    
O37   Zn9   S    
C6    Cl7   S    
C19   C47   S    
C38   C174  S    
C164  O14   A    
C64   O52   S    
C165  O15   A    
C126  H25   S    
C166  O16   A    
C25   C50   S    
C69   C82   A    
C179  O29   A    
C127  C151  S    
C3    C55   S    
C27   C44   S    
C134  Cl50  S    
C178  O41   A    
C57   C85   A    
C24   C57   A    
O1    Zn4   S    
C101  Cl38  S    
C74   C87   A    
C56   Cl22  S    
C76   C89   A    
C57   Cl33  S    
C54   Cl20  S    
O34   Zn15  S    
C182  Cl27  S    
C146  C171  S    
C89   C103  A    
C44   Cl10  S    
O23   Zn6   S    
O67   Zn16  S    
C147  C160  S    
C117  H15   S    
C118  H16   S    
C1    O68   A    
C173  O44   A    
C111  H9    S    
C76   N7    A    
C39   C175  S    
C40   C176  S    
C25   H8    S    
O12   Zn3   S    
C43   C181  S    
C70   O58   S    
C78   C182  A    
C161  N1    S    
O2    Zn3   S    
O30   Zn1   S    
C60   Cl26  S    
C186  Cl45  S    
C137  Cl53  S    
C127  O67   A    
O14   Zn4   S    
C34   C183  S    
C90   Cl37  S    
C16   H31   S    
C10   C55   S    
C44   C183  S    
O22   Zn11  S    
C11   C54   S    
C145  C154  A    
C20   H4    S    
C67   C81   A    
C105  O2    A    
C2    Cl28  S    
C79   Cl36  S    
C5    C30   S    
C62   C84   A    
C7    C32   S    
O15   Zn3   S    
C130  C147  A    
O10   Zn10  S    
C165  O37   A    
C6    C59   S    
O47   Zn3   S    
C13   Cl29  S    
C175  O47   A    
C8    C53   S    
C55   Cl21  S    
C180  O43   A    
C133  C146  A    
C125  H24   S    
C17   C190  S    
O44   Zn16  S    
C66   C80   A    
C15   C188  S    
C122  C162  A    
C66   O54   S    
C121  C139  A    
C132  Cl48  S    
C159  N2    S    
C122  C140  A    
C11   C29   S    
C75   O63   S    
C18   C36   S    
C125  C143  A    
C83   C96   A    
O29   Zn9   S    
O1    Zn12  S    
O19   Zn7   S    
C112  C156  A    
O6    Zn14  S    
C112  C130  A    
C27   C172  S    
C63   C85   A    
C13   C68   A    
C2    C35   A    
C22   C48   S    
C10   C28   S    
C82   C99   A    
C14   C56   S    
C36   C180  S    
C11   H27   S    
C33   C169  S    
C134  C147  A    
C28   C164  S    
C62   N2    A    
O21   Zn16  S    
C84   C97   A    
O46   Zn2   S    
O42   Zn7   S    
C87   C100  A    
C162  N4    S    
C93   C108  A    
C80   C97   A    
C81   C98   A    
C116  O66   A    
C13   C81   A    
C106  Cl39  S    
C72   O60   S    
C70   N5    A    
C29   C165  S    
C7    Cl8   S    
C114  C158  A    
C176  O26   A    
C111  C129  A    
C116  O3    A    
O41   Zn6   S    
C132  C150  A    
C27   C190  S    
C47   C185  S    
C181  Cl1   S    
C51   C189  S    
C140  C153  A    
O1    Zn1   S    
C107  Cl40  S    
C190  Cl64  S    
C145  Cl61  S    
C31   C49   S    
C117  C134  A    
C62   O50   S    
C64   C86   A    
C18   C191  S    
C129  Cl44  S    
C61   C83   A    
C17   H32   S    
C35   C83   A    
O17   Zn5   S    
C115  C133  A    
C171  O13   A    
C138  C150  S    
C176  O48   A    
C9    C183  S    
C49   C187  S    
C12   C186  S    
C3    C20   S    
C52   C190  S    
C53   C191  S    
C129  C146  A    
C5    C58   S    
C143  C152  A    
C88   C90   A    
C94   C103  A    
O11   Zn13  S    
C7    C60   S    
O23   Zn14  S    
C9    C27   S    
O12   Zn7   S    
C30   C48   S    
C65   C78   A    
C12   C30   S    
O45   Zn8   S    
C70   C92   A    
C174  O24   A    
C95   C110  A    
O27   Zn15  S    
C25   C42   S    
C172  O35   A    
C160  O11   A    
C24   Cl30  S    
C33   C51   S    
C164  O36   A    
C34   C52   S    
C3    Cl4   S    
C7    C25   S    
C69   N4    A    
C64   N4    A    
C73   O61   S    
C17   C44   S    
C18   C43   S    
C67   O55   S    
C46   C182  A    
O9    Zn11  S    
C65   O53   S    
C10   C184  S    
C72   N7    A    
C18   H2    S    
C4    C31   S    
C40   C186  S    
O40   Zn5   S    
C149  O6    A    
C103  C104  A    
C118  C157  A    
C120  C137  A    
C139  Cl54  S    
C71   O59   S    
C163  N3    S    
C118  C135  A    
O34   Zn16  S    
C124  C159  A    
C142  Cl58  S    
C65   N1    A    
O32   Zn13  S    
C68   C86   A    
C91   C104  A    
C68   Cl35  S    
O24   Zn10  S    
O5    Zn15  S    
O38   Zn10  S    
C119  C158  A    
C180  O30   A    
C6    C23   S    
C138  O5    A    
C144  C153  A    
C15   H30   S    
C126  C144  A    
C8    H1    S    
C24   C82   A    
C85   C98   A    
C133  Cl49  S    
C178  O28   A    
C5    C22   S    
C49   Cl15  S    
C131  Cl47  S    
O36   Zn1   S    
C174  O46   A    
O39   Zn11  S    
C120  C159  A    
O25   Zn13  S    
C19   C192  S    
C39   C187  S    
C109  Cl42  S    
C144  Cl60  S    
O18   Zn8   S    
C91   C106  A    
C124  C142  A    
C26   C43   S    
C8    C26   S    
C9    H12   S    
C28   C45   S    
C136  Cl52  S    
C167  O17   A    
C148  C149  S    
C30   C166  S    
C42   C60   S    
O34   Zn5   S    
C128  C163  A    
O68   Zn4   S    
C16   C59   S    
C69   O57   S    
C76   O64   S    
C121  H19   S    
C48   C186  S    
C187  Cl56  S    
C35   Cl31  S    
C16   C33   S    
C119  H17   S    
C20   C38   S    
C171  O8    A    
C92   C107  A    
C23   C51   S    
C21   C39   S    
C53   Cl19  S    
C22   C40   S    
C96   C97   A    
C117  C156  A    
C100  C102  A    
C29   C192  S    
C131  C148  A    
C32   C50   S    
C189  Cl63  S    
C37   C54   S    
C21   H5    S    
C4    Cl5   S    
C135  C148  A    
C10   H23   S    
C112  H10   S    
C116  C152  S    
C95   C104  A    
C169  O19   A    
C170  O20   A    
C108  Cl41  S    
C130  Cl46  S    
C166  O38   A    
C115  C155  A    
C11   C185  S    
C114  C132  A    
C136  C150  A    
C5    Cl6   S    
C32   C168  S    
C12   C58   S    
O12   Zn9   S    
C4    C21   S    
C179  O42   A    
C169  O32   A    
C61   N1    A    
C185  Cl34  S    
C2    C80   A    
C37   C173  S    
O48   Zn4   S    
C75   C88   A    
C66   N2    A    
O33   Zn14  S    
C48   Cl14  S    
C73   C95   A    
C137  C151  A    
C177  O27   A    
C126  C162  A    
C106  C109  A    
C58   Cl24  S    
