data_mof_unit_pretest_406.cif
_audit_creation_date              2012-12-10T17:29:16-0500
_audit_creation_method            fapswitch 2.2
_symmetry_space_group_name_H-M    P1
_symmetry_Int_Tables_number       1
_space_group_crystal_system       triclinic
_cell_length_a                    12.077245
_cell_length_b                    12.888922
_cell_length_c                    13.433055
_cell_angle_alpha                 85.605891
_cell_angle_beta                  111.577839
_cell_angle_gamma                 94.2105
_cell_volume                      1936.45844488

loop_
_atom_site_label
_atom_site_type_symbol
_atom_type_description
_atom_site_fract_x
_atom_site_fract_y
_atom_site_fract_z
_atom_type_partial_charge
C1    C     C_R   0.474306 0.299602 0.491830 0.884126
C2    C     C_R   0.548091 0.490279 0.983093 0.030579
C3    C     C_R   0.514636 0.471635 0.874132 0.024129
C4    C     C_R   0.457031 0.490688 0.025756 -0.009947
C5    C     C_R   0.338094 0.507171 0.955524 0.051400
C6    C     C_R   0.308352 0.488687 0.846730 -0.066018
C7    C     C_R   0.393644 0.447087 0.816306 -0.031471
C8    C     C_R   0.479762 0.471529 0.134731 0.006056
C9    C     C_R   0.288247 0.541743 0.109128 0.018189
C10   C     C_R   0.600805 0.482794 0.824964 -0.119540
C11   C     C_R   0.550116 0.810270 0.530414 -0.129906
C12   C     C_R   0.563756 0.491086 0.707238 0.868179
C13   C     C_R   0.455858 0.186592 0.483754 -0.209056
C14   C     C_R   0.355850 0.025119 0.516810 0.055951
C15   C     C_R   0.354509 0.132299 0.493403 -0.022676
C16   C     C_R   0.546244 0.131174 0.473406 -0.071810
C17   C     C_R   0.556092 0.025727 0.507526 0.017757
C18   C     C_R   0.459674 0.971446 0.529743 0.042119
C19   C     C_R   0.466965 0.863813 0.554714 -0.102465
C20   C     C_R   0.653788 0.863857 0.525332 0.042895
C21   C     C_R   0.659605 0.972385 0.520438 -0.048217
C22   C     C_R   0.021570 0.615935 0.411739 -0.114664
C23   C     C_R   0.526485 0.699680 0.510323 0.919415
C24   C     C_R   0.140325 0.601957 0.420677 0.243732
C25   C     C_R   0.146431 0.445188 0.524510 -0.061996
C26   C     C_R   0.027537 0.453940 0.518231 -0.009538
C27   C     C_R   0.962530 0.540608 0.461161 -0.023506
C28   C     C_R   0.842630 0.547334 0.457615 0.032650
C29   C     C_R   0.865017 0.399654 0.580215 0.209150
C30   C     C_R   0.976002 0.381615 0.574424 -0.076671
C31   C     C_R   0.435717 0.503587 0.293445 0.931120
C32   C     C_R   0.253512 0.535133 0.997882 0.069519
C33   C     C_R   0.399294 0.505119 0.177319 -0.083820
C34   C     C_R   0.721543 0.499837 0.888503 -0.253509
C35   C     C_R   0.755553 0.515656 0.997684 0.165353
C36   C     C_R   0.668982 0.514917 0.043525 -0.153900
H1    H     H_    0.196764 0.380038 0.566994 0.158197
H2    H     H_    0.789019 0.506782 0.852697 0.159932
H3    H     H_    0.696697 0.539658 0.124382 0.150333
N1    N     N_R   0.798200 0.480260 0.519790 -0.142900
N2    N     N_R   0.201820 0.519740 0.480210 -0.105468
O1    O     O_R   0.579910 0.341070 0.505280 -0.620174
O2    O     O_R   0.388440 0.353740 0.492580 -0.622781
O3    O     O_R   0.643280 0.490550 0.663120 -0.652994
O4    O     O_R   0.451810 0.503220 0.650420 -0.607835
O5    O     O_R   0.611560 0.646260 0.507420 -0.592502
O6    O     O_R   0.420090 0.658930 0.494720 -0.602054
O7    O     O_R   0.548190 0.496780 0.349580 -0.617905
O8    O     O_R   0.356720 0.509450 0.336880 -0.586617
Zn1   Zn    Zn3+2 0.627850 0.491540 0.508480 0.960265
Zn2   Zn    Zn3+2 0.372150 0.508460 0.491520 0.986487
N3    N     N_3   0.209537 0.581920 0.153132 -0.434088
H4    H     H_    0.131372 0.534647 0.133022 0.185981
H5    H     H_    0.188952 0.657432 0.120354 0.177726
N4    N     N_3   0.753586 0.808212 0.527504 -0.415651
H6    H     H_    0.826472 0.825439 0.596932 0.193408
H7    H     H_    0.775457 0.834054 0.461026 0.207683
N5    N     N_3   0.247647 0.972960 0.519906 -0.446798
H8    H     H_    0.258060 0.949987 0.598936 0.212584
H9    H     H_    0.223878 0.910034 0.470436 0.190172
C37   C     C_1   0.773302 0.026303 0.532546 0.163448
N6    N     N_1   0.864303 0.068665 0.542424 -0.163907
C38   C     C_1   0.243212 0.182379 0.468639 0.283739
N7    N     N_1   0.153063 0.220612 0.447333 -0.201145
C39   C     C_1   0.616069 0.179216 0.412395 0.250586
N8    N     N_1   0.671449 0.217429 0.363779 -0.187467
C40   C     C_1   0.761659 0.618745 0.383081 0.263184
N9    N     N_1   0.696249 0.675308 0.322280 -0.204310
N10   N     N_3   0.823582 0.329795 0.649234 -0.431424
H10   H     H_    0.887662 0.332724 0.726774 0.155126
H11   H     H_    0.748706 0.356059 0.656609 0.247163
C41   C     C_1   0.967927 0.711323 0.357046 0.117675
N11   N     N_1   0.926548 0.788068 0.313382 -0.190905
C42   C     C_1   0.037740 0.290038 0.631294 0.191914
N12   N     N_1   0.086075 0.216665 0.676814 -0.167563
N13   N     N_3   0.197130 0.673565 0.365470 -0.377444
H12   H     H_    0.204087 0.746990 0.395728 0.168119
H13   H     H_    0.142699 0.678704 0.284442 0.173527
C43   C     C_1   0.207220 0.535078 0.765095 0.239907
N14   N     N_1   0.127190 0.576710 0.702687 -0.202680
N15   N     N_3   0.132520 0.553303 0.929580 -0.460601
H14   H     H_    0.075464 0.500096 0.952361 0.172754
H15   H     H_    0.112704 0.628913 0.938114 0.186926
N16   N     N_3   0.567244 0.398112 0.196725 -0.428019
H16   H     H_    0.649432 0.436426 0.235430 0.206365
H17   H     H_    0.577250 0.343236 0.147548 0.202130
N17   N     N_3   0.877805 0.537493 0.061938 -0.469754
H18   H     H_    0.908716 0.602972 0.027021 0.178158
H19   H     H_    0.925742 0.474232 0.059016 0.174521
C44   C     C_1   0.364077 0.351960 0.759692 0.172226
N18   N     N_1   0.343719 0.274517 0.716650 -0.205730
C45   C     C_1   0.400442 0.808451 0.614870 0.177641
N19   N     N_1   0.348390 0.763400 0.663128 -0.192774

loop_
_geom_bond_atom_site_label_1
_geom_bond_atom_site_label_2
_ccdc_geom_bond_type
N17   H18   S    
C14   C18   A    
C35   C36   A    
C4    C8    A    
N15   H14   S    
C6    C43   S    
C32   N15   S    
C11   C19   A    
C26   C27   A    
N16   H17   S    
C18   C19   A    
C3    C7    A    
C5    C6    A    
C30   C42   S    
O4    Zn2   S    
N5    H9    S    
C2    C36   A    
C34   C35   A    
N10   H11   S    
C19   C45   S    
C9    C32   A    
C25   H1    S    
C35   N17   S    
C1    O2    A    
C16   C17   A    
O8    Zn2   S    
C31   C33   S    
C21   C37   S    
C5    C32   A    
O7    Zn1   S    
C23   O5    A    
C34   H2    S    
C9    C33   A    
C24   N2    A    
C37   N6    T    
C9    N3    S    
C31   O8    A    
C20   N4    S    
C22   C41   S    
N15   H15   S    
N3    H5    S    
C29   N10   S    
C14   N5    S    
C11   C20   A    
C23   O6    A    
C42   N12   T    
C40   N9    T    
C28   C40   S    
N13   H12   S    
C25   N2    A    
C41   N11   T    
O6    Zn2   S    
C25   C26   A    
C7    C44   S    
C17   C21   A    
C38   N7    T    
C2    C4    A    
C28   N1    A    
C29   C30   A    
N4    H6    S    
C17   C18   A    
C10   C34   A    
N16   H16   S    
C10   C12   S    
O1    Zn1   S    
C26   C30   A    
C22   C27   A    
C13   C15   A    
C22   C24   A    
C1    C13   S    
N3    H4    S    
O3    Zn1   S    
C8    N16   S    
C36   H3    S    
C24   N13   S    
N13   H13   S    
C12   O4    A    
C6    C7    A    
O5    Zn1   S    
C31   O7    A    
N4    H7    S    
C2    C3    A    
N5    H8    S    
C12   O3    A    
C3    C10   A    
O2    Zn2   S    
C44   N18   T    
N1    Zn1   S    
C29   N1    A    
C11   C23   S    
C45   N19   T    
C8    C33   A    
N10   H10   S    
C43   N14   T    
C1    O1    A    
C4    C5    A    
C20   C21   A    
C39   N8    T    
C13   C16   A    
C27   C28   A    
N17   H19   S    
C15   C38   S    
C14   C15   A    
C16   C39   S    
N2    Zn2   S    
