data_mof_unit_pretest_1020.cif
_audit_creation_date              2012-10-26T20:50:49-0400
_audit_creation_method            fapswitch 2.2
_symmetry_space_group_name_H-M    P1
_symmetry_Int_Tables_number       1
_space_group_crystal_system       triclinic
_cell_length_a                    11.05316
_cell_length_b                    10.84869
_cell_length_c                    9.565922
_cell_angle_alpha                 90.740742
_cell_angle_beta                  102.311097
_cell_angle_gamma                 90.530497
_cell_volume                      1120.51563137

loop_
_atom_site_label
_atom_site_type_symbol
_atom_type_description
_atom_site_fract_x
_atom_site_fract_y
_atom_site_fract_z
_atom_type_partial_charge
C1    C     C_R   0.496339 0.262517 0.498197 0.556085
C2    C     C_R   0.409799 0.440438 0.052384 -0.022951
C3    C     C_R   0.410791 0.437864 0.903968 0.071935
C4    C     C_R   0.263003 0.500605 0.442131 0.566658
C5    C     C_R   0.601346 0.540840 0.952223 0.146947
C6    C     C_3   0.661795 0.664355 0.963010 -0.282510
C7    C     C_3   0.660784 0.665666 0.121685 -0.272966
C8    C     C_R   0.497528 0.737882 0.499873 0.545602
C9    C     C_R   0.736989 0.500754 0.557840 0.555494
C10   C     C_2   0.128324 0.501408 0.409497 -0.120737
C11   C     C_2   0.067107 0.507499 0.515401 -0.142038
C12   C     C_R   0.481632 0.129682 0.492473 0.011394
C13   C     C_2   0.871654 0.503433 0.590236 -0.126326
C14   C     C_2   0.932702 0.504587 0.483994 -0.158693
C15   C     C_R   0.466490 0.066097 0.613274 0.042448
C16   C     C_1   0.319795 0.361172 0.811847 0.215368
C17   C     C_R   0.478689 0.062791 0.365019 -0.161461
C18   C     C_R   0.479770 0.934160 0.366542 -0.158723
C19   C     C_R   0.484268 0.871259 0.495567 0.006540
C20   C     C_R   0.467887 0.939134 0.615180 0.025380
C21   C     C_3   0.538564 0.939396 0.766783 -0.282569
C22   C     C_3   0.535929 0.078848 0.764405 -0.258535
C23   C     C_R   0.601034 0.541449 0.099018 0.155544
Cu1   Cu    Cu3+1 0.499990 0.499980 0.640670 0.962018
Cu2   Cu    Cu3+1 0.500010 0.500020 0.359330 0.938314
H1    H     H_    0.883480 0.502401 0.372633 0.151365
H2    H     H_    0.078868 0.496205 0.298353 0.094784
H3    H     H_    0.482529 0.109133 0.266414 0.135422
H4    H     H_    0.483470 0.884986 0.268429 0.129951
H5    H     H_    0.482636 0.900800 0.839991 0.134826
H6    H     H_    0.633636 0.902678 0.777319 0.132451
H7    H     H_    0.478419 0.119330 0.835148 0.149163
H8    H     H_    0.629048 0.122114 0.774220 0.142270
H9    H     H_    0.336750 0.393278 0.090781 0.120479
H10   H     H_    0.756353 0.661052 0.940627 0.126127
H11   H     H_    0.599611 0.732561 0.902373 0.145113
H12   H     H_    0.755015 0.662713 0.191345 0.123831
H13   H     H_    0.599099 0.736879 0.151873 0.144618
H14   H     H_    0.116200 0.513708 0.626622 0.168249
H15   H     H_    0.921204 0.504908 0.701424 0.101467
N1    N     N_R   0.500780 0.500930 0.148120 -0.240518
N2    N     N_R   0.500790 0.500890 0.852210 -0.244945
N3    N     N_1   0.246735 0.298214 0.739162 -0.318262
O1    O     O_R   0.500000 0.319640 0.618810 -0.492596
O2    O     O_R   0.500010 0.319680 0.381230 -0.509948
O3    O     O_R   0.320680 0.500000 0.575130 -0.487148
O4    O     O_R   0.320690 0.500040 0.337550 -0.507875
O5    O     O_R   0.499990 0.680320 0.618770 -0.502787
O6    O     O_R   0.500000 0.680360 0.381190 -0.509116
O7    O     O_R   0.679310 0.499960 0.662450 -0.501884
O8    O     O_R   0.679320 0.500000 0.424870 -0.497249

loop_
_geom_bond_atom_site_label_1
_geom_bond_atom_site_label_2
_ccdc_geom_bond_type
C10   H2    S    
C12   C17   A    
C5    N2    A    
Cu2   O8    S    
C3    N2    A    
C6    C7    S    
Cu1   N2    S    
C21   H5    S    
Cu2   O4    S    
C1    O1    A    
C19   C20   A    
C5    C23   A    
C12   C15   A    
Cu1   O3    S    
C2    H9    S    
C8    O5    A    
C2    C3    A    
C7    H12   S    
C18   H4    S    
C4    O3    A    
C21   C22   S    
C20   C21   S    
C11   H14   S    
C21   H6    S    
C16   N3    T    
C1    O2    A    
C5    C6    S    
C1    C12   S    
C22   H7    S    
C7    C23   S    
C7    H13   S    
C6    H11   S    
C17   C18   A    
Cu1   O7    S    
C15   C20   A    
Cu1   O1    S    
C11   C14   S    
Cu2   O6    S    
C23   N1    A    
C8    C19   S    
C10   C11   D    
C3    C16   S    
C2    N1    A    
C4    C10   S    
Cu1   O5    S    
Cu2   O2    S    
C6    H10   S    
Cu1   Cu2   S    
C18   C19   A    
Cu2   N1    S    
C22   H8    S    
C9    C13   S    
C13   H15   S    
C13   C14   D    
C17   H3    S    
C8    O6    A    
C15   C22   S    
C14   H1    S    
C9    O7    A    
C4    O4    A    
C9    O8    A    
