data_mof_unit_pretest_37.cif
_audit_creation_date              2012-12-11T20:10:41-0500
_audit_creation_method            fapswitch 2.2
_symmetry_space_group_name_H-M    P1
_symmetry_Int_Tables_number       1
_space_group_crystal_system       triclinic
_cell_length_a                    8.407129
_cell_length_b                    16.142486
_cell_length_c                    18.769104
_cell_angle_alpha                 112.285378
_cell_angle_beta                  90.993761
_cell_angle_gamma                 84.446084
_cell_volume                      2345.35056142

loop_
_atom_site_label
_atom_site_type_symbol
_atom_type_description
_atom_site_fract_x
_atom_site_fract_y
_atom_site_fract_z
_atom_type_partial_charge
Ba1   Ba    Ba6+2 0.333520 0.539550 0.472180 1.676039
Ba2   Ba    Ba6+2 0.856270 0.460520 0.527840 1.697094
C1    C     C_3   0.020084 0.858910 0.354042 0.183474
C2    C     C_R   0.437471 0.413683 0.079344 0.037770
C3    C     C_R   0.294813 0.375852 0.050018 -0.084152
C4    C     C_3   0.559877 0.793292 0.330605 0.437531
C5    C     C_R   0.232523 0.378957 0.981338 -0.105623
C6    C     C_R   0.311769 0.419645 0.940000 0.026198
C7    C     C_R   0.454660 0.458098 0.968734 0.002324
C8    C     C_R   0.251310 0.421095 0.870009 -0.125271
C9    C     C_R   0.333419 0.458647 0.826226 -0.024536
C10   C     C_R   0.474512 0.499702 0.856007 0.042663
C11   C     C_R   0.534556 0.498866 0.927288 -0.002739
C12   C     C_3   0.032249 0.766501 0.359449 0.402467
C13   C     C_R   0.281387 0.455053 0.752880 -0.031039
C14   C     C_R   0.370194 0.490754 0.710565 -0.253641
C15   C     C_R   0.505816 0.535090 0.739987 0.076643
C16   C     C_3   0.501993 0.844653 0.280062 -0.275995
C17   C     C_R   0.556771 0.541251 0.814648 -0.051365
C18   C     C_R   0.660649 0.493972 0.068102 -0.008505
C19   C     C_R   0.720489 0.494552 0.139981 -0.016535
C20   C     C_R   0.634086 0.455800 0.182856 -0.048819
C21   C     C_R   0.498381 0.411742 0.149080 -0.044960
C22   C     C_R   0.691472 0.584522 0.848132 -0.046951
C23   C     C_3   0.065964 0.285076 0.270807 0.727889
C24   C     C_R   0.756744 0.578039 0.915130 0.054815
C25   C     C_R   0.677473 0.536575 0.956037 0.013669
C26   C     C_R   0.741842 0.533128 0.025579 -0.008011
C27   C     C_R   0.903476 0.610602 0.940606 -0.083540
C28   C     C_3   0.667830 0.745380 0.680584 0.406354
C29   C     C_R   0.969355 0.605116 0.007023 -0.106418
C30   C     C_R   0.888453 0.568265 0.051586 0.025219
C31   C     C_R   0.865624 0.533904 0.168493 -0.004953
C32   C     C_R   0.952551 0.566529 0.121177 0.111419
C33   C     C_R   0.915129 0.540216 0.243638 0.003559
C34   C     C_3   0.088906 0.238649 0.181930 0.321381
C35   C     C_R   0.821865 0.507001 0.286822 -0.315310
C36   C     C_R   0.684682 0.463359 0.258200 0.027135
C37   C     C_2   0.393492 0.243079 0.492237 -0.268173
C38   C     C_R   0.810245 0.749339 0.512044 -0.267044
C39   C     C_2   0.225551 0.120845 0.427358 -0.153712
C40   C     C_3   0.715908 0.838669 0.734136 -0.058474
C41   C     C_2   0.251236 0.207518 0.448072 0.009482
C42   C     C_2   0.498398 0.191112 0.515876 -0.000280
C43   C     C_3   0.455531 0.100388 0.511422 0.013231
C44   C     C_3   0.339897 0.055640 0.447077 -0.015081
C45   C     C_3   0.688082 0.266520 0.708965 0.808269
C46   C     C_2   0.596798 0.035132 0.507675 -0.092542
C47   C     C_2   0.580040 0.969990 0.533280 -0.083601
C48   C     C_R   0.854211 0.932115 0.567694 0.016159
C49   C     C_R   0.712177 0.902768 0.530959 -0.057586
C50   C     C_R   0.971100 0.871162 0.578949 -0.159785
C51   C     C_R   0.945680 0.780248 0.554780 0.053162
C52   C     C_3   0.587748 0.255163 0.330802 0.356527
C53   C     C_R   0.690587 0.810584 0.501525 -0.008942
C54   C     C_3   0.634132 0.152688 0.289189 0.508165
C55   C     C_3   0.129404 0.684532 0.721844 0.670520
C56   C     C_3   0.739515 0.220238 0.767264 0.210452
C57   C     C_3   0.096665 0.716302 0.808493 0.174812
C58   C     C_3   0.150104 0.232251 0.668354 0.553683
C59   C     C_3   0.196949 0.172611 0.714113 0.178665
C60   C     C_R   0.517587 0.455508 0.038907 0.014185
H1    H     H_    0.100355 0.770863 0.411812 0.027559
H2    H     H_    0.909754 0.749116 0.364971 -0.090491
H3    H     H_    0.961664 0.909447 0.407523 0.034585
H4    H     H_    0.936613 0.292502 0.285803 -0.092156
H5    H     H_    0.996809 0.271611 0.155396 0.008620
H6    H     H_    0.600185 0.843494 0.240747 0.129378
H7    H     H_    0.779886 0.148284 0.733059 0.068578
H8    H     H_    0.256270 0.252062 0.648571 -0.089493
H9    H     H_    0.088544 0.146282 0.727110 0.082018
H10   H     H_    0.250747 0.213621 0.769281 0.036950
H11   H     H_    0.228743 0.345545 0.080965 0.138450
H12   H     H_    0.804761 0.831542 0.775688 0.175785
H13   H     H_    0.121849 0.349585 0.960635 0.074383
H14   H     H_    0.329873 0.486405 0.654307 0.080504
H15   H     H_    0.141097 0.391499 0.849885 0.112952
H16   H     H_    0.436263 0.376744 0.177089 0.144661
H17   H     H_    0.750409 0.621189 0.821185 0.165245
H18   H     H_    0.970322 0.638657 0.908364 0.100012
H19   H     H_    0.084038 0.631150 0.022754 0.065215
H20   H     H_    0.658905 0.828854 0.365152 0.027866
H21   H     H_    0.859646 0.513410 0.343928 0.090953
H22   H     H_    0.126431 0.094498 0.390538 0.106822
H23   H     H_    0.773995 0.870072 0.699365 0.057015
H24   H     H_    0.075892 0.896041 0.611291 0.102291
H25   H     H_    0.419665 0.310138 0.499013 0.057412
H26   H     H_    0.791197 0.678915 0.493004 0.065394
H27   H     H_    0.708286 0.036940 0.480167 0.110218
H28   H     H_    0.464441 0.965140 0.555450 0.151217
H29   H     H_    0.399529 0.813840 0.245143 0.108063
H30   H     H_    0.463372 0.915714 0.316439 0.089985
H31   H     H_    0.776003 0.703461 0.650257 0.026853
H32   H     H_    0.510838 0.923103 0.741043 0.172512
H33   H     H_    0.510143 0.867371 0.801772 0.201105
H34   H     H_    0.464671 0.267160 0.355015 -0.020326
H35   H     H_    0.535172 0.131324 0.188986 0.307497
H36   H     H_    0.691590 0.044078 0.320198 0.206716
H37   H     H_    0.521686 0.104484 0.358205 0.167343
H38   H     H_    0.788269 0.164102 0.210165 0.172830
H39   H     H_    0.821736 0.067740 0.223773 0.196486
H40   H     H_    0.321141 0.741655 0.732905 0.287713
H41   H     H_    0.915271 0.767435 0.878240 0.291496
H42   H     H_    0.086165 0.399443 0.261168 0.250294
H43   H     H_    0.066840 0.117655 0.094094 0.187388
H44   H     H_    0.164782 0.108477 0.169802 0.224348
H45   H     H_    0.671636 0.282390 0.378346 0.047166
H46   H     H_    0.321128 0.230323 0.188397 0.339750
H47   H     H_    0.998510 0.831808 0.244768 0.316932
H48   H     H_    0.711037 0.381582 0.700444 0.317377
H49   H     H_    0.478586 0.310857 0.672771 0.094799
H50   H     H_    0.494329 0.202535 0.666422 0.170315
H51   H     H_    0.914176 0.221643 0.845230 0.154552
H52   H     H_    0.832697 0.324398 0.854963 0.214621
H53   H     H_    0.528245 0.176928 0.788222 0.183306
H54   H     H_    0.549385 0.286708 0.842201 0.196191
H55   H     H_    0.057941 0.219264 0.565173 0.194456
H56   H     H_    0.085393 0.617226 0.692721 0.051841
H57   H     H_    0.132732 0.120836 0.568884 0.174084
H58   H     H_    0.329773 0.064412 0.704680 0.297607
H59   H     H_    0.672687 0.670497 0.316217 0.129785
H60   H     H_    0.520859 0.666094 0.256085 0.207757
H61   H     H_    0.190936 0.559377 0.099436 0.171273
H62   H     H_    0.102886 0.664936 0.149655 0.185854
H63   H     H_    0.537508 0.695680 0.583123 0.225575
H64   H     H_    0.449423 0.790218 0.652296 0.201336
H65   H     H_    0.141542 0.878802 0.349461 0.071812
H66   H     H_    0.148303 0.781443 0.838855 0.022114
H67   H     H_    0.155386 0.665651 0.829804 0.004355
N1    N     N_3   0.580878 0.900346 0.777767 -0.501927
N2    N     N_3   0.107040 0.597317 0.142590 -0.455986
N3    N     N_3   0.557397 0.758152 0.624513 -0.519641
N4    N     N_3   0.639133 0.110310 0.345637 -0.483594
N5    N     N_3   0.793154 0.136993 0.252698 -0.482578
N6    N     N_3   0.066858 0.142753 0.154299 -0.518296
N7    N     N_3   0.516289 0.268010 0.700904 -0.544033
N8    N     N_3   0.873430 0.261078 0.814180 -0.449615
N9    N     N_3   0.609104 0.222083 0.819075 -0.521870
N10   N     N_3   0.065819 0.181603 0.599786 -0.415167
N11   N     N_3   0.618490 0.701490 0.281192 -0.493509
O1    O     O_2   0.402610 0.439360 0.314250 -0.397189
O2    O     O_2   0.818250 0.187227 0.490424 -0.470182
O3    O     O_3   0.768846 0.216085 0.636790 -0.600029
O4    O     O_3   0.648560 0.446300 0.404730 -0.503605
O5    O     O_3   0.025080 0.609480 0.556050 -0.489234
O6    O     O_2   0.948320 0.280590 0.426090 -0.463754
O7    O     O_3   0.151810 0.230950 0.304760 -0.632380
O8    O     O_2   0.955479 0.476262 0.751602 -0.452513
O9    O     O_3   0.049195 0.307327 0.715828 -0.565779
O10   O     O_3   0.108870 0.604000 0.387500 -0.471211
O11   O     O_2   0.251982 0.539729 0.252644 -0.452866
O12   O     O_3   0.055275 0.747452 0.694282 -0.677946
O13   O     O_3   0.594120 0.296071 0.277151 -0.679166
O14   O     O_3   0.112942 0.702472 0.293816 -0.584418
O15   O     O_2   0.241370 0.719440 0.573960 -0.444705
O16   O     O_3   0.507090 0.652150 0.432150 -0.470025
O17   O     O_2   0.362752 0.811454 0.516186 -0.481312
O18   O     O_3   0.519588 0.114058 0.233580 -0.739514
O19   O     O_3   0.292460 0.678817 0.709899 -0.787380
O20   O     O_3   0.932408 0.726699 0.823425 -0.767419
O21   O     O_3   0.122502 0.370344 0.297162 -0.687890
O22   O     O_3   0.239756 0.250100 0.157906 -0.752652
O23   O     O_3   0.431238 0.792971 0.377579 -0.594056
O24   O     O_3   0.927566 0.859009 0.291204 -0.740489
O25   O     O_3   0.730423 0.355100 0.739607 -0.693372
O26   O     O_3   0.305587 0.099603 0.671774 -0.788479
O27   O     O_2   0.787080 0.560670 0.685800 -0.467120
O28   O     O_3   0.541120 0.553770 0.595290 -0.481589
O29   O     O_3   0.080800 0.396070 0.612520 -0.492165
O30   O     O_3   0.596307 0.704608 0.724348 -0.610643
O31   O     O_3   0.164600 0.390590 0.443970 -0.422913
O32   O     O_3   0.682580 0.347920 0.567870 -0.499430
P1    P     P_3+3 0.582960 0.413890 0.320860 0.995674
P2    P     P_3+3 0.071690 0.707860 0.593450 0.992831
P3    P     P_3+3 0.500997 0.768225 0.456692 0.947309
P4    P     P_3+3 0.606720 0.586180 0.679160 1.034495
P5    P     P_3+3 0.690421 0.235153 0.554913 0.942762
P6    P     P_3+3 0.095548 0.594651 0.292859 1.017373
P7    P     P_3+3 0.130231 0.276844 0.405484 1.025532
P8    P     P_3+3 0.095548 0.407647 0.708517 0.969190

loop_
_geom_bond_atom_site_label_1
_geom_bond_atom_site_label_2
_ccdc_geom_bond_type
O32   P5    S    
O1    P1    D    
O16   P3    S    
C4    H20   S    
C45   O3    S    
C45   N7    S    
Ba2   O4    S    
Ba1   O5    S    
C37   H25   S    
C47   H28   S    
O23   P3    S    
C4    O23   S    
C52   O13   S    
C54   N4    S    
C34   H5    S    
H58   O26   S    
C5    C6    A    
O30   P4    S    
C43   C44   S    
C42   C43   S    
Ba2   O5    S    
H36   N4    S    
C41   P7    S    
C24   C25   A    
H32   N1    S    
C52   H45   S    
C16   H29   S    
H59   N11   S    
C33   C35   A    
C22   C24   A    
C59   O26   S    
C28   H31   S    
C45   O25   S    
H48   O25   S    
C1    H65   S    
H49   N7    S    
C55   C57   S    
O2    P5    D    
C19   C31   A    
C16   H6    S    
C13   C14   A    
C20   C36   A    
C55   O12   S    
O13   P1    S    
H37   N4    S    
Ba1   Ba2   S    
H52   N8    S    
Ba1   O15   S    
C7    C11   A    
H55   N10   S    
C28   O30   S    
C54   O18   S    
Ba2   P4    S    
C9    C13   A    
C57   H67   S    
C23   O21   S    
C14   C15   A    
C47   C49   S    
O4    P1    S    
H33   N1    S    
C48   C50   A    
C39   C44   S    
C58   H8    S    
O29   P8    S    
C52   H34   S    
C15   P4    S    
O27   P4    D    
Ba2   O31   S    
H43   N6    S    
O12   P2    S    
H57   N10   S    
C56   N9    S    
C33   P6    S    
C55   O19   S    
O8    P8    D    
C19   C20   A    
C12   O14   S    
C34   O22   S    
C39   C41   D    
O31   P7    S    
C1    H3    S    
H50   N7    S    
C8    H15   S    
H38   N5    S    
C51   P2    S    
C48   C49   A    
H54   N9    S    
C37   C41   S    
C4    C16   S    
C52   C54   S    
Ba1   P2    S    
C40   H12   S    
C7    C60   A    
C26   C30   A    
C23   O7    S    
H42   O21   S    
C3    C5    A    
C2    C21   A    
C6    C7    A    
O11   P6    D    
C5    H13   S    
C18   C26   A    
Ba1   O28   S    
C57   H66   S    
H39   N5    S    
C39   H22   S    
H46   O22   S    
Ba1   O31   S    
O9    P8    S    
H62   N2    S    
C58   C59   S    
C30   C32   A    
C42   P5    S    
Ba1   O16   S    
C35   C36   A    
C57   O20   S    
C22   H17   S    
C29   C30   A    
H53   N9    S    
H64   N3    S    
Ba1   P1    S    
C38   C53   A    
C12   H2    S    
C31   C32   A    
Ba1   O10   S    
C40   N1    S    
C40   H23   S    
C18   C19   A    
C53   P3    S    
C1    C12   S    
C1    O24   S    
O17   P3    D    
C59   H10   S    
H44   N6    S    
C32   N2    S    
C46   H27   S    
O14   P6    S    
C4    N11   S    
H51   N8    S    
C15   C17   A    
C34   N6    S    
Ba2   O28   S    
C50   C51   A    
O15   P2    D    
C43   C46   S    
O28   P4    S    
C46   C47   D    
O5    P2    S    
H61   N2    S    
C23   C34   S    
C14   H14   S    
C3    H11   S    
C28   C40   S    
C23   H4    S    
C2    C3    A    
C36   P1    S    
H47   O24   S    
H40   O19   S    
C54   N5    S    
C9    C10   A    
C56   H7    S    
C37   C42   D    
Ba2   O6    S    
C29   H19   S    
O10   P6    S    
C2    C60   A    
C16   H30   S    
H35   O18   S    
C38   H26   S    
C50   H24   S    
C17   C22   A    
C35   H21   S    
C27   C29   A    
Ba1   O4    S    
C45   C56   S    
H63   N3    S    
C59   H9    S    
C27   H18   S    
C28   N3    S    
C12   H1    S    
C10   C17   A    
C31   C33   A    
O6    P7    D    
C49   C53   A    
C58   O9    S    
O3    P5    S    
C21   H16   S    
C18   C60   A    
H41   O20   S    
C56   N8    S    
Ba1   O1    S    
C8    C9    A    
Ba2   O29   S    
H60   N11   S    
O7    P7    S    
C58   N10   S    
C10   C11   A    
C24   C27   A    
C6    C8    A    
C38   C51   A    
C25   C26   A    
C20   C21   A    
C11   C25   A    
C13   P8    S    
Ba2   O27   S    
Ba2   O32   S    
C55   H56   S    
