data_mof_unit_pretest_1436.cif
_audit_creation_date              2012-10-26T20:22:04-0400
_audit_creation_method            fapswitch 2.2
_symmetry_space_group_name_H-M    P1
_symmetry_Int_Tables_number       1
_space_group_crystal_system       triclinic
_cell_length_a                    10.795648
_cell_length_b                    9.533802
_cell_length_c                    10.678108
_cell_angle_alpha                 89.653801
_cell_angle_beta                  89.951571
_cell_angle_gamma                 90.089289
_cell_volume                      1099.00720311

loop_
_atom_site_label
_atom_site_type_symbol
_atom_type_description
_atom_site_fract_x
_atom_site_fract_y
_atom_site_fract_z
_atom_type_partial_charge
C1    C     C_R   0.871360 0.500504 0.500426 -0.014137
C2    C     C_3   0.401759 0.430904 0.043429 0.185129
C3    C     C_3   0.395363 0.561947 0.958574 -0.071563
C4    C     C_3   0.604638 0.438053 0.041426 -0.071563
C5    C     C_3   0.498376 0.498183 0.875972 0.013121
C6    C     C_3   0.501624 0.501817 0.124028 0.013121
C7    C     C_R   0.426928 0.074778 0.418645 0.034026
C8    C     C_R   0.573072 0.925222 0.581355 0.034027
C9    C     C_R   0.573030 0.073940 0.581381 0.047860
C10   C     C_R   0.426970 0.926060 0.418619 0.047860
C11   C     C_R   0.064556 0.427029 0.595061 -0.044415
C12   C     C_R   0.128640 0.499495 0.499574 -0.014137
C13   C     C_R   0.935444 0.572971 0.404939 -0.044415
C14   C     C_R   0.935168 0.428006 0.595792 -0.043163
C15   C     C_R   0.064832 0.571994 0.404208 -0.043163
C16   C     C_1   0.281387 0.628197 0.912665 0.262903
C17   C     C_1   0.718613 0.371802 0.087335 0.262903
C18   C     C_1   0.131648 0.354439 0.693854 0.239727
C19   C     C_1   0.868352 0.645561 0.306146 0.239727
C20   C     C_1   0.867935 0.359194 0.696947 0.246484
C21   C     C_1   0.132065 0.640806 0.303053 0.246485
C22   C     C_R   0.262646 0.499864 0.499714 0.553014
C23   C     C_R   0.737354 0.500136 0.500286 0.553014
C24   C     C_R   0.500544 0.500579 0.259790 0.602697
C25   C     C_R   0.499455 0.499421 0.740210 0.602697
C26   C     C_3   0.496066 0.632514 0.038518 0.202790
C27   C     C_3   0.503934 0.367486 0.961482 0.202786
C28   C     C_3   0.598241 0.569096 0.956571 0.185134
Cu1   Cu    Cu3+1 0.500000 0.640660 0.500000 1.030827
Cu2   Cu    Cu3+1 0.500000 0.359340 0.500000 1.030827
H1    H     H_    0.368289 0.131037 0.353454 0.148596
H2    H     H_    0.631711 0.868963 0.646546 0.148597
H3    H     H_    0.631547 0.129517 0.646625 0.158473
H4    H     H_    0.368453 0.870483 0.353375 0.158472
H5    H     H_    0.492347 0.830032 0.004326 0.344239
H6    H     H_    0.507647 0.169968 0.995674 0.344240
H7    H     H_    0.745078 0.678949 0.980195 0.365099
H8    H     H_    0.254927 0.321045 0.019804 0.365100
N1    N     N_R   0.500000 0.852070 0.500000 -0.239106
N2    N     N_R   0.500000 0.147930 0.500000 -0.239106
N3    N     N_1   0.191510 0.680295 0.876309 -0.239815
N4    N     N_1   0.808489 0.319704 0.123691 -0.239814
N5    N     N_1   0.185285 0.296412 0.772279 -0.261224
N6    N     N_1   0.814715 0.703589 0.227721 -0.261223
N7    N     N_1   0.814370 0.304621 0.777594 -0.235785
N8    N     N_1   0.185630 0.695379 0.222406 -0.235786
O1    O     O_R   0.319640 0.618740 0.499990 -0.509378
O2    O     O_3   0.506239 0.229056 0.918999 -0.651619
O3    O     O_3   0.699618 0.642057 0.906905 -0.667435
O4    O     O_3   0.300381 0.357943 0.093095 -0.667436
O5    O     O_R   0.680360 0.381260 0.500010 -0.509378
O6    O     O_R   0.680360 0.618740 0.500010 -0.496947
O7    O     O_R   0.319640 0.381260 0.499990 -0.496947
O8    O     O_R   0.499970 0.618770 0.316850 -0.457593
O9    O     O_R   0.500030 0.381230 0.683150 -0.457593
O10   O     O_R   0.500030 0.618770 0.683150 -0.502810
O11   O     O_R   0.499970 0.381230 0.316850 -0.502810
O12   O     O_3   0.493762 0.770944 0.081001 -0.651617

loop_
_geom_bond_atom_site_label_1
_geom_bond_atom_site_label_2
_ccdc_geom_bond_type
C27   O2    S    
C9    N2    A    
C7    C10   A    
C11   C12   A    
C12   C15   A    
C11   C18   S    
C1    C23   S    
C2    C27   S    
H8    O4    S    
C8    N1    A    
C12   C22   S    
C5    C28   S    
H7    O3    S    
C28   O3    S    
C26   C28   S    
C20   N7    T    
C25   O10   A    
C7    N2    A    
C6    C24   S    
Cu1   N1    S    
C2    C3    S    
C6    C26   S    
Cu2   N2    S    
C10   H4    S    
C2    C6    S    
C18   N5    T    
C9    H3    S    
C26   O12   S    
C23   O6    A    
Cu1   Cu2   S    
Cu1   O1    S    
H5    O12   S    
C5    C25   S    
C4    C17   S    
Cu1   O10   S    
Cu2   O5    S    
H6    O2    S    
C22   O7    A    
C13   C15   A    
Cu2   O7    S    
C22   O1    A    
C7    H1    S    
Cu1   O8    S    
C13   C19   S    
C24   O8    A    
C8    H2    S    
Cu2   O11   S    
C14   C20   S    
C15   C21   S    
C4    C27   S    
C1    C13   A    
C19   N6    T    
C8    C9    A    
C4    C6    S    
C21   N8    T    
Cu2   O9    S    
C11   C14   A    
C17   N4    T    
C10   N1    A    
C1    C14   A    
C2    O4    S    
C4    C28   S    
C5    C27   S    
C23   O5    A    
C16   N3    T    
C3    C26   S    
C3    C16   S    
C25   O9    A    
C24   O11   A    
C3    C5    S    
Cu1   O6    S    
