data_mof_unit_pretest_1398.cif
_audit_creation_date              2012-12-10T18:54:32-0500
_audit_creation_method            fapswitch 2.2
_symmetry_space_group_name_H-M    P1
_symmetry_Int_Tables_number       1
_space_group_crystal_system       triclinic
_cell_length_a                    19.418991
_cell_length_b                    18.160884
_cell_length_c                    9.062543
_cell_angle_alpha                 89.81909
_cell_angle_beta                  89.843647
_cell_angle_gamma                 90.007163
_cell_volume                      3196.02331854

loop_
_atom_site_label
_atom_site_type_symbol
_atom_type_description
_atom_site_fract_x
_atom_site_fract_y
_atom_site_fract_z
_atom_type_partial_charge
C1    C     C_R   0.367663 0.500002 0.500027 0.787964
C2    C     C_R   0.632523 0.500008 0.499931 0.791276
C3    C     C_R   0.449250 0.720812 0.572807 0.065867
C4    C     C_R   0.527854 0.278727 0.615919 0.054139
C5    C     C_R   0.550646 0.721389 0.427496 0.058775
C6    C     C_R   0.472114 0.278795 0.384488 0.053560
C7    C     C_R   0.447959 0.798135 0.573716 -0.253288
C8    C     C_R   0.527638 0.201381 0.619260 -0.259671
C9    C     C_R   0.551770 0.798763 0.427476 -0.254223
C10   C     C_R   0.472298 0.201437 0.382010 -0.257424
C11   C     C_R   0.499847 0.838188 0.500932 0.211284
C12   C     C_R   0.499972 0.161252 0.500850 0.185749
C13   C     C_R   0.556720 0.960470 0.558023 0.323833
C14   C     C_R   0.440498 0.037941 0.459704 0.317327
C15   C     C_R   0.443008 0.960468 0.447566 0.299402
C16   C     C_R   0.559349 0.037888 0.543749 0.319613
C17   C     C_R   0.499938 0.078139 0.501392 -0.247785
C18   C     C_R   0.499877 0.920744 0.502429 -0.244487
C19   C     C_R   0.500004 0.500069 0.220452 0.855918
C20   C     C_R   0.499978 0.499928 0.779548 0.856082
C21   C     C_1   0.499989 0.500090 0.065523 -0.189922
C22   C     C_1   0.499980 0.499895 0.934477 -0.190211
C23   C     C_R   0.744659 0.433845 0.481857 -0.180332
C24   C     C_R   0.256229 0.442765 0.431313 -0.182566
C25   C     C_R   0.256125 0.557333 0.568836 -0.182435
C26   C     C_R   0.744586 0.566281 0.517416 -0.182463
C27   C     C_R   0.816372 0.433970 0.481217 -0.092049
C28   C     C_R   0.184512 0.443368 0.429581 -0.074587
C29   C     C_R   0.184401 0.556817 0.570562 -0.071935
C30   C     C_R   0.816300 0.566222 0.517827 -0.089945
C31   C     C_R   0.852356 0.500110 0.499506 0.173876
C32   C     C_R   0.148560 0.500115 0.500062 0.151877
C33   C     C_R   0.708168 0.500041 0.499746 -0.038949
C34   C     C_R   0.292377 0.500025 0.500076 -0.033979
C35   C     C_R   0.964453 0.532319 0.380095 -0.071684
C36   C     C_R   0.036781 0.467991 0.619557 -0.071274
C37   C     C_R   0.037196 0.532343 0.380264 -0.070726
C38   C     C_R   0.964039 0.467967 0.619377 -0.071748
C39   C     C_R   0.072847 0.500166 0.499981 -0.105499
C40   C     C_R   0.928266 0.500127 0.499648 -0.102412
Cu1   Cu    Cu3+1 0.500000 0.573360 0.500000 0.945806
Cu2   Cu    Cu3+1 0.500000 0.426640 0.500000 0.942052
H1    H     H_    0.717871 0.382055 0.467621 0.151875
H2    H     H_    0.283452 0.398317 0.377109 0.143182
H3    H     H_    0.283264 0.601761 0.623009 0.137496
H4    H     H_    0.717740 0.618048 0.531712 0.150401
H5    H     H_    0.843943 0.382645 0.466600 0.135950
H6    H     H_    0.156934 0.399409 0.374916 0.146586
H7    H     H_    0.156737 0.600816 0.625197 0.146524
H8    H     H_    0.843814 0.617569 0.532404 0.137548
H9    H     H_    0.409542 0.690566 0.630898 0.123516
H10   H     H_    0.550238 0.308499 0.707055 0.132023
H11   H     H_    0.590468 0.691576 0.369261 0.127245
H12   H     H_    0.449682 0.308610 0.293092 0.129035
H13   H     H_    0.407301 0.826514 0.632602 0.152538
H14   H     H_    0.548597 0.173227 0.714538 0.164958
H15   H     H_    0.592436 0.827655 0.369256 0.152048
H16   H     H_    0.451280 0.173317 0.287108 0.166744
N1    N     N_R   0.500000 0.683620 0.500000 -0.169215
N2    N     N_R   0.500000 0.316380 0.500000 -0.167115
O1    O     O_R   0.400190 0.561980 0.499980 -0.589585
O2    O     O_R   0.599810 0.438020 0.500020 -0.583286
O3    O     O_R   0.599810 0.561980 0.500020 -0.593759
O4    O     O_R   0.400190 0.438020 0.499980 -0.579534
O5    O     O_R   0.500000 0.561940 0.288400 -0.574031
O6    O     O_R   0.500000 0.438060 0.711600 -0.588483
O7    O     O_R   0.500000 0.561940 0.711600 -0.578295
O8    O     O_R   0.500000 0.438060 0.288400 -0.591364
C41   C     C_2   0.925792 0.566577 0.255790 0.895146
O9    O     O_2   0.940070 0.628936 0.214543 -0.574535
O10   O     O_R   0.872843 0.527562 0.186887 -0.745092
H17   H     H_    0.850198 0.556814 0.104847 0.347526
C42   C     C_2   0.075470 0.436345 0.746646 0.891532
O11   O     O_2   0.059928 0.453481 0.872720 -0.523447
O12   O     O_R   0.129455 0.386925 0.722087 -0.762002
H18   H     H_    0.151804 0.369691 0.817080 0.335417
C43   C     C_2   0.076339 0.564043 0.253402 0.891236
O13   O     O_2   0.061320 0.546860 0.127241 -0.524156
O14   O     O_R   0.130164 0.613556 0.278285 -0.760812
H19   H     H_    0.152870 0.630816 0.183431 0.335453
C44   C     C_2   0.924947 0.433676 0.743495 0.895097
O15   O     O_2   0.939075 0.371308 0.784739 -0.575147
O16   O     O_R   0.871768 0.472669 0.812222 -0.745107
H20   H     H_    0.848841 0.443399 0.894152 0.347246
O17   O     O_3   0.612603 0.924059 0.618730 -0.589081
C45   C     C_3   0.596959 0.902449 0.765547 0.088497
H21   H     H_    0.631564 0.855900 0.794328 0.166924
H22   H     H_    0.543341 0.881363 0.778737 0.122056
C46   C     C_3   0.609972 0.965526 0.874368 -0.309762
H23   H     H_    0.663752 0.985579 0.861744 0.245668
H24   H     H_    0.574360 0.011888 0.850507 0.216472
C47   C     C_3   0.598336 0.940642 0.033581 -0.977274
H25   H     H_    0.544983 0.919791 0.047955 0.246958
H26   H     H_    0.605886 0.987949 0.109116 0.259340
H27   H     H_    0.635378 0.896518 0.063667 0.265835
O18   O     O_3   0.379864 0.073633 0.423269 -0.591865
C48   C     C_3   0.344307 0.093731 0.553839 0.086745
H28   H     H_    0.309555 0.140226 0.525500 0.169215
H29   H     H_    0.379174 0.114371 0.642205 0.125833
C49   C     C_3   0.300442 0.029628 0.612345 -0.330448
H30   H     H_    0.265771 0.009797 0.523536 0.248749
H31   H     H_    0.334324 0.983432 0.646783 0.221708
C50   C     C_3   0.257262 0.052970 0.745079 -0.918795
H32   H     H_    0.291151 0.071890 0.835974 0.254984
H33   H     H_    0.226498 0.005371 0.785213 0.268219
H34   H     H_    0.221514 0.098105 0.713805 0.267984
O19   O     O_3   0.388010 0.923559 0.385522 -0.584498
C51   C     C_3   0.400075 0.918357 0.232064 0.093779
H35   H     H_    0.446749 0.884367 0.210094 0.130706
H36   H     H_    0.407104 0.974070 0.181935 0.153933
C52   C     C_3   0.338430 0.881513 0.158546 -0.299011
H37   H     H_    0.331344 0.825373 0.205440 0.227055
H38   H     H_    0.291175 0.914156 0.181283 0.231633
C53   C     C_3   0.348761 0.875804 0.991787 -0.955195
H39   H     H_    0.354532 0.931502 0.942179 0.258650
H40   H     H_    0.303340 0.848633 0.941490 0.266789
H41   H     H_    0.395337 0.842607 0.966318 0.251468
O20   O     O_3   0.619881 0.073701 0.580117 -0.594087
C54   C     C_3   0.655435 0.094358 0.449678 0.081770
H42   H     H_    0.688228 0.142542 0.476891 0.166494
H43   H     H_    0.620532 0.112687 0.359072 0.124038
C55   C     C_3   0.701985 0.031700 0.395850 -0.326701
H44   H     H_    0.736689 0.014173 0.486744 0.249020
H45   H     H_    0.670011 0.983805 0.362940 0.225926
C56   C     C_3   0.745306 0.055707 0.263469 -0.916344
H46   H     H_    0.711531 0.072897 0.170810 0.256449
H47   H     H_    0.777791 0.008993 0.226143 0.269719
H48   H     H_    0.779432 0.102280 0.294082 0.264284

loop_
_geom_bond_atom_site_label_1
_geom_bond_atom_site_label_2
_ccdc_geom_bond_type
C15   C18   A    
C11   C18   S    
Cu2   O4    S    
Cu1   Cu2   S    
C20   O7    A    
C52   H37   S    
C7    H13   S    
C4    C8    A    
C8    H14   S    
C48   H28   S    
Cu1   O7    S    
C29   H7    S    
C43   O13   D    
C51   H35   S    
C7    C11   A    
C13   C18   A    
C4    H10   S    
C20   O6    A    
C10   H16   S    
C29   C32   A    
C3    C7    A    
C30   C31   A    
C45   H22   S    
C27   H5    S    
C23   H1    S    
C31   C40   S    
C42   O11   D    
C32   C39   S    
C15   O19   S    
C41   O10   S    
O20   C54   S    
C49   H30   S    
C48   H29   S    
C16   C17   A    
C23   C33   A    
C12   C17   S    
C56   H48   S    
O19   C51   S    
Cu1   O1    S    
C46   H24   S    
Cu2   O2    S    
C25   C34   A    
C43   O14   S    
C30   H8    S    
C21   C22   T    
Cu2   O8    S    
C42   O12   S    
C14   C17   A    
C52   C53   S    
C6    H12   S    
C14   O18   S    
C44   O16   S    
C1    C34   S    
C44   O15   D    
C54   H43   S    
C25   C29   A    
C5    N1    A    
C27   C31   A    
C6    N2    A    
C28   C32   A    
Cu1   N1    S    
C52   H38   S    
Cu2   N2    S    
C3    H9    S    
C45   H21   S    
Cu1   O5    S    
O17   C45   S    
C37   C43   S    
C49   C50   S    
C24   C34   A    
O12   H18   S    
C5    C9    A    
C16   O20   S    
C26   C33   A    
O16   H20   S    
C8    C12   A    
O18   C48   S    
C4    N2    A    
C49   H31   S    
C19   O8    A    
C50   H33   S    
C46   C47   S    
C9    C11   A    
C10   C12   A    
C2    C33   S    
C20   C22   S    
C26   C30   A    
C23   C27   A    
C38   C44   S    
C56   H46   S    
C24   H2    S    
Cu1   O3    S    
C55   H45   S    
C1    O4    A    
C25   H3    S    
C48   C49   S    
C2    O3    A    
Cu2   O6    S    
C54   C55   S    
C5    H11   S    
C28   H6    S    
C35   C37   A    
C36   C39   A    
C24   C28   A    
C45   C46   S    
C1    O1    A    
C6    C10   A    
C53   H40   S    
C54   H42   S    
C53   H39   S    
C51   C52   S    
C55   C56   S    
C36   C38   A    
C35   C40   A    
C46   H23   S    
O10   H17   S    
C37   C39   A    
C38   C40   A    
C47   H26   S    
C47   H25   S    
C51   H36   S    
C19   O5    A    
C50   H34   S    
C9    H15   S    
C47   H27   S    
C41   O9    D    
C53   H41   S    
C36   C42   S    
C26   H4    S    
O14   H19   S    
C35   C41   S    
C13   C16   A    
C13   O17   S    
C50   H32   S    
C56   H47   S    
C14   C15   A    
C55   H44   S    
C2    O2    A    
C19   C21   S    
C3    N1    A    
