data_mof_unit_pretest_1596.cif
_audit_creation_date              2012-12-10T21:03:39-0500
_audit_creation_method            fapswitch 2.2
_symmetry_space_group_name_H-M    P1
_symmetry_Int_Tables_number       1
_space_group_crystal_system       triclinic
_cell_length_a                    15.754272
_cell_length_b                    15.053957
_cell_length_c                    23.463112
_cell_angle_alpha                 90.00615
_cell_angle_beta                  89.994861
_cell_angle_gamma                 90.018357
_cell_volume                      5564.6082809

loop_
_atom_site_label
_atom_site_type_symbol
_atom_type_description
_atom_site_fract_x
_atom_site_fract_y
_atom_site_fract_z
_atom_type_partial_charge
C1    C     C_R   0.338464 0.499988 0.499859 0.903312
C2    C     C_R   0.661535 0.500010 0.499802 0.907555
C3    C     C_R   0.520453 0.430034 0.234645 0.452527
C4    C     C_R   0.520295 0.429958 0.765372 0.453016
C5    C     C_R   0.524091 0.426622 0.294268 0.044284
C6    C     C_R   0.523827 0.426491 0.705745 0.046344
C7    C     C_R   0.498192 0.500810 0.326632 -0.172890
C8    C     C_R   0.498344 0.500843 0.673388 -0.173068
C9    C     C_R   0.469363 0.577807 0.299256 -0.226749
C10   C     C_R   0.470022 0.578040 0.700790 -0.224218
C11   C     C_R   0.465634 0.582095 0.240358 0.120379
C12   C     C_R   0.466357 0.582359 0.759691 0.120299
C13   C     C_R   0.491130 0.508461 0.207883 0.142183
C14   C     C_R   0.491440 0.508570 0.792150 0.141877
C15   C     C_R   0.955910 0.581740 0.466784 0.427641
C16   C     C_R   0.044102 0.418286 0.466697 0.427853
C17   C     C_R   0.044185 0.581720 0.466804 0.426669
C18   C     C_R   0.955826 0.418307 0.466669 0.426680
C19   C     C_R   0.912014 0.500029 0.469582 -0.299080
C20   C     C_R   0.087994 0.499989 0.469629 -0.299009
C21   C     C_1   0.823706 0.500031 0.481358 0.007547
C22   C     C_1   0.176294 0.499961 0.481426 0.007427
C23   C     C_1   0.250309 0.499962 0.491179 -0.157849
C24   C     C_1   0.749688 0.500027 0.491109 -0.157952
C25   C     C_R   0.500308 0.499981 0.388954 0.926553
C26   C     C_R   0.500369 0.499988 0.611052 0.930021
C27   C     C_R   0.479808 0.953091 0.450363 -0.141594
C28   C     C_R   0.520253 0.046929 0.549627 -0.141748
C29   C     C_R   0.520246 0.953122 0.549628 -0.141513
C30   C     C_R   0.479822 0.046898 0.450360 -0.141811
C31   C     C_R   0.500019 0.905053 0.499997 0.071390
C32   C     C_R   0.500037 0.094961 0.499993 0.069980
C33   C     C_1   0.500007 0.807207 0.499999 0.069023
C34   C     C_1   0.500019 0.192798 0.499996 0.072274
C35   C     C_R   0.559647 0.543803 0.880820 0.501560
C36   C     C_R   0.416919 0.488713 0.119274 0.498256
C37   C     C_R   0.417089 0.488825 0.880708 0.498735
C38   C     C_R   0.559442 0.543789 0.119267 0.501988
C39   C     C_R   0.414567 0.490721 0.940185 -0.018853
C40   C     C_R   0.560125 0.546924 0.059822 -0.019244
C41   C     C_R   0.487159 0.519405 0.970084 -0.020456
C42   C     C_R   0.487111 0.519389 0.029951 -0.020502
C43   C     C_R   0.560227 0.546933 0.940266 -0.019149
C44   C     C_R   0.414480 0.490667 0.059797 -0.018481
C45   C     C_R   0.342074 0.463583 0.970295 -0.146747
C46   C     C_R   0.632087 0.575571 0.029728 -0.146509
C47   C     C_R   0.342033 0.463550 0.029634 -0.146990
C48   C     C_R   0.632140 0.575569 0.970414 -0.146523
H1    H     H_    0.285527 0.441562 0.948157 0.197992
H2    H     H_    0.688755 0.597271 0.051858 0.197777
H3    H     H_    0.285456 0.441505 0.051729 0.197849
H4    H     H_    0.688846 0.597269 0.948326 0.197804
H5    H     H_    0.448913 0.635035 0.323699 0.193247
H6    H     H_    0.449896 0.635404 0.676369 0.194666
H7    H     H_    0.463987 0.081953 0.411474 0.144100
H8    H     H_    0.536087 0.918073 0.588513 0.145438
H9    H     H_    0.536096 0.082009 0.588511 0.144194
H10   H     H_    0.463958 0.918018 0.411479 0.144326
N1    N     N_R   0.489058 0.514497 0.852694 -0.364513
N2    N     N_R   0.488826 0.514420 0.147340 -0.364383
N3    N     N_1   0.500000 0.270550 0.500000 -0.080659
N4    N     N_1   0.500000 0.729450 0.500000 -0.084176
O1    O     O_R   0.378020 0.573650 0.500020 -0.609149
O2    O     O_R   0.621980 0.426350 0.499980 -0.605783
O3    O     O_R   0.621980 0.573650 0.499980 -0.604350
O4    O     O_R   0.378020 0.426350 0.500020 -0.607047
O5    O     O_R   0.499980 0.573680 0.416160 -0.624727
O6    O     O_R   0.500020 0.426320 0.583840 -0.589447
O7    O     O_R   0.500020 0.573680 0.583840 -0.623685
O8    O     O_R   0.499980 0.426320 0.416160 -0.591021
O9    O     O_2   0.629011 0.569013 0.851163 -0.541306
O10   O     O_2   0.348596 0.460742 0.148990 -0.542870
O11   O     O_2   0.348788 0.460941 0.850941 -0.541226
O12   O     O_2   0.628735 0.569053 0.148976 -0.541536
Zn1   Zn    Zn3+2 0.500000 0.598370 0.500000 0.993866
Zn2   Zn    Zn3+2 0.500000 0.401630 0.500000 1.009724
O13   O     O_3   0.546607 0.356034 0.204391 -0.757342
H11   H     H_    0.540126 0.366385 0.163010 0.348706
O14   O     O_3   0.546055 0.355805 0.795612 -0.757479
H12   H     H_    0.539929 0.366308 0.837002 0.348746
N5    N     N_3   0.555947 0.348401 0.321864 -0.409363
H13   H     H_    0.617744 0.336859 0.307396 0.226578
H14   H     H_    0.518139 0.294496 0.309784 0.226969
N6    N     N_3   0.555126 0.348019 0.678139 -0.408962
H15   H     H_    0.516969 0.294401 0.690249 0.227199
H16   H     H_    0.616858 0.336027 0.692571 0.226723
N7    N     N_3   0.435872 0.662073 0.214011 -0.436551
H17   H     H_    0.483707 0.686369 0.187357 0.212626
H18   H     H_    0.383188 0.646521 0.188833 0.214286
N8    N     N_3   0.437027 0.662508 0.786056 -0.435402
H19   H     H_    0.384304 0.647248 0.811274 0.214524
H20   H     H_    0.485016 0.686557 0.812673 0.212540
O15   O     O_3   0.084762 0.663311 0.466174 -0.671739
H21   H     H_    0.145890 0.655448 0.457988 0.341946
O16   O     O_3   0.915245 0.336721 0.465905 -0.671321
H22   H     H_    0.854130 0.344613 0.457694 0.342455
O17   O     O_3   0.915417 0.663349 0.466139 -0.670504
H23   H     H_    0.854288 0.655512 0.457938 0.343456
O18   O     O_3   0.084595 0.336678 0.465963 -0.670651
H24   H     H_    0.145741 0.344538 0.457823 0.343024

loop_
_geom_bond_atom_site_label_1
_geom_bond_atom_site_label_2
_ccdc_geom_bond_type
C38   C40   A    
N7    H17   S    
O15   H21   S    
C8    C26   S    
C41   C42   A    
O16   H22   S    
C25   O5    A    
C2    O3    A    
O17   H23   S    
C39   C41   A    
C13   N2    S    
O13   H11   S    
C15   C19   A    
C14   N1    S    
C12   N8    S    
C28   C29   A    
C19   C21   S    
N6    H16   S    
C17   C20   A    
C35   N1    A    
C18   C19   A    
C17   O15   S    
C11   N7    S    
C33   N4    T    
C31   C33   S    
C35   C43   A    
C43   C48   A    
C3    C13   A    
C44   C47   A    
C39   C45   A    
C40   C42   A    
C35   O9    S    
C27   C30   A    
C18   O16   S    
C41   C43   A    
C42   C44   A    
C15   O17   S    
C1    O1    A    
N5    H14   S    
C2    O2    A    
N5    H13   S    
C45   C47   A    
N3    Zn2   S    
C37   C39   A    
C46   C48   A    
C6    N6    S    
C27   C31   A    
C28   C32   A    
N6    H15   S    
C4    O14   S    
C4    C6    A    
C5    C7    A    
C47   H3    S    
C3    C5    A    
C28   H9    S    
C34   N3    T    
C32   C34   S    
C40   C46   A    
C5    N5    S    
N8    H20   S    
O18   H24   S    
C45   H1    S    
C16   C20   A    
O4    Zn2   S    
C1    O4    A    
O2    Zn2   S    
C9    C11   A    
C37   N1    A    
C10   C12   A    
C38   N2    A    
C8    C10   A    
C20   C22   S    
C1    C23   S    
N7    H18   S    
C2    C24   S    
N4    Zn1   S    
C36   C44   A    
C9    H5    S    
O8    Zn2   S    
C3    O13   S    
C38   O12   S    
C15   C17   A    
C37   O11   S    
C12   C14   A    
C36   N2    A    
C27   H10   S    
O3    Zn1   S    
C6    C8    A    
C16   O18   S    
C29   H8    S    
O6    Zn2   S    
C30   H7    S    
C46   H2    S    
C7    C25   S    
C26   O6    A    
C29   C31   A    
C30   C32   A    
C11   C13   A    
N8    H19   S    
O1    Zn1   S    
O7    Zn1   S    
C4    C14   A    
C10   H6    S    
O14   H12   S    
C7    C9    A    
C48   H4    S    
O5    Zn1   S    
C16   C18   A    
C21   C24   T    
C26   O7    A    
C22   C23   T    
C25   O8    A    
C36   O10   S    
