data_mof_unit_pretest_152.cif
_audit_creation_date              2012-12-10T19:04:12-0500
_audit_creation_method            fapswitch 2.2
_symmetry_space_group_name_H-M    P1
_symmetry_Int_Tables_number       1
_space_group_crystal_system       triclinic
_cell_length_a                    10.631055
_cell_length_b                    10.853532
_cell_length_c                    9.562468
_cell_angle_alpha                 90.17186
_cell_angle_beta                  90.691283
_cell_angle_gamma                 90.456905
_cell_volume                      1103.23987344

loop_
_atom_site_label
_atom_site_type_symbol
_atom_type_description
_atom_site_fract_x
_atom_site_fract_y
_atom_site_fract_z
_atom_type_partial_charge
C1    C     C_R   0.500182 0.262761 0.499741 0.807904
C2    C     C_3   0.957425 0.602802 0.436106 -0.229474
C3    C     C_3   0.038219 0.502334 0.365614 -0.167748
C4    C     C_3   0.122791 0.499188 0.497181 -0.035611
C5    C     C_R   0.494653 0.062288 0.620497 0.127093
C6    C     C_R   0.501688 0.130116 0.498077 -0.103622
C7    C     C_R   0.510545 0.064299 0.371061 -0.201774
C8    C     C_R   0.510766 0.935084 0.371208 -0.224405
C9    C     C_R   0.502135 0.869865 0.498394 -0.109906
C10   C     C_R   0.494987 0.938266 0.620647 0.128467
C11   C     C_3   0.481710 0.929603 0.775212 -0.465605
C12   C     C_R   0.259479 0.499689 0.499103 0.798280
C13   C     C_3   0.481299 0.071539 0.775111 -0.473046
C14   C     C_R   0.564478 0.588778 0.074784 0.241660
C15   C     C_R   0.424646 0.421262 0.072042 0.031448
C16   C     C_R   0.425568 0.421104 0.923410 -0.110353
C17   C     C_R   0.564238 0.588902 0.927643 0.265415
C18   C     C_3   0.701951 0.615042 0.923827 -0.519557
C19   C     C_3   0.702220 0.615135 0.082556 -0.499576
C20   C     C_R   0.500482 0.737227 0.499968 0.795007
C21   C     C_R   0.740623 0.499963 0.500762 0.794019
C22   C     C_3   0.042251 0.396751 0.562142 -0.203537
C23   C     C_3   0.955577 0.399742 0.430719 -0.144273
C24   C     C_3   0.877418 0.499926 0.501868 -0.025683
C25   C     C_3   0.961656 0.496533 0.633903 -0.144988
C26   C     C_3   0.042740 0.596836 0.566304 0.307961
Cu1   Cu    Cu3+1 0.499990 0.499980 0.640670 0.943374
Cu2   Cu    Cu3+1 0.500010 0.500020 0.359330 0.947784
H1    H     H_    0.916098 0.318136 0.374786 0.136753
H2    H     H_    0.566279 0.889651 0.826676 0.192300
H3    H     H_    0.389574 0.111489 0.805424 0.193629
H4    H     H_    0.565589 0.113678 0.826560 0.200973
H5    H     H_    0.367297 0.356088 0.865314 0.139195
H6    H     H_    0.755782 0.537302 0.879557 0.213186
H7    H     H_    0.723097 0.706856 0.878249 0.186159
H8    H     H_    0.757231 0.537984 0.127954 0.222859
H9    H     H_    0.723060 0.707218 0.128887 0.188914
H10   H     H_    0.079820 0.312438 0.612502 0.137945
H11   H     H_    0.930659 0.494518 0.744055 0.128833
H12   H     H_    0.920334 0.687649 0.386469 0.133258
H13   H     H_    0.071969 0.503858 0.256202 0.156009
H14   H     H_    0.517043 0.111838 0.271958 0.171804
H15   H     H_    0.517374 0.887057 0.272139 0.166996
H16   H     H_    0.390244 0.887793 0.805511 0.205869
N1    N     N_R   0.500800 0.500930 0.147930 -0.209646
N2    N     N_R   0.500800 0.500890 0.852020 -0.187979
O1    O     O_R   0.500000 0.319640 0.618810 -0.586276
O2    O     O_R   0.500010 0.319680 0.381230 -0.580513
O3    O     O_R   0.316850 0.499950 0.618770 -0.574241
O4    O     O_R   0.316860 0.499990 0.381190 -0.580411
O5    O     O_R   0.499990 0.680320 0.618770 -0.576509
O6    O     O_R   0.500000 0.680360 0.381190 -0.588633
O7    O     O_R   0.683140 0.500010 0.618810 -0.588298
O8    O     O_R   0.683150 0.500050 0.381230 -0.586334
C27   C     C_1   0.342326 0.335625 0.140947 0.279063
N3    N     N_1   0.275545 0.266579 0.195453 -0.315882
N4    N     N_2   0.095312 0.703154 0.638342 -0.423090
H17   H     H_    0.158176 0.752027 0.578288 0.240515
C28   C     C_3   0.004259 0.780579 0.706096 -0.705733
H18   H     H_    0.053795 0.856861 0.762064 0.228359
H19   H     H_    0.950240 0.726615 0.783806 0.234014
H20   H     H_    0.938614 0.820497 0.627407 0.217657

loop_
_geom_bond_atom_site_label_1
_geom_bond_atom_site_label_2
_ccdc_geom_bond_type
C12   O4    A    
C23   C24   S    
Cu1   O7    S    
C1    O2    A    
C6    C7    A    
C2    H12   S    
C16   H5    S    
C4    C12   S    
C4    C22   S    
C18   H7    S    
C25   H11   S    
C9    C20   S    
C5    C13   S    
C8    H15   S    
C27   N3    T    
C12   O3    A    
C21   C24   S    
C5    C10   A    
C2    C26   S    
C28   H18   S    
C24   C25   S    
C21   O7    A    
Cu2   O6    S    
C14   C17   A    
N4    H17   S    
C21   O8    A    
Cu2   O4    S    
Cu1   O3    S    
C23   H1    S    
Cu1   N2    S    
Cu1   O5    S    
C17   C18   S    
C20   O5    A    
C2    C3    S    
C19   H8    S    
C18   H6    S    
C2    C24   S    
C5    C6    A    
Cu2   N1    S    
C26   N4    S    
C4    C26   S    
N4    C28   S    
C28   H19   S    
C10   C11   S    
C15   N1    A    
Cu1   O1    S    
C1    C6    S    
C22   H10   S    
C11   H16   S    
C11   C13   S    
C17   N2    A    
C3    H13   S    
C20   O6    A    
C18   C19   S    
C9    C10   A    
C7    H14   S    
C16   N2    A    
Cu1   Cu2   S    
C7    C8    A    
Cu2   O8    S    
C22   C23   S    
Cu2   O2    S    
C28   H20   S    
C19   H9    S    
C14   N1    A    
C25   C26   S    
C13   H4    S    
C3    C23   S    
C14   C19   S    
C13   H3    S    
C1    O1    A    
C3    C4    S    
C15   C16   A    
C11   H2    S    
C8    C9    A    
C22   C25   S    
C15   C27   S    
