data_mof_unit_pretest_1247.cif
_audit_creation_date              2013-03-05T16:47:36-0500
_audit_creation_method            fapswitch 2.2
_symmetry_space_group_name_H-M    P1
_symmetry_Int_Tables_number       1
_space_group_crystal_system       triclinic
_cell_length_a                    18.204706
_cell_length_b                    18.168859
_cell_length_c                    18.33558
_cell_angle_alpha                 119.657554
_cell_angle_beta                  90.196776
_cell_angle_gamma                 119.883348
_cell_volume                      4310.65904425

loop_
_atom_site_label
_atom_site_type_symbol
_atom_site_description
_atom_site_fract_x
_atom_site_fract_y
_atom_site_fract_z
_atom_type_partial_charge
Zn1   Zn    Zn3+2 0.207400 0.586780 0.791530 1.034689
Zn2   Zn    Zn3+2 0.792600 0.413220 0.208470 1.034688
Zn3   Zn    Zn3+2 0.208510 0.413230 0.792630 1.032817
Zn4   Zn    Zn3+2 0.791490 0.586770 0.207370 1.032817
Zn5   Zn    Zn3+2 0.383150 0.586740 0.791530 1.070731
Zn6   Zn    Zn3+2 0.616850 0.413260 0.208470 1.070733
Zn7   Zn    Zn3+2 0.207400 0.413250 0.618010 1.104106
Zn8   Zn    Zn3+2 0.792600 0.586750 0.381990 1.104106
O1    O     O_3   0.251620 0.500000 0.748430 -0.553237
O2    O     O_3   0.748380 0.500000 0.251570 -0.553237
O3    O     O_R   0.134680 0.268390 0.572240 -0.551248
O4    O     O_R   0.865320 0.731610 0.427760 -0.551248
O5    O     O_R   0.306670 0.731630 0.863510 -0.617001
O6    O     O_R   0.693330 0.268370 0.136490 -0.617001
O7    O     O_R   0.135450 0.439270 0.865360 -0.589066
O8    O     O_R   0.864550 0.560730 0.134640 -0.589065
O9    O     O_R   0.429670 0.560710 0.692610 -0.619663
O10   O     O_R   0.570330 0.439290 0.307390 -0.619661
O11   O     O_R   0.308540 0.439240 0.865360 -0.661430
O12   O     O_R   0.691460 0.560760 0.134640 -0.661431
O13   O     O_R   0.133580 0.439310 0.571150 -0.619771
O14   O     O_R   0.866420 0.560690 0.428850 -0.619771
O15   O     O_R   0.430770 0.560690 0.864590 -0.635169
O16   O     O_R   0.569230 0.439310 0.135410 -0.635167
O17   O     O_R   0.133580 0.560760 0.692610 -0.618755
O18   O     O_R   0.866420 0.439240 0.307390 -0.618755
O19   O     O_R   0.134680 0.560740 0.864590 -0.665199
O20   O     O_R   0.865320 0.439260 0.135410 -0.665199
O21   O     O_R   0.306670 0.439270 0.571150 -0.602933
O22   O     O_R   0.693330 0.560730 0.428850 -0.602934
O23   O     O_R   0.135450 0.268370 0.694460 -0.655343
O24   O     O_R   0.864550 0.731630 0.305540 -0.655343
O25   O     O_R   0.429670 0.731610 0.863510 -0.584694
O26   O     O_R   0.570330 0.268390 0.136490 -0.584694
C1    C     C_R   0.110749 0.220073 0.609845 0.900468
C2    C     C_R   0.889251 0.779926 0.390155 0.900469
C3    C     C_R   0.392637 0.780873 0.887974 0.979012
C4    C     C_R   0.607363 0.219127 0.112026 0.979012
C5    C     C_R   0.109574 0.499179 0.888388 0.894633
C6    C     C_R   0.890426 0.500821 0.111612 0.894633
C7    C     C_R   0.392121 0.500487 0.607857 0.938643
C8    C     C_R   0.607879 0.499513 0.392143 0.938643
C9    C     C_R   0.393765 0.499263 0.887978 0.874082
C10   C     C_R   0.606235 0.500737 0.112022 0.874084
C11   C     C_R   0.109048 0.500160 0.607805 0.905540
C12   C     C_R   0.890951 0.499840 0.392195 0.905539
C13   C     C_3   0.021514 0.434496 0.448227 -0.202377
C14   C     C_3   0.978486 0.565504 0.551773 -0.202377
C15   C     C_3   0.044959 0.531012 0.451374 -0.293126
C16   C     C_3   0.955041 0.468988 0.548626 -0.293126
H1    H     H_    0.081606 0.557799 0.411969 0.233650
H2    H     H_    0.918394 0.442201 0.588031 0.233649
H3    H     H_    0.038898 0.379950 0.406566 0.258607
H4    H     H_    0.961102 0.620050 0.593434 0.258607
C17   C     C_3   0.948955 0.500307 0.449230 -0.232094
C18   C     C_3   0.051045 0.499693 0.550770 -0.232094
C19   C     C_3   0.925904 0.405407 0.446225 0.748474
C20   C     C_3   0.074096 0.594593 0.553775 0.748474
C21   C     C_3   0.415765 0.965060 0.967260 0.670394
C22   C     C_3   0.584235 0.034940 0.032740 0.670394
C23   C     C_3   0.496860 0.037357 0.952612 -0.452060
C24   C     C_3   0.503140 0.962643 0.047388 -0.452061
H5    H     H_    0.493829 0.067499 0.913598 0.266151
H6    H     H_    0.506171 0.932501 0.086402 0.266151
C25   C     C_3   0.550243 0.103227 0.052776 -0.444656
C26   C     C_3   0.449757 0.896773 0.947224 -0.444657
C27   C     C_3   0.469049 0.031267 0.066592 0.660218
C28   C     C_3   0.530951 0.968733 0.933408 0.660217
C29   C     C_3   0.424184 0.481413 0.458847 -0.342979
C30   C     C_3   0.575816 0.518587 0.541153 -0.342976
C31   C     C_3   0.454858 0.407852 0.421888 0.691066
C32   C     C_3   0.545142 0.592148 0.578112 0.691065
H7    H     H_    0.362669 0.466734 0.425702 0.272595
H8    H     H_    0.637331 0.533266 0.574298 0.272599
C33   C     C_3   0.551609 0.499248 0.449305 -0.343111
C34   C     C_3   0.448391 0.500752 0.550695 -0.343109
C35   C     C_3   0.522018 0.572423 0.487100 0.157758
C36   C     C_3   0.477982 0.427577 0.512899 0.157759
C37   C     C_R   0.211137 0.194361 0.813092 -0.172686
C38   C     C_R   0.788863 0.805638 0.186908 -0.172684
H9    H     H_    0.282816 0.235107 0.840881 0.205806
H10   H     H_    0.717184 0.764891 0.159119 0.205804
C39   C     C_R   0.172718 0.148773 0.723428 -0.192128
C40   C     C_R   0.827282 0.851227 0.276572 -0.192128
H11   H     H_    0.215274 0.154044 0.682499 0.202133
H12   H     H_    0.784726 0.845956 0.317500 0.202133
C41   C     C_R   0.080180 0.098681 0.687001 0.090957
C42   C     C_R   0.919820 0.901319 0.312999 0.090956
C43   C     C_R   0.025049 0.090791 0.741155 0.288168
C44   C     C_R   0.974951 0.909209 0.258845 0.288168
C45   C     C_R   0.064811 0.134597 0.830609 -0.159874
C46   C     C_R   0.935189 0.865403 0.169390 -0.159873
H13   H     H_    0.024330 0.130270 0.873415 0.226477
H14   H     H_    0.975670 0.869730 0.126585 0.226477
C47   C     C_R   0.157253 0.187492 0.866622 0.696163
C48   C     C_R   0.842747 0.812508 0.133378 0.696164
C49   C     C_R   0.988668 0.943737 0.535456 0.656527
C50   C     C_R   0.011331 0.056263 0.464544 0.656527
C51   C     C_R   0.945761 0.892259 0.444913 -0.260688
C52   C     C_R   0.054239 0.107741 0.555087 -0.260687
C53   C     C_R   0.958387 0.949308 0.408816 -0.127352
C54   C     C_R   0.041613 0.050692 0.591183 -0.127352
C55   C     C_R   0.657680 0.577153 0.791433 0.549444
C56   C     C_R   0.342318 0.422848 0.208565 0.549449
C57   C     C_R   0.602354 0.531072 0.830042 0.126841
C58   C     C_R   0.397644 0.468928 0.169956 0.126845
C59   C     C_R   0.589001 0.591590 0.907249 -0.223215
C60   C     C_R   0.410999 0.408409 0.092750 -0.223217
C61   C     C_R   0.630341 0.698089 0.944260 0.238050
C62   C     C_R   0.369659 0.301911 0.055741 0.238053
C63   C     C_R   0.683881 0.742407 0.902779 0.120401
C64   C     C_R   0.316118 0.257594 0.097223 0.120401
C65   C     C_R   0.698533 0.682068 0.826785 0.073831
C66   C     C_R   0.301466 0.317933 0.173215 0.073826
C67   C     C_R   0.590985 0.544263 0.010695 -0.218163
C68   C     C_R   0.409015 0.455736 0.989305 -0.218163
H15   H     H_    0.661385 0.577055 0.017585 0.204274
H16   H     H_    0.338615 0.422944 0.982414 0.204275
C69   C     C_R   0.550471 0.499404 0.055517 0.000705
C70   C     C_R   0.449528 0.500596 0.944482 0.000711
C71   C     C_R   0.458202 0.453728 0.044531 0.170998
C72   C     C_R   0.541798 0.546271 0.955468 0.171006
C73   C     C_R   0.169252 0.829774 0.005119 0.530091
C74   C     C_R   0.830748 0.170226 0.994881 0.530090
C75   C     C_R   0.143075 0.753985 0.020885 0.518617
C76   C     C_R   0.856925 0.246015 0.979115 0.518617
C77   C     C_R   0.065186 0.653873 0.961410 -0.105510
C78   C     C_R   0.934814 0.346127 0.038590 -0.105510
C79   C     C_R   0.013730 0.630394 0.886272 -0.312703
C80   C     C_R   0.986270 0.369606 0.113728 -0.312702
H17   H     H_    0.953032 0.553126 0.841512 0.250175
H18   H     H_    0.046968 0.446874 0.158488 0.250175
C81   C     C_R   0.039720 0.706022 0.869439 0.126239
C82   C     C_R   0.960280 0.293979 0.130561 0.126237
C83   C     C_R   0.118566 0.806271 0.929750 0.526175
C84   C     C_R   0.881434 0.193730 0.070251 0.526176
C85   C     C_R   0.983491 0.576817 0.037744 0.308843
C86   C     C_R   0.016509 0.423183 0.962256 0.308842
C87   C     C_R   0.948335 0.501571 0.056510 -0.235237
C88   C     C_R   0.051665 0.498429 0.943490 -0.235237
C89   C     C_R   0.966552 0.425504 0.019525 0.014854
C90   C     C_R   0.033447 0.574496 0.980475 0.014854
F1    F     F_    0.194427 0.232948 0.953992 -0.648241
F2    F     F_    0.805573 0.767051 0.046008 -0.648241
N1    N     N_R   0.929783 0.040188 0.707243 0.266840
O27   O     O_R   0.896699 0.043432 0.646721 -0.316194
O28   O     O_R   0.876713 0.000482 0.743869 -0.219559
N2    N     N_R   0.070217 0.959812 0.292757 0.266840
O29   O     O_R   0.103301 0.956569 0.353279 -0.316194
O30   O     O_R   0.123287 0.999518 0.256131 -0.219559
F3    F     F_    0.980836 0.890436 0.570630 -0.594898
F4    F     F_    0.019164 0.109564 0.429370 -0.594898
N3    N     N_R   0.754106 0.726264 0.784538 0.270862
O31   O     O_R   0.801389 0.693416 0.746110 -0.226183
O32   O     O_R   0.755340 0.796614 0.780967 -0.188655
N4    N     N_R   0.245893 0.273739 0.215463 0.270860
O33   O     O_R   0.198610 0.306588 0.253891 -0.226183
O34   O     O_R   0.244659 0.203391 0.219036 -0.188658
F5    F     F_    0.669405 0.518238 0.716815 -0.539467
F6    F     F_    0.330592 0.481764 0.283182 -0.539462
N5    N     N_R   0.561639 0.423071 0.791424 0.268532
O35   O     O_R   0.478165 0.362793 0.782126 -0.372220
O36   O     O_R   0.605912 0.382820 0.759585 -0.207653
N6    N     N_R   0.438359 0.576927 0.208572 0.268535
O37   O     O_R   0.521838 0.637209 0.217884 -0.372212
O38   O     O_R   0.394078 0.617173 0.240392 -0.207671
N7    N     N_R   0.623270 0.763036 0.026816 0.239255
O39   O     O_R   0.547005 0.731198 0.041488 -0.360848
O40   O     O_R   0.693132 0.855695 0.087585 -0.258441
N8    N     N_R   0.376730 0.236962 0.973185 0.239257
O41   O     O_R   0.452994 0.268801 0.958513 -0.360847
O42   O     O_R   0.306868 0.144303 0.912417 -0.258438
N9    N     N_R   0.725516 0.849760 0.939678 0.314483
O43   O     O_R   0.812502 0.912860 0.966028 -0.188095
O44   O     O_R   0.676812 0.885431 0.950407 -0.172890
N10   N     N_R   0.274484 0.150241 0.060325 0.314484
O45   O     O_R   0.187498 0.087141 0.033975 -0.188094
O46   O     O_R   0.323188 0.114571 0.049597 -0.172889
F7    F     F_    0.146367 0.881881 0.916551 -0.461087
F8    F     F_    0.853633 0.118119 0.083450 -0.461087
F9    F     F_    0.243448 0.927096 0.064005 -0.452820
F10   F     F_    0.756552 0.072904 0.935995 -0.452820
F11   F     F_    0.192743 0.778233 0.094573 -0.543414
F12   F     F_    0.807257 0.221767 0.905427 -0.543415
N11   N     N_R   0.985311 0.680905 0.792555 0.266840
O47   O     O_R   0.009053 0.749051 0.774781 -0.223352
O48   O     O_R   0.910174 0.589793 0.740355 -0.332082
N12   N     N_R   0.014689 0.319096 0.207446 0.266840
O49   O     O_R   0.990947 0.250949 0.225220 -0.223352
O50   O     O_R   0.089826 0.410208 0.259645 -0.332080
N13   N     N_R   0.971004 0.658644 0.078562 0.215151
O51   O     O_R   0.914786 0.656651 0.032382 -0.377339
O52   O     O_R   0.019696 0.737824 0.160412 -0.323642
N14   N     N_R   0.028996 0.341356 0.921438 0.215151
O53   O     O_R   0.085214 0.343349 0.967618 -0.377338
O54   O     O_R   0.980303 0.262176 0.839588 -0.323642
F13   F     F_    0.848066 0.307076 0.389245 -0.570747
F14   F     F_    0.151934 0.692923 0.610755 -0.570748
F15   F     F_    0.328132 0.928676 0.933043 -0.514049
F16   F     F_    0.671867 0.071324 0.066957 -0.514049
F17   F     F_    0.436555 0.064247 0.135387 -0.490078
F18   F     F_    0.563445 0.935753 0.864613 -0.490078
F19   F     F_    0.410429 0.311630 0.341853 -0.531930
F20   F     F_    0.589571 0.688370 0.658147 -0.531931
N15   N     N_R   0.549524 0.654196 0.474236 0.254638
O55   O     O_R   0.489613 0.656384 0.438291 -0.235695
O56   O     O_R   0.634313 0.726692 0.500446 -0.274975
N16   N     N_R   0.450475 0.345804 0.525764 0.254637
O57   O     O_R   0.510387 0.343614 0.561708 -0.235691
O58   O     O_R   0.365687 0.273308 0.499554 -0.274977

loop_
_geom_bond_atom_site_label_1
_geom_bond_atom_site_label_2
_geom_bond_distance
_ccdc_geom_bond_type
C14   C17   1.543268 S    
C39   C41   1.405439 A    
C85   C90   1.390118 A    
C47   F1    1.353773 S    
Zn7   O21   1.946519 S    
O17   C11   1.280833 A    
C75   F11   1.357496 S    
C67   H15   1.084893 S    
C42   C44   1.420613 A    
C76   F12   1.357496 S    
C23   C28   1.549785 S    
C60   C71   1.489520 S    
C38   C40   1.394744 A    
C56   C58   1.402751 A    
C42   C53   1.485045 S    
N7    O40   1.301373 A    
C31   C33   1.538105 S    
C50   F4    1.362070 S    
N15   O55   1.299892 A    
C43   N1    1.441398 S    
C85   C87   1.411468 A    
C8    C33   1.468109 S    
N8    O42   1.301372 A    
C24   C27   1.549783 S    
C27   F17   1.382179 S    
O24   C2    1.278268 A    
N12   O50   1.301575 A    
N4    O33   1.301343 A    
C55   C65   1.402893 A    
C40   H12   1.083391 S    
C31   F19   1.381286 S    
C44   N2    1.441397 S    
O10   C8    1.282208 A    
C21   C26   1.540387 S    
N1    O27   1.301231 A    
N11   O48   1.301576 A    
C30   C36   1.544659 S    
N8    O41   1.300328 A    
O20   C6    1.274858 A    
O14   C12   1.277562 A    
C6    C87   1.462510 S    
C46   C48   1.394431 A    
O15   C9    1.268757 A    
C29   C34   1.552044 S    
C22   C24   1.548073 S    
C23   H5    1.110054 S    
C24   H6    1.110055 S    
C61   N7    1.444082 S    
C61   C63   1.416310 A    
N5    O36   1.301273 A    
C85   N13   1.434894 S    
C29   C35   1.544659 S    
N4    O34   1.301061 A    
C48   F2    1.353772 S    
C11   C18   1.477642 S    
C21   F15   1.381102 S    
N16   O57   1.299893 A    
C15   H1    1.109834 S    
Zn5   O25   1.928829 S    
C12   C17   1.477642 S    
C30   H8    1.109902 S    
C16   H2    1.109834 S    
C64   N10   1.433179 S    
C29   H7    1.109903 S    
C58   N6    1.439869 S    
O4    C2    1.286795 A    
C78   C89   1.485230 S    
O5    C3    1.285947 A    
C49   C54   1.382432 A    
C81   N11   1.442215 S    
C9    C70   1.431074 S    
C32   F20   1.381287 S    
C21   C27   1.536922 S    
N10   O46   1.300966 A    
N14   O53   1.300929 A    
C67   C72   1.375283 A    
N9    O43   1.301131 A    
Zn1   O17   1.954690 S    
C59   C61   1.420183 A    
N6    O37   1.301080 A    
C80   C82   1.407151 A    
C56   F6    1.357791 S    
O13   C11   1.277560 A    
C66   N4    1.442147 S    
Zn4   O8    1.945771 S    
C49   C51   1.402673 A    
O11   C9    1.276873 A    
Zn7   O3    1.928336 S    
C36   N16   1.456030 S    
N9    O44   1.300964 A    
O18   C12   1.280835 A    
C44   C46   1.404830 A    
Zn6   O10   1.947139 S    
C21   C23   1.548074 S    
O9    C7    1.282207 A    
C29   C31   1.551551 S    
C26   C28   1.537209 S    
C24   C26   1.550258 S    
C28   F18   1.382181 S    
N13   O51   1.300928 A    
C82   N12   1.442216 S    
Zn1   O1    1.947969 S    
N2    O29   1.301232 A    
C63   C65   1.413054 A    
C68   C71   1.375281 A    
O19   C5    1.274860 A    
N7    O39   1.300328 A    
C37   H9    1.081636 S    
C74   C84   1.399343 A    
Zn2   O20   1.945816 S    
C65   N3    1.442146 S    
C10   C69   1.431073 S    
C25   C27   1.537210 S    
Zn7   O13   1.948622 S    
C45   C47   1.394430 A    
N2    O30   1.301621 A    
C16   C18   1.540646 S    
C15   C20   1.541836 S    
Zn6   O26   1.928831 S    
C73   C83   1.399341 A    
N12   O49   1.301172 A    
C77   C90   1.485231 S    
C38   C48   1.395346 A    
C14   H4    1.109429 S    
C86   N14   1.434895 S    
C80   H18   1.083136 S    
C77   C79   1.403148 A    
C37   C47   1.395347 A    
C32   C35   1.530811 S    
Zn3   O1    1.947822 S    
C75   C77   1.401653 A    
C35   N15   1.456030 S    
C45   H13   1.082872 S    
C41   C54   1.485045 S    
C57   C59   1.414361 A    
Zn8   O14   1.948622 S    
Zn5   O15   1.948949 S    
C4    C25   1.497364 S    
Zn8   O4    1.928334 S    
Zn6   O16   1.948949 S    
C3    C26   1.497364 S    
C46   H14   1.082871 S    
N13   O52   1.300456 A    
C49   F3    1.362069 S    
C32   C34   1.538106 S    
C55   C57   1.402755 A    
C17   C19   1.528678 S    
Zn5   O9    1.947142 S    
Zn3   O23   1.934704 S    
C14   C16   1.553843 S    
C33   C35   1.530512 S    
O7    C5    1.281585 A    
N3    O32   1.301061 A    
Zn4   O24   1.934703 S    
C69   C71   1.412087 A    
C86   C88   1.411468 A    
C68   H16   1.084895 S    
C23   C25   1.550260 S    
C56   C66   1.402894 A    
C64   C66   1.413055 A    
C62   N8    1.444083 S    
C38   H10   1.081636 S    
N10   O45   1.301130 A    
C39   H11   1.083392 S    
O8    C6    1.281586 A    
C22   C25   1.540388 S    
O12   C10   1.276873 A    
C50   C52   1.402673 A    
C41   C43   1.420611 A    
O16   C10   1.268758 A    
C79   C81   1.407150 A    
Zn1   O19   1.945814 S    
C43   C45   1.404830 A    
Zn4   O2    1.947819 S    
C1    C52   1.450735 S    
Zn2   O2    1.947972 S    
N14   O54   1.300456 A    
Zn3   O7    1.945773 S    
C70   C72   1.412087 A    
C74   C76   1.395615 A    
C52   C54   1.416978 A    
Zn7   O1    1.960399 S    
C5    C88   1.462510 S    
C20   F14   1.382485 S    
C76   C78   1.401653 A    
O21   C7    1.279798 A    
O26   C4    1.289540 A    
C16   C19   1.541836 S    
C13   C19   1.540746 S    
C40   C42   1.405438 A    
C34   C36   1.530512 S    
C86   C89   1.390118 A    
C78   C80   1.403148 A    
Zn2   O18   1.954688 S    
Zn6   O2    1.958533 S    
C82   C84   1.411140 A    
C60   C62   1.420181 A    
C14   C20   1.540746 S    
C88   C90   1.417992 A    
C13   C15   1.553843 S    
C50   C53   1.382432 A    
C84   F8    1.356078 S    
C67   C69   1.397040 A    
C13   H3    1.109428 S    
Zn8   O22   1.946521 S    
N6    O38   1.301282 A    
C83   F7    1.356079 S    
C73   F9    1.355544 S    
N16   O58   1.300373 A    
N5    O35   1.301074 A    
C7    C34   1.468109 S    
C37   C39   1.394742 A    
C87   C89   1.417993 A    
O6    C4    1.285947 A    
C55   F5    1.357789 S    
N11   O47   1.301173 A    
C58   C60   1.414357 A    
N1    O28   1.301620 A    
O3    C1    1.286795 A    
C18   C20   1.528678 S    
O25   C3    1.289541 A    
C2    C51   1.450735 S    
O23   C1    1.278270 A    
C15   C17   1.540646 S    
Zn3   O11   1.954457 S    
Zn2   O6    1.934138 S    
C62   C64   1.416313 A    
C73   C75   1.395614 A    
C22   F16   1.381102 S    
C19   F13   1.382485 S    
C63   N9    1.433178 S    
Zn4   O12   1.954458 S    
C68   C70   1.397040 A    
Zn1   O5    1.934138 S    
C22   C28   1.536920 S    
Zn8   O2    1.960399 S    
C74   F10   1.355545 S    
C30   C33   1.552042 S    
C81   C83   1.411141 A    
O22   C8    1.279798 A    
C57   N5    1.439876 S    
C30   C32   1.551551 S    
Zn5   O1    1.958534 S    
C59   C72   1.489519 S    
N3    O31   1.301342 A    
N15   O56   1.300374 A    
C51   C53   1.416978 A    
C31   C36   1.530811 S    
C13   C18   1.543268 S    
C79   H17   1.083136 S    
