data_mof_unit_pretest_489.cif
_audit_creation_date              2013-03-05T16:09:35-0500
_audit_creation_method            fapswitch 2.2
_symmetry_space_group_name_H-M    P1
_symmetry_Int_Tables_number       1
_space_group_crystal_system       triclinic
_cell_length_a                    10.378372
_cell_length_b                    10.708343
_cell_length_c                    9.84942
_cell_angle_alpha                 88.529618
_cell_angle_beta                  102.117137
_cell_angle_gamma                 90.872194
_cell_volume                      1069.8228416

loop_
_atom_site_label
_atom_site_type_symbol
_atom_site_description
_atom_site_fract_x
_atom_site_fract_y
_atom_site_fract_z
_atom_type_partial_charge
O1    O     O_R   0.499990 0.316750 0.614620 -0.599757
O2    O     O_R   0.500010 0.683250 0.385380 -0.586526
O3    O     O_R   0.499990 0.316780 0.385290 -0.597765
O4    O     O_R   0.500010 0.683220 0.614710 -0.606380
C1    C     C_R   0.517517 0.261231 0.506101 0.953604
C2    C     C_R   0.491711 0.741046 0.496540 1.024921
O5    O     O_R   0.317810 0.500000 0.571850 -0.597401
O6    O     O_R   0.682190 0.500000 0.428150 -0.605217
O7    O     O_R   0.317810 0.500030 0.342520 -0.576310
O8    O     O_R   0.682190 0.499970 0.657480 -0.575401
C3    C     C_R   0.256109 0.500470 0.444056 0.927828
C4    C     C_R   0.743985 0.504952 0.555457 0.906937
Zn1   Zn    Zn3+2 0.500000 0.499980 0.653120 1.062957
Zn2   Zn    Zn3+2 0.500000 0.500020 0.346880 1.069191
C5    C     C_R   0.589156 0.570098 0.091012 -0.077280
C6    C     C_R   0.412220 0.428149 0.909240 -0.067989
C7    C     C_R   0.589031 0.571670 0.947828 0.245865
C8    C     C_R   0.412238 0.426945 0.052471 0.239363
H1    H     H_    0.660277 0.625506 0.160908 0.206635
H2    H     H_    0.342921 0.370386 0.839699 0.198856
C9    C     C_2   0.112754 0.511624 0.417795 0.025960
C10   C     C_2   0.886375 0.529750 0.577590 0.028436
C11   C     C_2   0.062067 0.615662 0.461992 0.187695
C12   C     C_2   0.927956 0.615978 0.491120 0.201924
C13   C     C_R   0.564795 0.068261 0.400863 0.132293
C14   C     C_R   0.476046 0.937043 0.615736 0.144915
C15   C     C_R   0.527873 0.944047 0.382689 0.188581
C16   C     C_R   0.514982 0.060650 0.632475 0.142755
C17   C     C_R   0.490565 0.876148 0.494094 -0.186206
C18   C     C_R   0.540771 0.128779 0.517081 -0.241824
N1    N     N_R   0.499970 0.499970 0.857200 -0.131037
N2    N     N_R   0.500030 0.500030 0.142800 -0.132814
N3    N     N_R   0.841850 0.714533 0.426412 0.220902
O9    O     O_R   0.776701 0.776700 0.501121 -0.399763
O10   O     O_R   0.852665 0.760613 0.305716 -0.311832
N4    N     N_R   0.132994 0.733008 0.470329 0.214528
O11   O     O_R   0.204746 0.761006 0.380066 -0.393765
O12   O     O_R   0.099716 0.822429 0.542726 -0.268826
N5    N     N_R   0.976412 0.453049 0.675118 0.208366
O13   O     O_R   0.935452 0.348358 0.722118 -0.311794
O14   O     O_R   0.093417 0.494773 0.731098 -0.373584
N6    N     N_R   0.032019 0.404550 0.369355 0.202631
O15   O     O_R   0.913925 0.419237 0.294193 -0.353048
O16   O     O_R   0.082618 0.293306 0.384255 -0.309928
I1    I     I_    0.731425 0.692028 0.886190 -0.064866
I2    I     I_    0.274445 0.302475 0.115516 -0.041599
I3    I     I_    0.680926 0.157970 0.268189 -0.013057
I4    I     I_    0.373055 0.855897 0.766207 -0.071320
I5    I     I_    0.507816 0.875911 0.176084 -0.104325
I6    I     I_    0.561345 0.131848 0.839934 -0.135528

loop_
_geom_bond_atom_site_label_1
_geom_bond_atom_site_label_2
_geom_bond_distance
_ccdc_geom_bond_type
C5    H1    1.079399 S    
O7    Zn2   1.882292 S    
C13   C18   1.398298 A    
O6    C4    1.284972 A    
C15   C17   1.418249 A    
C13   I3    2.155137 S    
C14   C16   1.381817 A    
C12   N3    1.440017 S    
C14   I4    2.159790 S    
C11   C12   1.478992 S    
N4    O12   1.301216 A    
N3    O9    1.299811 A    
O2    Zn2   2.007922 S    
C5    N2    1.355013 A    
N5    O14   1.301252 A    
C6    C8    1.410429 A    
C6    N1    1.355728 A    
O5    C3    1.286774 A    
O7    C3    1.295923 A    
O2    C2    1.290411 A    
O3    Zn2   1.988782 S    
N6    O16   1.301574 A    
O1    C1    1.283160 A    
C10   N5    1.441022 S    
C8    I2    2.116493 S    
C16   C18   1.405300 A    
C6    H2    1.081845 S    
N3    O10   1.301354 A    
C7    I1    2.119465 S    
C1    C18   1.439871 S    
O8    C4    1.300263 A    
C9    C11   1.358768 D    
C13   C15   1.384199 A    
C7    N1    1.381242 A    
C10   C12   1.366011 D    
C8    N2    1.381276 A    
N6    O15   1.301509 A    
C9    N6    1.440609 S    
C4    C10   1.468886 S    
O5    Zn1   1.892244 S    
C2    C17   1.446495 S    
O1    Zn1   2.007922 S    
C14   C17   1.415014 A    
O4    C2    1.291540 A    
C11   N4    1.441994 S    
N5    O13   1.301248 A    
C5    C7    1.409670 A    
Zn1   N1    2.010131 S    
N4    O11   1.300874 A    
O6    Zn2   1.892243 S    
C16   I6    2.155012 S    
C3    C9    1.461832 S    
C15   I5    2.147185 S    
O4    Zn1   1.988782 S    
Zn2   N2    2.010133 S    
O3    C1    1.295732 A    
O8    Zn1   1.882291 S    
