data_mof_unit_pretest_34.cif
_audit_creation_date              2012-12-10T19:31:18-0500
_audit_creation_method            fapswitch 2.2
_symmetry_space_group_name_H-M    P1
_symmetry_Int_Tables_number       1
_space_group_crystal_system       triclinic
_cell_length_a                    19.25267
_cell_length_b                    15.748639
_cell_length_c                    14.937413
_cell_angle_alpha                 90.149563
_cell_angle_beta                  90.229317
_cell_angle_gamma                 90.033392
_cell_volume                      4529.02115386

loop_
_atom_site_label
_atom_site_type_symbol
_atom_type_description
_atom_site_fract_x
_atom_site_fract_y
_atom_site_fract_z
_atom_type_partial_charge
C1    C     C_R   0.500049 0.337540 0.499870 0.900579
C2    C     C_3   0.500077 0.971757 0.416048 0.422977
C3    C     C_3   0.501062 0.082987 0.498987 -0.062740
C4    C     C_3   0.498937 0.917014 0.501012 -0.062741
C5    C     C_1   0.500772 0.173668 0.499187 0.090809
C6    C     C_1   0.499228 0.826332 0.500813 0.090810
C7    C     C_3   0.495330 0.417858 0.969796 -0.497296
C8    C     C_3   0.504669 0.582144 0.030203 -0.497289
C9    C     C_3   0.553763 0.455437 0.029907 0.435951
C10   C     C_3   0.446236 0.544565 0.970093 0.435939
C11   C     C_3   0.441635 0.464900 0.029222 0.506460
C12   C     C_R   0.499951 0.662460 0.500130 0.900586
C13   C     C_3   0.558363 0.535102 0.970777 0.506470
C14   C     C_3   0.500005 0.500963 0.089837 -0.138401
C15   C     C_3   0.499994 0.499039 0.910163 -0.138396
C16   C     C_R   0.365257 0.500079 0.499868 0.927210
C17   C     C_R   0.634743 0.499915 0.500132 0.927217
C18   C     C_1   0.500004 0.500331 0.189856 0.197018
C19   C     C_1   0.499995 0.499669 0.810143 0.197032
C20   C     C_R   0.253960 0.507455 0.580554 -0.296060
C21   C     C_R   0.746036 0.492508 0.419437 -0.296059
C22   C     C_R   0.181588 0.505143 0.581714 0.449146
C23   C     C_3   0.556499 0.972416 0.542332 0.494715
C24   C     C_R   0.818409 0.494763 0.418275 0.449174
C25   C     C_R   0.145250 0.500846 0.499860 -0.146363
C26   C     C_R   0.854750 0.498993 0.500131 -0.146421
C27   C     C_R   0.180988 0.496497 0.417891 0.494343
C28   C     C_R   0.819013 0.503320 0.582106 0.494320
C29   C     C_R   0.253385 0.493913 0.418793 -0.290985
C30   C     C_R   0.746619 0.505963 0.581207 -0.290897
C31   C     C_R   0.289794 0.500483 0.499672 -0.174371
C32   C     C_R   0.710206 0.499468 0.500325 -0.174412
C33   C     C_R   0.930162 0.499346 0.499986 0.393301
C34   C     C_3   0.443500 0.027584 0.457668 0.494713
C35   C     C_R   0.069839 0.500477 0.499998 0.393365
C36   C     C_3   0.659889 0.606434 0.003367 -0.285320
C37   C     C_3   0.340108 0.393570 0.996632 -0.285436
C38   C     C_3   0.160844 0.451259 0.723255 0.130860
C39   C     C_3   0.190341 0.489588 0.809073 -0.853850
C40   C     C_3   0.839179 0.548698 0.276759 0.130854
C41   C     C_3   0.809657 0.510432 0.190924 -0.853906
C42   C     C_3   0.156762 0.555289 0.281509 -0.274455
C43   C     C_3   0.843294 0.444340 0.718373 -0.274463
C44   C     C_3   0.662011 0.999634 0.609162 -0.281097
C45   C     C_3   0.558712 0.027173 0.456558 -0.501243
C46   C     C_3   0.337988 0.000366 0.390837 -0.281084
C47   C     C_3   0.509645 0.997378 0.264862 0.124304
C48   C     C_3   0.497352 0.959320 0.172473 -0.833751
C49   C     C_3   0.490354 0.002622 0.735137 0.124306
C50   C     C_3   0.502647 0.040680 0.827527 -0.833758
C51   C     C_3   0.644587 0.364741 0.998897 0.115229
C52   C     C_3   0.714044 0.333112 0.034259 -0.829135
C53   C     C_3   0.355404 0.635249 0.001101 0.115249
C54   C     C_3   0.285980 0.666961 0.965695 -0.829084
C55   C     C_3   0.441288 0.972827 0.543441 -0.501243
C56   C     C_1   0.500424 0.248805 0.499532 -0.169272
C57   C     C_1   0.499576 0.751195 0.500468 -0.169273
C58   C     C_3   0.499923 0.028243 0.583952 0.422976
H1    H     H_    0.282005 0.514845 0.643035 0.189863
H2    H     H_    0.633796 0.663861 0.030523 0.163640
H3    H     H_    0.710294 0.626934 0.974918 0.189281
H4    H     H_    0.366202 0.336147 0.969468 0.163674
H5    H     H_    0.328519 0.439281 0.941971 0.189521
H6    H     H_    0.289706 0.373064 0.025082 0.189274
H7    H     H_    0.197051 0.401215 0.698273 0.116673
H8    H     H_    0.111422 0.418550 0.739778 0.172415
H9    H     H_    0.153168 0.536295 0.837384 0.268732
H10   H     H_    0.199477 0.438700 0.859066 0.202898
H11   H     H_    0.240366 0.522030 0.795414 0.260143
H12   H     H_    0.717987 0.485168 0.356953 0.189871
H13   H     H_    0.888619 0.581373 0.260246 0.172427
H14   H     H_    0.803003 0.598762 0.301770 0.116678
H15   H     H_    0.759606 0.478050 0.204568 0.260144
H16   H     H_    0.800566 0.561345 0.140946 0.202914
H17   H     H_    0.846791 0.463689 0.162604 0.268765
H18   H     H_    0.209417 0.551945 0.251546 0.157686
H19   H     H_    0.149318 0.617080 0.316715 0.152342
H20   H     H_    0.118642 0.552823 0.225681 0.196208
H21   H     H_    0.850914 0.382630 0.683084 0.152446
H22   H     H_    0.790595 0.447471 0.748221 0.157544
H23   H     H_    0.281017 0.485971 0.356342 0.189644
H24   H     H_    0.881326 0.446841 0.774293 0.196198
H25   H     H_    0.638445 0.051552 0.649469 0.186547
H26   H     H_    0.686208 0.025593 0.547581 0.163231
H27   H     H_    0.704044 0.971049 0.650141 0.189869
H28   H     H_    0.313791 0.974407 0.452419 0.163231
H29   H     H_    0.361555 0.948448 0.350531 0.186548
H30   H     H_    0.295955 0.028952 0.349858 0.189872
H31   H     H_    0.564285 0.020211 0.268416 0.144610
H32   H     H_    0.473679 0.052187 0.273105 0.175790
H33   H     H_    0.442888 0.936611 0.166573 0.253122
H34   H     H_    0.718993 0.513885 0.643669 0.189677
H35   H     H_    0.506800 0.008117 0.120373 0.209202
H36   H     H_    0.533198 0.905108 0.161318 0.259132
H37   H     H_    0.526321 0.947813 0.726894 0.175791
H38   H     H_    0.435714 0.979789 0.731584 0.144608
H39   H     H_    0.466801 0.094891 0.838681 0.259131
H40   H     H_    0.493200 0.991882 0.879627 0.209204
H41   H     H_    0.557112 0.063389 0.833427 0.253119
H42   H     H_    0.654810 0.403956 0.938369 0.166927
H43   H     H_    0.612498 0.308743 0.979788 0.144617
H44   H     H_    0.706045 0.293494 0.094773 0.265339
H45   H     H_    0.605479 0.051628 0.421884 0.172293
H46   H     H_    0.740223 0.294308 0.982203 0.204227
H47   H     H_    0.747850 0.387901 0.051741 0.257085
H48   H     H_    0.387513 0.691212 0.020284 0.144589
H49   H     H_    0.345127 0.595995 0.061589 0.166934
H50   H     H_    0.252153 0.612210 0.948129 0.257067
H51   H     H_    0.259791 0.705744 0.017760 0.204226
H52   H     H_    0.294035 0.706626 0.905222 0.265307
H53   H     H_    0.394520 0.948372 0.578116 0.172293
H54   H     H_    0.491649 0.351429 0.945257 0.170845
H55   H     H_    0.508353 0.648573 0.054743 0.170847
H56   H     H_    0.671475 0.560728 0.058034 0.189517
N1    N     N_R   0.034016 0.546160 0.438596 -0.143346
N2    N     N_R   0.965987 0.453662 0.561388 -0.143377
N3    N     N_R   0.965149 0.545617 0.438598 -0.155418
N4    N     N_R   0.034853 0.454206 0.561387 -0.155427
N5    N     N_1   0.500020 0.500000 0.268010 -0.099920
N6    N     N_1   0.499980 0.500000 0.731990 -0.099918
O1    O     O_R   0.500000 0.376780 0.574460 -0.611734
O2    O     O_3   0.380044 0.430901 0.065471 -0.605617
O3    O     O_3   0.145735 0.516786 0.661236 -0.593689
O4    O     O_3   0.854254 0.483128 0.338743 -0.593683
O5    O     O_3   0.144523 0.485529 0.338468 -0.584345
O6    O     O_3   0.855473 0.514213 0.661542 -0.584309
O7    O     O_3   0.613316 0.935858 0.587997 -0.600653
O8    O     O_3   0.386684 0.064142 0.412002 -0.600655
O9    O     O_3   0.497938 0.934492 0.330095 -0.605179
O10   O     O_3   0.502062 0.065507 0.669905 -0.605180
O11   O     O_3   0.611091 0.411726 0.066630 -0.609668
O12   O     O_R   0.500000 0.623220 0.425540 -0.611729
O13   O     O_3   0.388911 0.588280 0.933365 -0.609668
O14   O     O_R   0.500010 0.376780 0.425520 -0.603475
O15   O     O_R   0.499990 0.623220 0.574480 -0.603471
O16   O     O_R   0.398130 0.499990 0.574490 -0.620654
O17   O     O_R   0.601870 0.500010 0.425510 -0.620654
O18   O     O_R   0.398140 0.499990 0.425550 -0.618774
O19   O     O_R   0.601860 0.500010 0.574450 -0.618769
O20   O     O_3   0.619956 0.569099 0.934529 -0.605578
Zn1   Zn    Zn3+2 0.499990 0.500000 0.599450 0.992003
Zn2   Zn    Zn3+2 0.500010 0.500000 0.400550 0.991996

loop_
_geom_bond_atom_site_label_1
_geom_bond_atom_site_label_2
_ccdc_geom_bond_type
C23   C58   S    
O17   Zn2   S    
C44   O7    S    
C33   N3    A    
C8    C13   S    
C23   C45   S    
C40   H13   S    
C27   C29   A    
C27   O5    S    
C39   H10   S    
C14   C18   S    
C5    C56   T    
C10   O13   S    
C44   H25   S    
C36   H56   S    
C37   H4    S    
C22   O3    S    
C53   C54   S    
C16   C31   S    
C15   C19   S    
C52   H44   S    
C50   H41   S    
C48   H36   S    
C47   O9    S    
C46   O8    S    
C33   N2    A    
C1    C56   S    
C24   C26   A    
C10   C15   S    
C38   C39   S    
C11   C14   S    
C41   H17   S    
C43   H21   S    
C24   O4    S    
C2    O9    S    
C7    H54   S    
C54   H52   S    
C9    C13   S    
N5    Zn2   S    
C45   H45   S    
C42   O5    S    
C41   H16   S    
C53   H48   S    
C38   H8    S    
N1    N3    A    
C12   O15   A    
C35   N1    A    
C43   H24   S    
C40   H14   S    
C38   O3    S    
C2    C34   S    
C7    C15   S    
C34   C55   S    
C47   H31   S    
C6    C57   T    
C43   O6    S    
C26   C28   A    
C37   H5    S    
C28   O6    S    
C7    C11   S    
C46   H30   S    
C9    O11   S    
C2    C45   S    
O12   Zn2   S    
C40   O4    S    
C21   C32   A    
C50   H40   S    
C48   H35   S    
C51   C52   S    
C13   O20   S    
O1    Zn1   S    
C53   O13   S    
C4    C6    S    
O18   Zn2   S    
C4    C23   S    
C51   O11   S    
C3    C34   S    
C44   H26   S    
C43   H22   S    
C3    C45   S    
C54   H51   S    
C2    C4    S    
C9    C14   S    
C29   H23   S    
O16   Zn1   S    
O14   Zn2   S    
C53   H49   S    
C26   C33   S    
C47   C48   S    
C38   H7    S    
C48   H33   S    
C39   H11   S    
C17   O19   A    
C49   H37   S    
C20   H1    S    
C36   O20   S    
C8    H55   S    
C25   C35   S    
C12   C57   S    
C30   H34   S    
C40   C41   S    
C22   C25   A    
C20   C22   A    
C19   N6    T    
C42   H20   S    
C13   C15   S    
C4    C55   S    
C47   H32   S    
C55   C58   S    
C11   O2    S    
C25   C27   A    
C44   H27   S    
C16   O16   A    
C3    C5    S    
C37   H6    S    
C23   O7    S    
C46   H29   S    
C51   H42   S    
C7    C9    S    
C52   H46   S    
C50   H39   S    
C8    C14   S    
C12   O12   A    
C55   H53   S    
C39   H9    S    
C16   O18   A    
N6    Zn1   S    
C36   H2    S    
C52   H47   S    
C34   O8    S    
C36   H3    S    
C51   H43   S    
C49   O10   S    
C42   H18   S    
C54   H50   S    
C21   H12   S    
C28   C30   A    
C29   C31   A    
C30   C32   A    
O19   Zn1   S    
C58   O10   S    
N2    N4    A    
C49   H38   S    
C1    O1    A    
C10   C11   S    
C41   H15   S    
C37   O2    S    
C3    C58   S    
O15   Zn1   S    
C42   H19   S    
C8    C10   S    
C49   C50   S    
C21   C24   A    
C17   C32   S    
C35   N4    A    
C17   O17   A    
C18   N5    T    
C1    O14   A    
C46   H28   S    
C20   C31   A    
