data_mof_unit_pretest_1359.cif
_audit_creation_date              2012-12-10T20:35:47-0500
_audit_creation_method            fapswitch 2.2
_symmetry_space_group_name_H-M    P1
_symmetry_Int_Tables_number       1
_space_group_crystal_system       triclinic
_cell_length_a                    15.723179
_cell_length_b                    10.637297
_cell_length_c                    9.847232
_cell_angle_alpha                 90.220709
_cell_angle_beta                  90.003544
_cell_angle_gamma                 90.11577
_cell_volume                      1646.95489006

loop_
_atom_site_label
_atom_site_type_symbol
_atom_type_description
_atom_site_fract_x
_atom_site_fract_y
_atom_site_fract_z
_atom_type_partial_charge
C1    C     C_R   0.496177 0.259815 0.499830 0.880981
C2    C     C_3   0.948586 0.364237 0.591406 -0.077822
C3    C     C_3   0.917347 0.478817 0.504283 0.241041
C4    C     C_3   0.950625 0.602799 0.567739 -0.458481
C5    C     C_3   0.049187 0.606410 0.563899 -0.104638
C6    C     C_1   0.825708 0.486318 0.501946 -0.099751
C7    C     C_1   0.174949 0.484281 0.503048 -0.122326
C8    C     C_1   0.249927 0.493622 0.500108 -0.234974
C9    C     C_R   0.468989 0.064847 0.621557 0.087963
C10   C     C_R   0.478765 0.128842 0.499376 -0.097378
C11   C     C_R   0.468997 0.064334 0.375941 -0.230690
C12   C     C_R   0.338378 0.500648 0.499983 0.910115
C13   C     C_R   0.468975 0.934528 0.376310 -0.226109
C14   C     C_R   0.477871 0.871064 0.500178 -0.127414
C15   C     C_R   0.467272 0.936309 0.622157 0.112540
C16   C     C_3   0.515754 0.930300 0.753382 -0.116767
C17   C     C_3   0.518447 0.073410 0.751121 -0.488544
C18   C     C_R   0.445034 0.424296 0.070937 0.215404
C19   C     C_R   0.559794 0.564766 0.072327 -0.128814
C20   C     C_R   0.560136 0.564104 0.928237 -0.169139
C21   C     C_R   0.445130 0.424155 0.928345 0.222364
C22   C     C_3   0.350400 0.427061 0.922255 -0.528262
C23   C     C_R   0.495818 0.740187 0.500231 0.874435
C24   C     C_3   0.350241 0.428018 0.076434 -0.514190
C25   C     C_R   0.661762 0.499596 0.500002 0.913427
C26   C     C_3   0.049170 0.368829 0.603288 -0.065140
C27   C     C_3   0.049518 0.462069 0.357871 -0.070424
C28   C     C_3   0.951083 0.467398 0.357473 -0.439399
C29   C     C_1   0.750528 0.493181 0.500475 -0.203017
C30   C     C_3   0.083541 0.476495 0.507862 0.238476
H1    H     H_    0.062238 0.400730 0.708459 0.142305
H2    H     H_    0.923243 0.380912 0.695767 0.126540
H3    H     H_    0.925350 0.685104 0.510906 0.167769
H4    H     H_    0.469166 0.112669 0.279281 0.170038
H5    H     H_    0.469825 0.885342 0.279844 0.168567
H6    H     H_    0.579934 0.887968 0.740155 0.146973
H7    H     H_    0.482468 0.121289 0.833252 0.197663
H8    H     H_    0.583675 0.111292 0.735274 0.187548
H9    H     H_    0.606591 0.619806 0.127005 0.146245
H10   H     H_    0.607109 0.618841 0.874027 0.145685
H11   H     H_    0.325316 0.515249 0.877314 0.217293
H12   H     H_    0.323856 0.339000 0.878254 0.203323
H13   H     H_    0.325516 0.517180 0.120431 0.221150
H14   H     H_    0.322954 0.340996 0.121072 0.200804
H15   H     H_    0.072436 0.546337 0.301360 0.141200
H16   H     H_    0.922744 0.383604 0.306799 0.176404
H17   H     H_    0.930086 0.550105 0.297129 0.157118
H18   H     H_    0.065645 0.677036 0.484539 0.132878
H19   H     H_    0.924184 0.610274 0.671444 0.173046
N1    N     N_R   0.499430 0.499140 0.142800 -0.104397
N2    N     N_R   0.499430 0.499180 0.857150 -0.106959
O1    O     O_R   0.500010 0.316790 0.614690 -0.614045
O2    O     O_R   0.500000 0.316760 0.385350 -0.623830
O3    O     O_R   0.377150 0.500020 0.614720 -0.619498
O4    O     O_R   0.377140 0.499990 0.385380 -0.615303
O5    O     O_R   0.500000 0.683240 0.614650 -0.630033
O6    O     O_R   0.499990 0.683210 0.385310 -0.622013
O7    O     O_R   0.622860 0.500010 0.614620 -0.616714
O8    O     O_R   0.622850 0.499980 0.385280 -0.614816
Zn1   Zn    Zn3+2 0.500010 0.500020 0.653130 0.929473
Zn2   Zn    Zn3+2 0.499990 0.499980 0.346870 0.937123
C31   C     C_3   0.909628 0.236294 0.540891 -0.396601
C32   C     C_3   0.877312 0.154571 0.658884 -0.367633
C33   C     C_3   0.851342 0.023729 0.609733 -0.901176
H20   H     H_    0.800558 0.030621 0.531690 0.261563
H21   H     H_    0.907045 0.973865 0.565940 0.256990
H22   H     H_    0.826725 0.968180 0.696566 0.246633
H23   H     H_    0.926548 0.144849 0.738819 0.214965
H24   H     H_    0.821135 0.200722 0.706015 0.221664
H25   H     H_    0.854147 0.252135 0.473470 0.206608
H26   H     H_    0.954725 0.182905 0.476789 0.200150
C34   C     C_3   0.466259 0.871216 0.873215 -0.353345
C35   C     C_3   0.372738 0.911774 0.887743 -0.329457
C36   C     C_3   0.328995 0.840286 0.002332 -0.902905
H27   H     H_    0.328045 0.737915 0.979796 0.261225
H28   H     H_    0.362572 0.856757 0.099941 0.261780
H29   H     H_    0.262502 0.873691 0.013010 0.250534
H30   H     H_    0.368827 0.013689 0.911027 0.213662
H31   H     H_    0.337592 0.892375 0.792031 0.230142
H32   H     H_    0.467513 0.767853 0.859580 0.230022
H33   H     H_    0.500868 0.893296 0.968855 0.189090
C37   C     C_3   0.095123 0.238112 0.598025 -0.429299
C38   C     C_3   0.186695 0.237517 0.654226 -0.336505
C39   C     C_3   0.211674 0.108980 0.709666 -0.934529
H34   H     H_    0.171986 0.084343 0.799017 0.266643
H35   H     H_    0.204120 0.035513 0.630055 0.265915
H36   H     H_    0.279306 0.111969 0.741523 0.249890
H37   H     H_    0.231943 0.258797 0.571140 0.232916
H38   H     H_    0.194515 0.308651 0.736154 0.224721
H39   H     H_    0.057947 0.172286 0.661502 0.226353
H40   H     H_    0.096592 0.197674 0.494783 0.193244
C40   C     C_3   0.082845 0.346079 0.277357 -0.391739
C41   C     C_3   0.079400 0.368020 0.123294 -0.368422
C42   C     C_3   0.105458 0.250678 0.044203 -0.906487
H41   H     H_    0.172329 0.225267 0.067781 0.265773
H42   H     H_    0.063040 0.170563 0.069732 0.257658
H43   H     H_    0.100061 0.269365 0.933787 0.254636
H44   H     H_    0.013957 0.394933 0.092339 0.222313
H45   H     H_    0.123454 0.445661 0.096172 0.233357
H46   H     H_    0.149826 0.325308 0.304983 0.212952
H47   H     H_    0.043891 0.261962 0.300981 0.200320
C43   C     C_3   0.093233 0.660687 0.695706 -0.384354
C44   C     C_3   0.046176 0.647857 0.832413 -0.343007
C45   C     C_3   0.103569 0.686341 0.950693 -0.930182
H48   H     H_    0.161442 0.626661 0.953521 0.262488
H49   H     H_    0.122778 0.786357 0.940274 0.266897
H50   H     H_    0.068637 0.675168 0.047941 0.242172
H51   H     H_    0.990264 0.711549 0.834214 0.217875
H52   H     H_    0.024058 0.550237 0.849301 0.209684
H53   H     H_    0.157642 0.620203 0.708127 0.217772
H54   H     H_    0.103957 0.763078 0.679826 0.192028

loop_
_geom_bond_atom_site_label_1
_geom_bond_atom_site_label_2
_ccdc_geom_bond_type
C28   H17   S    
C41   C42   S    
C18   C21   A    
C35   C36   S    
C19   C20   A    
C16   C34   S    
C39   H36   S    
C3    C6    S    
C45   H49   S    
C7    C8    T    
O3    Zn1   S    
C28   H16   S    
C36   H28   S    
C18   C24   S    
C3    C28   S    
C39   H35   S    
C13   H5    S    
C20   N2    A    
C20   H10   S    
C22   H11   S    
O7    Zn1   S    
C15   C16   S    
C31   H25   S    
C2    H2    S    
C1    O2    A    
O1    Zn1   S    
C4    H3    S    
O2    Zn2   S    
C32   H24   S    
C16   C17   S    
C36   H29   S    
C35   H30   S    
C44   H51   S    
C9    C10   A    
C41   H45   S    
C34   H33   S    
C27   H15   S    
C38   H37   S    
C26   H1    S    
C26   C37   S    
C7    C30   S    
C21   C22   S    
C27   C30   S    
C43   H54   S    
C43   C44   S    
C45   H48   S    
C25   C29   S    
C38   H38   S    
C5    H18   S    
O8    Zn2   S    
C36   H27   S    
C33   H22   S    
C23   O5    A    
C39   H34   S    
C40   H46   S    
C34   C35   S    
C42   H43   S    
C37   H40   S    
O5    Zn1   S    
C33   H21   S    
C14   C23   S    
C31   C32   S    
C38   C39   S    
C8    C12   S    
C35   H31   S    
C27   C40   S    
C2    C26   S    
C17   H7    S    
C42   H42   S    
C19   H9    S    
C40   H47   S    
C9    C17   S    
C26   C30   S    
C24   H14   S    
C22   C24   S    
C43   H53   S    
C25   O7    A    
C3    C4    S    
C21   N2    A    
C18   N1    A    
C5    C30   S    
C23   O6    A    
C5    C43   S    
C11   H4    S    
C1    C10   S    
C4    C5    S    
O6    Zn2   S    
C32   H23   S    
C37   H39   S    
C4    H19   S    
C44   H52   S    
C33   H20   S    
C2    C3    S    
C9    C15   A    
C34   H32   S    
C16   H6    S    
C11   C13   A    
C19   N1    A    
C22   H12   S    
O4    Zn2   S    
C40   C41   S    
C31   H26   S    
C17   H8    S    
C42   H41   S    
C24   H13   S    
C1    O1    A    
C12   O4    A    
C10   C11   A    
C32   C33   S    
C6    C29   T    
C37   C38   S    
C44   C45   S    
N1    Zn2   S    
C14   C15   A    
N2    Zn1   S    
C25   O8    A    
C13   C14   A    
C41   H44   S    
C45   H50   S    
C12   O3    A    
C2    C31   S    
C27   C28   S    
