data_mof_unit_pretest_516.cif
_audit_creation_date              2012-12-10T18:56:24-0500
_audit_creation_method            fapswitch 2.2
_symmetry_space_group_name_H-M    P1
_symmetry_Int_Tables_number       1
_space_group_crystal_system       triclinic
_cell_length_a                    10.736867
_cell_length_b                    9.875763
_cell_length_c                    18.794051
_cell_angle_alpha                 86.121287
_cell_angle_beta                  93.150786
_cell_angle_gamma                 89.354971
_cell_volume                      1985.02807778

loop_
_atom_site_label
_atom_site_type_symbol
_atom_type_description
_atom_site_fract_x
_atom_site_fract_y
_atom_site_fract_z
_atom_type_partial_charge
C1    C     C_R   0.872367 0.503794 0.496313 0.018289
C2    C     C_R   0.127664 0.503495 0.503861 0.007524
C3    C     C_R   0.278593 0.578208 0.956164 0.384464
C4    C     C_R   0.352502 0.350547 0.043296 0.368895
C5    C     C_R   0.310734 0.593256 0.028594 0.349028
C6    C     C_R   0.360500 0.347601 0.969203 0.363921
C7    C     C_R   0.349021 0.477339 0.073333 -0.190062
C8    C     C_R   0.325499 0.464543 0.924453 -0.176658
C9    C     C_R   0.260080 0.500841 0.501757 0.843080
C10   C     C_R   0.739915 0.500515 0.498209 0.900635
C11   C     C_R   0.505177 0.504389 0.364611 0.990280
C12   C     C_R   0.486526 0.495419 0.634733 0.964915
C13   C     C_R   0.064621 0.381261 0.504986 -0.249019
C14   C     C_R   0.934580 0.627423 0.499668 -0.178726
C15   C     C_R   0.938031 0.382786 0.493936 -0.215085
C16   C     C_R   0.062764 0.627533 0.501278 -0.123493
C17   C     C_R   0.402717 0.359707 0.742940 0.227448
C18   C     C_R   0.424119 0.617719 0.251086 0.151665
C19   C     C_R   0.553422 0.417606 0.245165 0.318302
C20   C     C_R   0.414088 0.605072 0.742214 0.195485
C21   C     C_R   0.336474 0.364330 0.805191 0.443294
C22   C     C_R   0.349432 0.579143 0.193398 0.482666
C23   C     C_R   0.513893 0.418032 0.172298 0.442177
C24   C     C_R   0.406945 0.593919 0.816584 0.446478
C25   C     C_R   0.353169 0.475523 0.847501 -0.096718
C26   C     C_R   0.401668 0.488966 0.147608 -0.116343
C27   C     C_R   0.590733 0.066206 0.539169 0.437576
C28   C     C_R   0.407058 0.933735 0.462926 0.396288
C29   C     C_R   0.410847 0.079616 0.459886 0.433750
C30   C     C_R   0.588940 0.920054 0.540359 0.402578
C31   C     C_R   0.439986 0.485164 0.708213 -0.451865
C32   C     C_R   0.500581 0.515849 0.286182 -0.437862
H1    H     H_    0.112741 0.284834 0.512788 0.157884
H2    H     H_    0.884939 0.723412 0.500293 0.190264
H3    H     H_    0.891842 0.289955 0.483576 0.157992
H4    H     H_    0.110278 0.723643 0.501302 0.215881
N1    N     N_R   0.500000 0.857200 0.500000 -0.159985
N2    N     N_R   0.500000 0.142800 0.500000 -0.159475
O1    O     O_R   0.316770 0.614620 0.500000 -0.558444
O2    O     O_R   0.683230 0.385380 0.500000 -0.579912
O3    O     O_R   0.683230 0.614620 0.500000 -0.590558
O4    O     O_R   0.316770 0.385380 0.500000 -0.610956
O5    O     O_R   0.500030 0.614710 0.398180 -0.607104
O6    O     O_R   0.499970 0.385290 0.601820 -0.511902
O7    O     O_R   0.499970 0.614710 0.601820 -0.560353
O8    O     O_R   0.500030 0.385290 0.398180 -0.526634
Zn1   Zn    Zn3+2 0.500000 0.653120 0.500000 1.085419
Zn2   Zn    Zn3+2 0.500000 0.346880 0.500000 1.115538
O9    O     O_3   0.677128 0.133740 0.580842 -0.530525
C33   C     C_3   0.800820 0.098823 0.566739 -0.233327
H5    H     H_    0.862069 0.179930 0.585516 0.174471
H6    H     H_    0.812762 0.085490 0.509107 0.136304
H7    H     H_    0.835926 0.007892 0.599120 0.190397
O10   O     O_3   0.298464 0.869892 0.441904 -0.624955
C34   C     C_3   0.291644 0.855036 0.367926 -0.140992
H8    H     H_    0.326346 0.753754 0.357250 0.201417
H9    H     H_    0.339868 0.936326 0.336634 0.226983
H10   H     H_    0.192039 0.857774 0.348748 0.145757
O11   O     O_3   0.340678 0.159976 0.408606 -0.565541
C35   C     C_3   0.211139 0.143194 0.413276 -0.219286
H11   H     H_    0.165844 0.244240 0.402747 0.167740
H12   H     H_    0.183694 0.096681 0.465684 0.159991
H13   H     H_    0.173281 0.084465 0.369264 0.170368
O12   O     O_3   0.681128 0.839545 0.577311 -0.605443
C36   C     C_3   0.675430 0.844605 0.652238 -0.177988
H14   H     H_    0.627446 0.754711 0.674884 0.183632
H15   H     H_    0.631059 0.938128 0.669633 0.230415
H16   H     H_    0.771685 0.837855 0.676964 0.142873
S1    S     S_3+6 0.441493 0.196680 0.715287 0.073204
O13   O     O_2   0.578665 0.192440 0.703847 -0.268257
O14   O     O_2   0.415034 0.086620 0.771367 -0.248425
O15   O     O_3   0.360036 0.167008 0.639052 -0.512491
H17   H     H_    0.271458 0.179250 0.649710 0.341475
S2    S     S_3+6 0.490446 0.780277 0.238192 0.058275
O16   O     O_2   0.391141 0.882489 0.211487 -0.257143
O17   O     O_2   0.554274 0.824833 0.305669 -0.273209
O18   O     O_3   0.596606 0.773653 0.175958 -0.542635
H18   H     H_    0.661430 0.708478 0.197063 0.345825
S3    S     S_3+6 0.672192 0.303219 0.282651 0.074066
O19   O     O_2   0.612744 0.184488 0.321153 -0.232021
O20   O     O_2   0.750592 0.251724 0.226078 -0.254827
O21   O     O_3   0.764609 0.383011 0.341016 -0.606106
H19   H     H_    0.839381 0.323417 0.350087 0.364148
S4    S     S_3+6 0.323823 0.739762 0.696690 0.069041
O22   O     O_2   0.404557 0.851135 0.667879 -0.291633
O23   O     O_2   0.247407 0.686324 0.635767 -0.287661
O24   O     O_3   0.224947 0.804534 0.752499 -0.490670
H20   H     H_    0.274259 0.870264 0.779348 0.421806
O25   O     O_3   0.262703 0.256951 0.826634 -0.504008
C37   C     C_3   0.138622 0.288457 0.802349 -0.247855
H21   H     H_    0.102877 0.379330 0.827194 0.147435
H22   H     H_    0.129648 0.303967 0.743019 0.145998
H23   H     H_    0.079157 0.201674 0.818263 0.193037
O26   O     O_3   0.236092 0.644796 0.177531 -0.520359
C38   C     C_3   0.140700 0.554396 0.196089 -0.286256
H24   H     H_    0.149172 0.521033 0.254003 0.143534
H25   H     H_    0.139972 0.464890 0.163158 0.154535
H26   H     H_    0.049518 0.607945 0.185499 0.202293
O27   O     O_3   0.581958 0.346583 0.126581 -0.505956
C39   C     C_3   0.660767 0.438117 0.090457 -0.272164
H27   H     H_    0.722832 0.491653 0.128475 0.167073
H28   H     H_    0.606052 0.512795 0.053996 0.129345
H29   H     H_    0.721489 0.379912 0.057250 0.176517
O28   O     O_3   0.433201 0.703300 0.857306 -0.566503
C40   C     C_3   0.552065 0.755072 0.843507 -0.326210
H30   H     H_    0.548914 0.817554 0.792109 0.217272
H31   H     H_    0.624246 0.672978 0.844085 0.121717
H32   H     H_    0.580371 0.822480 0.886233 0.189226
O29   O     O_3   0.219383 0.683245 0.914567 -0.518929
C41   C     C_3   0.090829 0.678158 0.925737 -0.227812
H33   H     H_    0.071911 0.697180 0.981866 0.173146
H34   H     H_    0.050994 0.579366 0.911325 0.119590
H35   H     H_    0.042403 0.759267 0.890550 0.196872
O30   O     O_3   0.368970 0.232089 0.086581 -0.524698
C42   C     C_3   0.254433 0.163853 0.086796 -0.185149
H36   H     H_    0.226642 0.130261 0.032924 0.179084
H37   H     H_    0.179349 0.228056 0.106418 0.116888
H38   H     H_    0.265332 0.071742 0.123802 0.235228
O31   O     O_3   0.305350 0.720724 0.054810 -0.536034
C43   C     C_3   0.404767 0.799321 0.029557 -0.059192
H39   H     H_    0.385165 0.836700 0.972983 0.209553
H40   H     H_    0.495591 0.742956 0.036007 0.126318
H41   H     H_    0.413833 0.889821 0.061205 0.227067
O32   O     O_3   0.402384 0.230161 0.941577 -0.522853
C44   C     C_3   0.533866 0.227388 0.946438 -0.187943
H42   H     H_    0.569763 0.208233 0.002826 0.214294
H43   H     H_    0.573519 0.322431 0.922219 0.108634
H44   H     H_    0.566746 0.142272 0.916346 0.191652

loop_
_geom_bond_atom_site_label_1
_geom_bond_atom_site_label_2
_ccdc_geom_bond_type
C23   O27   S    
O24   H20   S    
C17   S1    S    
C30   O12   S    
C38   H24   S    
S4    O24   S    
C6    O32   S    
C34   H8    S    
O30   C42   S    
C38   H26   S    
C21   O25   S    
O18   H18   S    
C40   H31   S    
C9    O4    A    
C7    C26   S    
S2    O17   D    
C5    O31   S    
C35   H13   S    
C4    O30   S    
C28   C29   A    
S4    O23   D    
C27   N2    A    
C42   H36   S    
C9    O1    A    
C10   O2    A    
C23   C26   A    
S1    O14   D    
C2    C13   A    
C41   H33   S    
C20   C24   A    
C42   H37   S    
S2    O18   S    
C29   N2    A    
C44   H44   S    
C33   H6    S    
C11   O5    A    
C1    C15   A    
N1    Zn1   S    
C2    C16   A    
N2    Zn2   S    
C43   H41   S    
C42   H38   S    
O11   C35   S    
C18   S2    S    
C27   C30   A    
C8    C25   S    
C22   O26   S    
S1    O13   D    
C4    C7    A    
C19   C32   A    
C15   H3    S    
O28   C40   S    
C43   H40   S    
O7    Zn1   S    
C40   H32   S    
O8    Zn2   S    
C33   H7    S    
S2    O16   D    
C29   O11   S    
C24   C25   A    
C4    C6    A    
C3    C8    A    
C5    C7    A    
C28   O10   S    
O15   H17   S    
C6    C8    A    
C36   H15   S    
O1    Zn1   S    
C39   H29   S    
C17   C21   A    
C30   N1    A    
C35   H11   S    
C24   O28   S    
S1    O15   S    
C19   C23   A    
C13   H1    S    
C37   H22   S    
O27   C39   S    
C36   H16   S    
C39   H28   S    
C33   H5    S    
O3    Zn1   S    
C34   H9    S    
O4    Zn2   S    
S4    O22   D    
C19   S3    S    
C41   H35   S    
C11   C32   S    
O9    C33   S    
C20   S4    S    
C12   C31   S    
C44   H42   S    
C17   C31   A    
C14   C16   A    
C18   C32   A    
C43   H39   S    
C37   H23   S    
S3    O20   D    
O2    Zn2   S    
C21   C25   A    
O10   C34   S    
C18   C22   A    
C1    C10   S    
C12   O7    A    
C3    C5    A    
C14   H2    S    
S3    O21   S    
O31   C43   S    
C38   H25   S    
C40   H30   S    
O12   C36   S    
C13   C15   A    
C12   O6    A    
O29   C41   S    
C16   H4    S    
C35   H12   S    
C37   H21   S    
C28   N1    A    
C3    O29   S    
C39   H27   S    
C36   H14   S    
O26   C38   S    
C41   H34   S    
S3    O19   D    
O6    Zn2   S    
O21   H19   S    
C22   C26   A    
C34   H10   S    
C44   H43   S    
C11   O8    A    
C1    C14   A    
O25   C37   S    
C2    C9    S    
O5    Zn1   S    
C27   O9    S    
O32   C44   S    
C10   O3    A    
C20   C31   A    
