data_mof_unit_pretest_1172.cif
_audit_creation_date              2013-03-05T16:21:18-0500
_audit_creation_method            fapswitch 2.2
_symmetry_space_group_name_H-M    P1
_symmetry_Int_Tables_number       1
_space_group_crystal_system       triclinic
_cell_length_a                    23.290925
_cell_length_b                    29.341743
_cell_length_c                    8.40368
_cell_angle_alpha                 89.993261
_cell_angle_beta                  92.970737
_cell_angle_gamma                 90.002166
_cell_volume                      5735.32619512

loop_
_atom_site_label
_atom_site_type_symbol
_atom_site_description
_atom_site_fract_x
_atom_site_fract_y
_atom_site_fract_z
_atom_type_partial_charge
P1    P     P_3+3 0.880180 0.450420 0.058010 0.472520
P2    P     P_3+3 0.880180 0.549580 0.558010 0.471285
P3    P     P_3+3 0.380180 0.950420 0.058010 0.476847
P4    P     P_3+3 0.380180 0.049580 0.558010 0.470164
O1    O     O_2   0.885810 0.435270 0.885040 -0.336577
O2    O     O_2   0.885810 0.564730 0.385040 -0.337684
O3    O     O_2   0.385810 0.935270 0.885040 -0.333896
O4    O     O_2   0.385810 0.064730 0.385040 -0.338670
O5    O     O_3   0.933490 0.477290 0.133000 -0.370406
O6    O     O_3   0.933490 0.522710 0.633000 -0.370673
O7    O     O_3   0.433490 0.977290 0.133000 -0.372919
O8    O     O_3   0.433490 0.022710 0.633000 -0.371368
O9    O     O_3   0.980190 0.395350 0.639000 -0.324710
O10   O     O_3   0.980190 0.604650 0.139000 -0.341561
O11   O     O_3   0.480190 0.895350 0.639000 -0.328211
O12   O     O_3   0.480190 0.104650 0.139000 -0.341305
O13   O     O_2   0.884350 0.362333 0.743535 -0.348278
O14   O     O_2   0.886908 0.641666 0.250211 -0.363653
O15   O     O_2   0.384642 0.860995 0.747815 -0.341601
O16   O     O_2   0.386916 0.141680 0.249759 -0.365198
O17   O     O_3   0.822345 0.488210 0.026971 -0.629175
O18   O     O_3   0.822169 0.511943 0.526933 -0.628618
O19   O     O_3   0.322338 0.988198 0.026930 -0.630791
O20   O     O_3   0.322224 0.011900 0.526912 -0.628410
O21   O     O_3   0.958801 0.301173 0.689600 -0.552886
O22   O     O_3   0.961756 0.699942 0.158968 -0.584693
O23   O     O_3   0.457458 0.800217 0.672059 -0.568814
O24   O     O_3   0.461705 0.199932 0.158445 -0.584705
C1    C     C_3   0.964238 0.223769 0.605831 -0.965584
C2    C     C_3   0.976432 0.752356 0.945714 -1.060489
C3    C     C_3   0.473560 0.737014 0.500372 -1.074642
C4    C     C_3   0.476486 0.252275 0.945082 -1.058595
H1    H     H_    0.989581 0.213278 0.715372 0.266945
H2    H     H_    0.964341 0.780503 0.025834 0.283288
H3    H     H_    0.466813 0.714434 0.603913 0.280425
H4    H     H_    0.464291 0.280424 0.025034 0.283303
H5    H     H_    0.917878 0.219442 0.626298 0.216870
H6    H     H_    0.937983 0.741879 0.872366 0.227464
H7    H     H_    0.432557 0.740249 0.428918 0.226490
H8    H     H_    0.438108 0.241766 0.871541 0.227831
P5    P     P_3+3 0.119600 0.450040 0.631910 0.459934
P6    P     P_3+3 0.119600 0.549960 0.131910 0.458017
P7    P     P_3+3 0.619600 0.950040 0.631910 0.460865
P8    P     P_3+3 0.619600 0.049960 0.131910 0.457530
P9    P     P_3+3 0.070993 0.352490 0.074044 0.491039
P10   P     P_3+3 0.070072 0.647874 0.577908 0.476287
P11   P     P_3+3 0.570959 0.852692 0.076070 0.500841
P12   P     P_3+3 0.570207 0.147812 0.577763 0.476136
O25   O     O_2   0.113920 0.434910 0.804950 -0.370273
O26   O     O_2   0.113920 0.565090 0.304950 -0.369817
O27   O     O_2   0.613920 0.934910 0.804950 -0.363119
O28   O     O_2   0.613920 0.065090 0.304950 -0.367877
O29   O     O_3   0.019410 0.395290 0.051170 -0.396402
O30   O     O_3   0.019410 0.604710 0.551170 -0.400726
O31   O     O_3   0.519410 0.895290 0.051170 -0.363112
O32   O     O_3   0.519410 0.104710 0.551170 -0.400998
O33   O     O_2   0.111971 0.357386 0.936275 -0.341644
O34   O     O_2   0.115498 0.639942 0.453436 -0.330365
O35   O     O_2   0.617166 0.862257 0.955400 -0.330198
O36   O     O_2   0.615531 0.139870 0.453020 -0.330072
O37   O     O_3   0.179638 0.486055 0.643141 -0.577891
O38   O     O_3   0.180361 0.514757 0.141028 -0.576423
O39   O     O_3   0.679819 0.985863 0.642448 -0.578798
O40   O     O_3   0.679847 0.014169 0.142604 -0.576645
O41   O     O_3   0.035986 0.300553 0.035599 -0.477366
O42   O     O_3   0.037003 0.699494 0.521533 -0.483570
O43   O     O_3   0.537871 0.802494 0.006483 -0.443505
O44   O     O_3   0.537294 0.199515 0.521670 -0.484234
C5    C     C_3   0.981428 0.302674 0.099436 0.544502
C6    C     C_3   0.978823 0.697332 0.558069 0.513257
C7    C     C_3   0.499349 0.788200 0.119315 0.408339
C8    C     C_3   0.479028 0.197368 0.557299 0.513201
H9    H     H_    0.952536 0.325143 0.024838 0.120989
H10   H     H_    0.955688 0.671615 0.482185 0.152191
H11   H     H_    0.472616 0.816793 0.161801 0.062920
H12   H     H_    0.456006 0.171715 0.480882 0.152871
H13   H     H_    0.984229 0.315624 0.223920 -0.009015
H14   H     H_    0.974395 0.688386 0.685221 -0.020563
H15   H     H_    0.524235 0.772393 0.220784 0.051829
H16   H     H_    0.474344 0.188341 0.684283 -0.020513
C9    C     C_3   0.955266 0.255202 0.099929 -0.969792
C10   C     C_3   0.950504 0.743398 0.525535 -0.940714
C11   C     C_3   0.458696 0.752656 0.044950 -0.889548
C12   C     C_3   0.450841 0.243482 0.524666 -0.939539
H17   H     H_    0.950130 0.241929 0.976340 0.275073
H18   H     H_    0.951622 0.752231 0.397487 0.294212
H19   H     H_    0.431032 0.768306 0.948335 0.281366
H20   H     H_    0.452266 0.252398 0.396752 0.294199
H21   H     H_    0.983430 0.231818 0.172676 0.280429
H22   H     H_    0.973421 0.770452 0.595598 0.262711
H23   H     H_    0.483541 0.724114 0.995562 0.270429
H24   H     H_    0.473647 0.270473 0.595305 0.262580
C13   C     C_3   0.165840 0.471584 0.196507 0.442574
C14   C     C_3   0.163686 0.529276 0.695348 0.444406
C15   C     C_3   0.664084 0.970906 0.195030 0.444485
C16   C     C_3   0.664130 0.029077 0.695411 0.444601
H25   H     H_    0.149863 0.474469 0.317756 0.090054
H26   H     H_    0.146443 0.526652 0.815133 0.089921
H27   H     H_    0.647204 0.973468 0.315294 0.085898
H28   H     H_    0.647296 0.026402 0.815698 0.088430
H29   H     H_    0.132941 0.455142 0.115009 0.120822
H30   H     H_    0.131253 0.545043 0.610827 0.129019
H31   H     H_    0.631413 0.955154 0.111188 0.127896
H32   H     H_    0.631462 0.044934 0.611789 0.128673
C17   C     C_3   0.219669 0.442089 0.203149 -1.014717
C18   C     C_3   0.216820 0.559544 0.704630 -1.007109
C19   C     C_3   0.717186 0.940610 0.202994 -1.006293
C20   C     C_3   0.717301 0.059305 0.703628 -1.007854
H33   H     H_    0.253123 0.457520 0.285345 0.274278
H34   H     H_    0.249471 0.545279 0.791897 0.271401
H35   H     H_    0.750099 0.954825 0.289592 0.270352
H36   H     H_    0.750253 0.044906 0.789731 0.270871
H37   H     H_    0.209931 0.407443 0.246380 0.208110
H38   H     H_    0.205600 0.594414 0.742704 0.215548
H39   H     H_    0.706004 0.905736 0.241250 0.215445
H40   H     H_    0.706255 0.094125 0.742679 0.215409
H41   H     H_    0.236567 0.439193 0.082349 0.264625
H42   H     H_    0.235401 0.561671 0.585745 0.264317
H43   H     H_    0.735396 0.938503 0.083625 0.265286
H44   H     H_    0.735415 0.061587 0.584172 0.264611
Ba1   Ba    Ba6+2 0.999920 0.467660 0.844980 1.619740
Ba2   Ba    Ba6+2 0.999920 0.532340 0.344980 1.613424
Ba3   Ba    Ba6+2 0.499920 0.967660 0.844980 1.626540
Ba4   Ba    Ba6+2 0.499920 0.032340 0.344980 1.614356
C21   C     C_3   0.798088 0.500333 0.169605 0.755729
C22   C     C_3   0.798025 0.499575 0.669532 0.756014
C23   C     C_3   0.298152 0.000432 0.169555 0.754939
C24   C     C_3   0.297827 0.999845 0.669465 0.757680
H45   H     H_    0.831744 0.500734 0.265401 0.098226
H46   H     H_    0.831915 0.498523 0.764562 0.098733
H47   H     H_    0.331845 0.000872 0.265237 0.097556
H48   H     H_    0.331542 0.999047 0.765032 0.097279
C25   C     C_3   0.750765 0.466466 0.210808 -0.911060
C26   C     C_3   0.751303 0.533712 0.713115 -0.915233
C27   C     C_3   0.250806 0.966632 0.211189 -0.914244
C28   C     C_3   0.250946 0.034042 0.711314 -0.917092
H49   H     H_    0.719561 0.462057 0.107443 0.264903
H50   H     H_    0.720109 0.538934 0.610213 0.263976
H51   H     H_    0.219590 0.962145 0.107900 0.265420
H52   H     H_    0.219763 0.038794 0.608101 0.264493
H53   H     H_    0.727699 0.478873 0.314786 0.276390
H54   H     H_    0.728089 0.521059 0.816480 0.277052
H55   H     H_    0.227758 0.979146 0.315044 0.277082
H56   H     H_    0.227764 0.021708 0.815197 0.276707
H57   H     H_    0.769141 0.432967 0.244757 0.226616
H58   H     H_    0.770222 0.566843 0.749243 0.226437
H59   H     H_    0.269149 0.933154 0.245546 0.223781
H60   H     H_    0.269688 0.067366 0.745795 0.225582
O45   O     O_3   0.066460 0.522600 0.056690 -0.407511
O46   O     O_3   0.066460 0.477400 0.556690 -0.409012
O47   O     O_3   0.566460 0.022600 0.056690 -0.410230
O48   O     O_3   0.566460 0.977400 0.556690 -0.411053
P13   P     P_3+3 0.928391 0.647509 0.114194 0.484813
P14   P     P_3+3 0.928221 0.352371 0.617067 0.504324
P15   P     P_3+3 0.428368 0.147488 0.113727 0.483701
P16   P     P_3+3 0.427286 0.853037 0.616355 0.523240
C29   C     C_3   0.977247 0.273355 0.565233 0.886451
C30   C     C_3   0.000876 0.712048 0.043102 0.906389
C31   C     C_3   0.494665 0.784032 0.557610 1.019895
C32   C     C_3   0.500888 0.212000 0.042695 0.905513
H61   H     H_    0.954772 0.280660 0.448812 -0.121527
H62   H     H_    0.009720 0.683826 0.959215 -0.098377
H63   H     H_    0.496559 0.806668 0.451933 -0.238803
H64   H     H_    0.509780 0.183761 0.958928 -0.098053
H65   H     H_    0.975301 0.201075 0.506150 0.247883
H66   H     H_    0.008918 0.764992 0.864237 0.260644
H67   H     H_    0.505200 0.720752 0.423974 0.257056
H68   H     H_    0.509031 0.264918 0.863795 0.260305
H69   H     H_    0.912403 0.256421 0.151577 0.211859
H70   H     H_    0.905006 0.742254 0.558811 0.209679
H71   H     H_    0.430508 0.739072 0.136322 0.203266
H72   H     H_    0.405256 0.242365 0.557126 0.210121
C33   C     C_R   0.754255 0.290928 0.004001 0.017980
C34   C     C_R   0.754171 0.708981 0.503545 0.015385
C35   C     C_R   0.254033 0.791041 0.003930 0.014527
C36   C     C_R   0.257106 0.210552 0.498785 0.010263
C37   C     C_R   0.758268 0.332685 0.921675 -0.142561
C38   C     C_R   0.758193 0.667238 0.421132 -0.146061
C39   C     C_R   0.258025 0.832792 0.921530 -0.143647
C40   C     C_R   0.260636 0.168793 0.416335 -0.142259
C41   C     C_R   0.192237 0.755241 0.789176 -0.182332
C42   C     C_R   0.199338 0.248052 0.278925 -0.175803
C43   C     C_R   0.692540 0.255126 0.789041 -0.183020
C44   C     C_R   0.692132 0.744664 0.288963 -0.177996
C45   C     C_R   0.219691 0.754130 0.942925 0.071528
C46   C     C_R   0.224261 0.248075 0.435874 0.065990
C47   C     C_R   0.719957 0.254008 0.942845 0.070076
C48   C     C_R   0.719887 0.745908 0.442365 0.069746
C49   C     C_R   0.156257 0.720307 0.734494 -0.131946
C50   C     C_R   0.163876 0.283287 0.222980 -0.087872
C51   C     C_R   0.656594 0.220181 0.734227 -0.131929
C52   C     C_R   0.656067 0.779551 0.234376 -0.166130
C53   C     C_R   0.146250 0.682179 0.829354 -0.023666
C54   C     C_R   0.151858 0.320499 0.320235 0.031806
C55   C     C_R   0.646578 0.182042 0.829022 -0.023729
C56   C     C_R   0.646306 0.817761 0.328920 -0.010723
C57   C     C_R   0.176984 0.678019 0.978568 0.048631
C58   C     C_R   0.180718 0.323791 0.472600 0.060473
C59   C     C_R   0.677294 0.177874 0.978275 0.048794
C60   C     C_R   0.677484 0.822143 0.477433 0.062331
C61   C     C_R   0.213593 0.714192 0.036174 0.076357
C62   C     C_R   0.217047 0.287496 0.530800 0.061428
C63   C     C_R   0.713872 0.214049 0.035995 0.075637
C64   C     C_R   0.714071 0.785970 0.535150 0.072321
C65   C     C_R   0.106691 0.647965 0.778786 0.130117
C66   C     C_R   0.111191 0.354117 0.270721 0.139352
C67   C     C_R   0.607014 0.147830 0.778409 0.130923
C68   C     C_R   0.606528 0.851830 0.278675 0.084407
C69   C     C_R   0.096897 0.610924 0.878585 -0.499981
C70   C     C_R   0.099631 0.390185 0.373405 -0.491503
C71   C     C_R   0.597255 0.110773 0.878126 -0.499461
C72   C     C_R   0.597016 0.889018 0.378214 -0.466118
C73   C     C_R   0.129959 0.604189 0.020496 0.273446
C74   C     C_R   0.131455 0.396459 0.517782 0.279660
C75   C     C_R   0.630285 0.104048 0.020080 0.270497
C76   C     C_R   0.630532 0.896029 0.519297 0.279503
C77   C     C_R   0.171264 0.637676 0.069984 -0.003699
C78   C     C_R   0.173056 0.363230 0.567190 -0.005013
C79   C     C_R   0.671562 0.137529 0.069663 -0.003401
C80   C     C_R   0.672140 0.862674 0.568128 -0.001500
C81   C     C_R   0.783649 0.287030 0.155594 0.042264
C82   C     C_R   0.783583 0.712865 0.655155 0.039885
C83   C     C_R   0.283454 0.787159 0.155503 0.044854
C84   C     C_R   0.285172 0.213754 0.652438 0.036700
C85   C     C_R   0.820299 0.323109 0.213822 0.028212
C86   C     C_R   0.820002 0.676669 0.713620 0.026557
C87   C     C_R   0.320079 0.823253 0.213657 0.038283
C88   C     C_R   0.320793 0.177165 0.711830 0.026002
C89   C     C_R   0.827874 0.362668 0.119982 -0.080319
C90   C     C_R   0.827629 0.637165 0.619585 -0.081941
C91   C     C_R   0.327653 0.862789 0.119684 -0.070029
C92   C     C_R   0.328249 0.137635 0.617814 -0.083562
C93   C     C_R   0.793645 0.367667 0.979386 -0.033991
C94   C     C_R   0.793552 0.632248 0.478777 -0.030277
C95   C     C_R   0.293407 0.867780 0.979150 -0.036733
C96   C     C_R   0.294655 0.133160 0.475851 -0.028679
H73   H     H_    0.065777 0.585343 0.839701 0.169310
H74   H     H_    0.067644 0.415252 0.335896 0.164450
H75   H     H_    0.566117 0.085202 0.839263 0.169377
H76   H     H_    0.565842 0.914577 0.339498 0.161680
H77   H     H_    0.136400 0.724005 0.616325 0.202665
H78   H     H_    0.145422 0.280406 0.102795 0.181524
H79   H     H_    0.636773 0.223873 0.616013 0.202799
H80   H     H_    0.635716 0.775688 0.116831 0.191827
H81   H     H_    0.793205 0.398861 0.911906 0.198563
H82   H     H_    0.793189 0.601090 0.411224 0.199384
H83   H     H_    0.292966 0.898984 0.911730 0.197935
H84   H     H_    0.293851 0.101949 0.408567 0.199721
C97   C     C_R   0.206586 0.632501 0.208951 -0.050959
C98   C     C_R   0.207100 0.367943 0.708652 -0.065495
C99   C     C_R   0.706834 0.132342 0.208703 -0.052389
C100  C     C_R   0.707592 0.867923 0.706760 -0.057860
C101  C     C_R   0.241225 0.667998 0.267203 -0.185694
C102  C     C_R   0.241853 0.332518 0.766664 -0.194001
C103  C     C_R   0.741479 0.167827 0.266998 -0.184931
C104  C     C_R   0.742160 0.832392 0.765252 -0.184897
C105  C     C_R   0.243463 0.710205 0.186954 0.055313
C106  C     C_R   0.245367 0.290783 0.684056 0.050690
C107  C     C_R   0.743727 0.210040 0.186789 0.056235
C108  C     C_R   0.744149 0.790062 0.685619 0.054020
C109  C     C_R   0.776477 0.247509 0.249994 0.060078
C110  C     C_R   0.776746 0.752516 0.749138 0.059983
C111  C     C_R   0.276215 0.747690 0.250088 0.060018
C112  C     C_R   0.277786 0.253112 0.747484 0.060369
C113  C     C_R   0.800514 0.247624 0.407744 -0.192100
C114  C     C_R   0.801140 0.752537 0.906566 -0.189595
C115  C     C_R   0.300220 0.747857 0.407880 -0.195651
C116  C     C_R   0.301361 0.252665 0.905847 -0.196881
C117  C     C_R   0.848344 0.319958 0.367170 0.006657
C118  C     C_R   0.847973 0.679685 0.867061 -0.009998
C119  C     C_R   0.347944 0.820257 0.367272 -0.004765
C120  C     C_R   0.348177 0.179842 0.866132 -0.009339
C121  C     C_R   0.835044 0.283240 0.465089 -0.172238
C122  C     C_R   0.835450 0.716809 0.964318 -0.158526
C123  C     C_R   0.334724 0.783504 0.465273 -0.177048
C124  C     C_R   0.335417 0.216813 0.963714 -0.158852
C125  C     C_R   0.888462 0.353781 0.418585 0.158694
C126  C     C_R   0.887539 0.645476 0.918698 0.197392
C127  C     C_R   0.387473 0.854446 0.419061 0.180684
C128  C     C_R   0.387450 0.145476 0.918254 0.197312
C129  C     C_R   0.898463 0.390987 0.318954 -0.387749
C130  C     C_R   0.897707 0.608453 0.819072 -0.396801
C131  C     C_R   0.397722 0.891459 0.319263 -0.389218
C132  C     C_R   0.397446 0.108390 0.818888 -0.395672
C133  C     C_R   0.867946 0.396677 0.172122 0.147107
C134  C     C_R   0.867668 0.603138 0.671742 0.147424
C135  C     C_R   0.367667 0.896829 0.171891 0.166133
C136  C     C_R   0.367670 0.103238 0.671127 0.147831
H85   H     H_    0.207666 0.601192 0.276435 0.156520
H86   H     H_    0.207090 0.398814 0.778377 0.158572
H87   H     H_    0.707877 0.101025 0.276153 0.156385
H88   H     H_    0.708680 0.899292 0.773935 0.157276
H89   H     H_    0.851352 0.281390 0.587539 0.158311
H90   H     H_    0.852942 0.719328 0.085609 0.179480
H91   H     H_    0.351589 0.781273 0.587203 0.177245
H92   H     H_    0.352400 0.219042 0.085581 0.179134
H93   H     H_    0.928869 0.416908 0.359463 0.174011
H94   H     H_    0.928095 0.582514 0.859596 0.174903
H95   H     H_    0.427990 0.917462 0.359987 0.170429
H96   H     H_    0.427536 0.082292 0.859904 0.174716
H97   H     H_    0.198022 0.782591 0.706099 0.146084
H98   H     H_    0.206779 0.221257 0.194804 0.138683
H99   H     H_    0.698329 0.282493 0.706031 0.146423
H100  H     H_    0.697585 0.717190 0.206214 0.145475
H101  H     H_    0.733618 0.340065 0.812809 0.163429
H102  H     H_    0.733654 0.659879 0.312095 0.161951
H103  H     H_    0.233346 0.840167 0.812707 0.163672
H104  H     H_    0.236371 0.161971 0.306294 0.163328
H105  H     H_    0.266968 0.660912 0.374679 0.121449
H106  H     H_    0.266393 0.339289 0.876355 0.123294
H107  H     H_    0.767209 0.160731 0.374491 0.120843
H108  H     H_    0.767973 0.839534 0.872535 0.123222
H109  H     H_    0.792174 0.220984 0.491864 0.131471
H110  H     H_    0.793474 0.779491 0.990011 0.134240
H111  H     H_    0.292009 0.721162 0.491900 0.136043
H112  H     H_    0.293419 0.279367 0.989953 0.131018
N1    N     N_R   0.039033 0.278552 0.550066 0.214437
O49   O     O_R   0.069704 0.302610 0.652900 -0.344605
O50   O     O_R   0.064506 0.255622 0.441631 -0.447422
N2    N     N_R   0.055566 0.724583 0.125153 0.232909
O51   O     O_R   0.077327 0.765321 0.114935 -0.396576
O52   O     O_R   0.082785 0.694441 0.212930 -0.349596
N3    N     N_R   0.552613 0.781129 0.632169 0.230941
O53   O     O_R   0.580881 0.742859 0.643117 -0.410684
O54   O     O_R   0.575545 0.817561 0.695147 -0.347356
N4    N     N_R   0.555535 0.224563 0.124884 0.232880
O55   O     O_R   0.577144 0.265357 0.115174 -0.396036
O56   O     O_R   0.582848 0.194402 0.212339 -0.349797
N5    N     N_R   0.774721 0.546541 0.150851 0.220470
O57   O     O_R   0.721190 0.555699 0.175483 -0.420418
O58   O     O_R   0.807127 0.578712 0.098473 -0.409044
N6    N     N_R   0.773889 0.453648 0.649231 0.221209
O59   O     O_R   0.720641 0.444685 0.677910 -0.417840
O60   O     O_R   0.805156 0.421627 0.591122 -0.406377
N7    N     N_R   0.274832 0.046645 0.150492 0.220905
O61   O     O_R   0.221367 0.055893 0.175645 -0.419572
O62   O     O_R   0.307204 0.078723 0.097337 -0.410482
N8    N     N_R   0.273820 0.953851 0.650179 0.220696
O63   O     O_R   0.220403 0.944976 0.677242 -0.417576
O64   O     O_R   0.305436 0.921634 0.594749 -0.412256

loop_
_geom_bond_atom_site_label_1
_geom_bond_atom_site_label_2
_geom_bond_distance
_ccdc_geom_bond_type
P10   C65   1.851473 S    
C25   H49   1.110874 S    
O27   Ba3   2.859954 S    
C118  C122  1.401644 A    
C34   C82   1.419546 A    
P5    O37   1.751350 S    
C28   H52   1.110828 S    
P7    O39   1.751266 S    
P8    O40   1.751275 S    
C97   C101  1.390859 A    
C115  C123  1.390086 A    
C70   H74   1.082132 S    
C15   H27   1.105814 S    
C81   C85   1.430202 A    
C99   H87   1.079212 S    
C2    H6    1.104172 S    
P11   O43   1.748916 S    
C20   H44   1.110905 S    
C11   H71   1.109788 S    
C6    H10   1.109446 S    
N4    O55   1.302650 A    
C127  C131  1.400121 A    
P4    O8    1.574567 S    
C55   C59   1.416657 A    
C119  C127  1.414879 A    
C16   C20   1.521884 S    
C49   H77   1.078978 S    
C18   H42   1.110912 S    
C31   N3    1.460730 S    
C78   C98   1.401213 A    
C21   N5    1.466433 S    
C58   C78   1.420484 A    
C115  H111  1.078185 S    
C84   C88   1.430750 A    
C83   C111  1.419520 A    
P3    Ba3   3.428663 S    
C26   H58   1.103412 S    
O31   Ba3   2.763199 S    
N3    O53   1.302551 A    
Ba2   O45   2.956743 S    
P16   C127  1.857731 S    
C13   H29   1.111123 S    
N7    O62   1.299484 A    
O37   C14   1.398518 S    
O39   C16   1.398702 S    
C69   C73   1.399653 A    
P13   C126  1.856325 S    
C111  C115  1.412143 A    
C68   C72   1.399609 A    
P9    O33   1.544803 D    
O12   P15   1.747936 S    
C8    C12   1.522582 S    
C44   H100  1.076492 S    
C39   C95   1.387893 A    
C3    H67   1.109991 S    
C80   C100  1.401112 A    
C74   C78   1.421303 A    
C60   C80   1.421528 A    
C29   N1    1.459243 S    
C102  H106  1.077644 S    
C25   H57   1.103622 S    
C52   C56   1.399599 A    
O23   P16   1.755192 S    
C16   H32   1.110762 S    
C23   N7    1.466404 S    
Ba3   O48   2.956677 S    
C41   C45   1.411979 A    
O21   P14   1.757951 S    
C105  C111  1.425207 A    
C106  C112  1.426235 A    
C12   H20   1.108462 S    
O3    Ba3   2.858764 S    
C107  C109  1.425031 A    
C37   C93   1.387922 A    
C11   H23   1.110634 S    
C81   C109  1.419668 A    
C9    H69   1.109600 S    
C42   H98   1.077382 S    
O12   Ba4   2.761498 S    
C86   C118  1.417019 A    
O28   Ba4   2.859862 S    
C93   H81   1.076453 S    
O42   C6    1.406294 S    
Ba1   O45   2.807225 S    
O22   C30   1.412901 S    
C6    C10   1.522505 S    
C23   H47   1.094131 S    
O9    P14   1.751051 S    
P3    O7    1.574595 S    
P11   O35   1.542200 D    
N7    O61   1.302401 A    
C116  H112  1.077650 S    
C131  H95   1.082225 S    
C22   C26   1.537212 S    
O38   C13   1.397362 S    
C22   H46   1.093815 S    
C42   C50   1.389888 A    
P7    O48   1.579482 S    
C30   H62   1.113692 S    
C87   C91   1.419382 A    
P9    C66   1.857480 S    
C1    H1    1.110954 S    
C96   H84   1.075986 S    
C5    H13   1.111767 S    
O7    Ba4   2.809123 S    
C20   H40   1.107506 S    
C7    H15   1.107647 S    
Ba3   Ba4   4.610348 S    
C46   C62   1.420061 A    
C4    H4    1.110955 S    
C17   H37   1.106912 S    
C38   H102  1.076415 S    
C69   H73   1.082130 S    
C124  H92   1.080559 S    
C83   C87   1.430027 A    
C1    H65   1.110853 S    
O24   C32   1.412924 S    
C103  H107  1.078120 S    
P4    Ba4   3.428756 S    
C58   C62   1.430523 A    
C90   C94   1.397734 A    
C65   C69   1.398646 A    
P6    O38   1.750540 S    
P8    O28   1.532741 D    
C27   H55   1.110578 S    
P9    O29   1.741716 S    
C120  C128  1.415539 A    
P10   O34   1.543545 D    
C67   C71   1.398456 A    
N5    O58   1.299510 A    
C77   C97   1.401468 A    
P7    C76   1.870119 S    
C15   H31   1.110650 S    
C7    C11   1.521017 S    
C53   C65   1.413075 A    
C2    H2    1.111102 S    
C59   C79   1.421065 A    
N6    O59   1.302413 A    
C88   C120  1.417281 A    
C38   C94   1.387620 A    
C86   C90   1.419262 A    
C48   C64   1.421012 A    
N3    O54   1.295712 A    
N2    O52   1.296010 A    
C56   C68   1.412578 A    
P2    O18   1.754041 S    
C21   H45   1.094210 S    
O9    Ba1   2.761785 S    
C66   C70   1.400521 A    
C104  H108  1.077980 S    
C60   C64   1.430046 A    
O25   Ba1   2.859954 S    
C116  C124  1.390043 A    
C117  C125  1.415210 A    
C121  H89   1.079621 S    
C40   C96   1.389243 A    
C28   H60   1.103411 S    
C123  H91   1.080171 S    
P6    O26   1.532741 D    
C113  C121  1.389602 A    
Ba4   O47   2.956743 S    
N8    O64   1.299435 A    
P9    O41   1.750490 S    
C13   H25   1.105974 S    
C17   H33   1.110642 S    
C33   C47   1.425949 A    
C35   C83   1.419341 A    
C36   C84   1.419861 A    
C61   C105  1.418399 A    
C22   N6    1.466682 S    
C19   H35   1.110611 S    
P14   C125  1.865813 S    
C76   C80   1.422718 A    
C12   H72   1.110293 S    
C16   H28   1.105791 S    
C27   H59   1.103611 S    
C98   H86   1.078874 S    
C8    H16   1.110329 S    
P6    C73   1.868063 S    
C54   C58   1.418262 A    
O8    Ba3   2.808950 S    
C104  C108  1.412818 A    
C113  H109  1.078217 S    
C89   C93   1.398352 A    
C51   C55   1.400140 A    
Ba2   O46   2.807052 S    
C49   C53   1.400155 A    
C36   C40   1.412171 A    
O20   C24   1.397704 S    
O22   P13   1.755580 S    
C91   C95   1.398120 A    
C12   H24   1.108668 S    
C9    H17   1.109904 S    
C98   C102  1.390083 A    
C11   H19   1.109473 S    
C40   H104  1.077263 S    
O10   Ba2   2.761498 S    
O16   P15   1.543475 D    
P7    Ba3   3.429436 S    
O26   Ba2   2.859862 S    
C33   C81   1.419241 A    
P1    C133  1.874928 S    
C84   C112  1.419747 A    
P3    C135  1.871356 S    
P6    Ba2   3.429341 S    
P11   C68   1.854633 S    
P1    O1    1.532193 D    
C32   H64   1.113660 S    
C23   C27   1.536825 S    
P10   O42   1.753222 S    
P3    O3    1.532193 D    
C24   C28   1.537111 S    
P4    O20   1.753882 S    
C39   H103  1.076576 S    
C14   H26   1.105620 S    
C47   C63   1.420853 A    
P12   O32   1.738304 S    
C42   C46   1.413234 A    
C45   C61   1.420854 A    
N1    O50   1.300481 A    
P6    O45   1.579510 S    
C41   C49   1.387161 A    
C63   C107  1.418400 A    
O24   P15   1.755510 S    
C32   N4    1.463506 S    
C44   C52   1.387035 A    
C5    H9    1.112070 S    
C31   H63   1.111619 S    
C34   C38   1.412622 A    
C56   C60   1.416887 A    
C9    H21   1.110474 S    
C79   C99   1.401353 A    
C59   C63   1.429996 A    
O15   P16   1.541211 D    
C17   H41   1.110911 S    
C92   C136  1.421172 A    
C57   C77   1.421114 A    
O13   P14   1.540031 D    
C19   H43   1.110906 S    
C82   C110  1.419854 A    
P2    Ba2   3.428756 S    
C129  C133  1.401686 A    
Ba3   O47   2.807225 S    
C131  C135  1.399547 A    
C132  C136  1.398745 A    
P1    O5    1.574595 S    
C129  H93   1.082070 S    
O4    Ba4   2.858859 S    
C1    C29   1.528284 S    
P5    O46   1.579482 S    
C10   H18   1.108425 S    
C132  H96   1.082256 S    
C85   C89   1.419338 A    
C20   H36   1.110618 S    
C100  H88   1.079426 S    
C109  C113  1.412074 A    
C43   C47   1.412045 A    
C35   C45   1.425883 A    
C99   C103  1.390771 A    
C120  C124  1.401109 A    
P10   O30   1.737625 S    
O5    Ba2   2.809123 S    
P12   O44   1.753220 S    
C85   C117  1.417270 A    
Ba1   Ba2   4.610348 S    
C72   H76   1.082111 S    
C15   C19   1.521808 S    
C50   H78   1.080270 S    
C3    H3    1.111209 S    
O17   C21   1.397418 S    
C29   H61   1.106361 S    
C88   C92   1.419207 A    
O19   C23   1.397441 S    
C125  C129  1.402529 A    
C27   H51   1.110842 S    
C25   H53   1.110593 S    
C10   H22   1.108685 S    
C117  C121  1.400013 A    
C51   H79   1.078987 S    
C118  C126  1.415454 A    
C122  H90   1.080452 S    
C28   H56   1.110568 S    
O29   Ba1   2.763199 S    
C94   H82   1.076020 S    
P5    C74   1.869649 S    
C64   C108  1.418572 A    
P7    O27   1.532640 D    
C114  C122  1.390261 A    
O41   C5    1.406075 S    
P12   C67   1.851552 S    
P8    Ba4   3.429341 S    
O43   C7    1.402872 S    
C5    C9    1.520432 S    
C55   C67   1.413198 A    
C1    H5    1.109421 S    
C102  C106  1.412199 A    
C24   N8    1.466559 S    
O23   C31   1.409998 S    
C43   H99   1.076664 S    
C71   C75   1.399537 A    
C10   H70   1.110412 S    
P1    O17   1.753756 S    
C52   H80   1.079248 S    
C6    H14   1.110266 S    
P8    C75   1.867526 S    
N5    O57   1.302430 A    
P3    O19   1.753700 S    
C92   C96   1.398565 A    
P4    O4    1.532092 D    
O6    Ba1   2.808950 S    
C119  C123  1.400741 A    
P4    C136  1.869862 S    
O11   Ba3   2.761785 S    
C18   H38   1.107366 S    
C114  H110  1.078053 S    
N6    O60   1.299444 A    
C75   C79   1.421790 A    
C62   C106  1.419538 A    
O18   C22   1.397749 S    
C26   H54   1.110546 S    
C82   C86   1.430257 A    
O1    Ba1   2.858764 S    
Ba1   O46   2.956677 S    
P5    Ba1   3.429436 S    
C34   C48   1.425952 A    
P5    O25   1.532640 D    
C72   C76   1.400520 A    
C57   C61   1.430077 A    
O32   Ba4   2.763486 S    
O44   C8    1.406190 S    
P2    C134  1.870096 S    
C13   C17   1.522087 S    
C26   H50   1.110861 S    
O30   Ba2   2.763486 S    
C89   C133  1.420032 A    
C91   C135  1.419957 A    
P2    O2    1.532092 D    
C24   H48   1.093968 S    
C95   H83   1.076422 S    
P12   O36   1.543484 D    
P1    Ba1   3.428663 S    
C54   C66   1.415047 A    
C103  C107  1.412353 A    
P8    O47   1.579510 S    
C101  H105  1.078101 S    
C2    H66   1.110127 S    
C108  C110  1.425796 A    
C73   C77   1.422140 A    
C35   C39   1.412553 A    
C70   C74   1.400789 A    
C97   H85   1.079158 S    
C44   C48   1.412353 A    
P15   C128  1.856861 S    
C101  C105  1.412332 A    
C33   C37   1.412454 A    
C112  C116  1.413166 A    
C90   C134  1.419926 A    
C41   H97   1.076658 S    
C8    H12   1.109439 S    
C19   H39   1.107605 S    
O11   P16   1.752577 S    
O14   P13   1.543988 D    
C87   C119  1.417240 A    
C130  C134  1.398925 A    
C30   N2    1.463654 S    
O10   P13   1.747690 S    
O21   C29   1.410642 S    
C71   H75   1.082141 S    
O2    Ba2   2.858859 S    
P2    O6    1.574567 S    
C130  H94   1.082221 S    
P11   O31   1.738252 S    
C18   H34   1.110625 S    
C21   C25   1.536745 S    
C2    C30   1.531102 S    
C14   C18   1.521932 S    
C128  C132  1.398563 A    
O40   C15   1.398891 S    
C43   C51   1.387275 A    
C110  C114  1.412497 A    
N4    O56   1.295920 A    
C36   C46   1.426522 A    
C100  C104  1.391268 A    
N2    O51   1.302854 A    
C4    H68   1.110134 S    
C7    H11   1.114530 S    
C53   C57   1.416558 A    
C3    H7    1.105512 S    
C37   H101  1.076583 S    
C4    H8    1.103984 S    
Ba4   O48   2.807052 S    
N1    O49   1.300580 A    
C50   C54   1.400873 A    
N8    O63   1.302569 A    
C126  C130  1.399253 A    
C3    C31   1.533565 S    
C14   H30   1.110634 S    
C4    C32   1.530984 S    
