data_mof_unit_pretest_1241.cif
_audit_creation_date              2012-12-10T20:26:31-0500
_audit_creation_method            fapswitch 2.2
_symmetry_space_group_name_H-M    P1
_symmetry_Int_Tables_number       1
_space_group_crystal_system       triclinic
_cell_length_a                    10.745743
_cell_length_b                    10.776707
_cell_length_c                    9.872878
_cell_angle_alpha                 90.18229
_cell_angle_beta                  90.408541
_cell_angle_gamma                 90.168508
_cell_volume                      1143.27616507

loop_
_atom_site_label
_atom_site_type_symbol
_atom_type_description
_atom_site_fract_x
_atom_site_fract_y
_atom_site_fract_z
_atom_type_partial_charge
C1    C     C_R   0.498642 0.260687 0.499699 0.896603
C2    C     C_R   0.590264 0.559945 0.072866 -0.070965
C3    C     C_R   0.590538 0.559473 0.928959 -0.109075
C4    C     C_R   0.262638 0.501830 0.499555 0.933100
C5    C     C_R   0.415903 0.429764 0.927742 0.351599
C6    C     C_3   0.277971 0.440939 0.920458 -0.515723
C7    C     C_3   0.277907 0.440956 0.074060 -0.560814
C8    C     C_R   0.495795 0.739557 0.499434 0.931265
C9    C     C_R   0.737308 0.496352 0.500414 0.961832
C10   C     C_2   0.932421 0.488091 0.386572 -0.143204
C11   C     C_2   0.868558 0.481882 0.501723 -0.289371
C12   C     C_R   0.493768 0.129849 0.497617 -0.099070
C13   C     C_2   0.066156 0.480348 0.388151 -0.143756
C14   C     C_2   0.131019 0.510983 0.498964 -0.294785
C15   C     C_R   0.511738 0.062369 0.614574 0.047235
C16   C     C_2   0.655777 0.143765 0.792497 0.905307
C17   C     C_2   0.430000 0.876756 0.244520 0.916429
C18   C     C_2   0.658539 0.869935 0.800404 0.958179
C19   C     C_3   0.420485 0.098005 0.962866 -0.210875
C20   C     C_R   0.469527 0.066500 0.375745 -0.256449
C21   C     C_R   0.464260 0.937363 0.373956 -0.011983
C22   C     C_R   0.488853 0.871223 0.496072 -0.137103
C23   C     C_R   0.511635 0.938410 0.613490 0.006631
C24   C     C_3   0.535674 0.928831 0.762857 -0.356828
C25   C     C_3   0.534775 0.074294 0.763531 0.346638
C26   C     C_R   0.416005 0.429550 0.070149 0.204962
H1    H     H_    0.886657 0.498584 0.288769 0.172395
H2    H     H_    0.088749 0.545857 0.590851 0.149392
H3    H     H_    0.451739 0.116862 0.282683 0.160624
H4    H     H_    0.455795 0.884104 0.814346 0.166269
H5    H     H_    0.741729 0.283757 0.892555 0.338015
H6    H     H_    0.305312 0.773290 0.140277 0.329696
H7    H     H_    0.780121 0.828666 0.949945 0.338048
H8    H     H_    0.512485 0.092489 0.014836 0.210622
H9    H     H_    0.368482 0.009666 0.974170 0.182396
H10   H     H_    0.365699 0.170357 0.015214 0.161190
H11   H     H_    0.661458 0.610889 0.127747 0.165407
H12   H     H_    0.662484 0.609048 0.875483 0.168986
H13   H     H_    0.247042 0.530574 0.876247 0.213273
H14   H     H_    0.233660 0.356973 0.875360 0.231653
H15   H     H_    0.247124 0.530743 0.118110 0.231296
H16   H     H_    0.233361 0.356910 0.117349 0.203648
H17   H     H_    0.911547 0.462521 0.599060 0.153118
H18   H     H_    0.111278 0.451068 0.295733 0.166011
N1    N     N_R   0.499170 0.499140 0.142800 -0.115700
N2    N     N_R   0.499170 0.499180 0.857150 -0.117125
O1    O     O_R   0.500020 0.316790 0.614690 -0.586376
O2    O     O_R   0.656727 0.243390 0.883550 -0.790740
O3    O     O_2   0.501789 0.880661 0.149271 -0.626623
O4    O     O_R   0.317263 0.812447 0.232998 -0.795705
O5    O     O_2   0.724013 0.821919 0.714053 -0.603861
O6    O     O_R   0.696835 0.870830 0.935893 -0.770664
O7    O     O_3   0.429128 0.129351 0.824500 -0.598704
O8    O     O_R   0.500000 0.316760 0.385350 -0.630559
O9    O     O_R   0.319080 0.500020 0.614640 -0.634411
O10   O     O_R   0.319070 0.499980 0.385300 -0.611895
O11   O     O_R   0.500000 0.683240 0.614650 -0.617295
O12   O     O_R   0.499980 0.683210 0.385310 -0.604570
O13   O     O_R   0.680930 0.500020 0.614700 -0.610520
O14   O     O_R   0.680920 0.499980 0.385360 -0.630031
O15   O     O_2   0.751397 0.115394 0.733499 -0.632588
Zn1   Zn    Zn3+2 0.500010 0.500020 0.653130 0.996038
Zn2   Zn    Zn3+2 0.499990 0.499980 0.346870 0.979512

loop_
_geom_bond_atom_site_label_1
_geom_bond_atom_site_label_2
_ccdc_geom_bond_type
C17   O4    S    
C10   H1    S    
C19   O7    S    
C8    C22   S    
C23   C24   S    
C10   C13   S    
C11   H17   S    
C6    C7    S    
C8    O11   A    
C5    N2    A    
C3    N2    A    
H5    O2    S    
C12   C15   A    
C20   H3    S    
C9    O14   A    
H6    O4    S    
C16   O2    S    
O1    Zn1   S    
C15   C23   A    
C2    C3    A    
O10   Zn2   S    
C18   O6    S    
O11   Zn1   S    
C2    N1    A    
C19   H9    S    
C13   C14   D    
C4    O10   A    
H7    O6    S    
C9    C11   S    
C2    H11   S    
C12   C20   A    
C1    C12   S    
C7    C26   S    
N2    Zn1   S    
O14   Zn2   S    
C18   C24   S    
C16   O15   D    
C25   O7    S    
C18   O5    D    
C24   H4    S    
C19   H10   S    
C7    H15   S    
C4    O9    A    
C4    C14   S    
C5    C6    S    
C6    H14   S    
C15   C25   S    
O8    Zn2   S    
C5    C26   A    
O9    Zn1   S    
O12   Zn2   S    
C24   C25   S    
C10   C11   D    
C7    H16   S    
C17   O3    D    
C16   C25   S    
C6    H13   S    
C22   C23   A    
C1    O1    A    
O13   Zn1   S    
C8    O12   A    
C26   N1    A    
C14   H2    S    
C20   C21   A    
C21   C22   A    
C1    O8    A    
N1    Zn2   S    
C13   H18   S    
C17   C21   S    
C3    H12   S    
C9    O13   A    
C19   H8    S    
