data_mof_unit_pretest_832.cif
_audit_creation_date              2012-12-10T16:32:39-0500
_audit_creation_method            fapswitch 2.2
_symmetry_space_group_name_H-M    P1
_symmetry_Int_Tables_number       1
_space_group_crystal_system       triclinic
_cell_length_a                    16.910908
_cell_length_b                    16.932258
_cell_length_c                    16.913237
_cell_angle_alpha                 64.631474
_cell_angle_beta                  64.519238
_cell_angle_gamma                 64.533743
_cell_volume                      3766.87069694

loop_
_atom_site_label
_atom_site_type_symbol
_atom_type_description
_atom_site_fract_x
_atom_site_fract_y
_atom_site_fract_z
_atom_type_partial_charge
C1    C     C_R   0.585998 0.028126 0.601759 0.111333
C2    C     C_R   0.821161 0.559713 0.043817 0.873012
C3    C     C_R   0.429576 0.979337 0.176639 0.918177
C4    C     C_R   0.559481 0.044114 0.821236 0.886329
C5    C     C_R   0.569943 0.823159 0.021992 0.984253
C6    C     C_R   0.440506 0.178554 0.955958 0.897233
C7    C     C_R   0.020875 0.570163 0.823483 0.926314
C8    C     C_R   0.956267 0.440323 0.178710 0.912501
C9    C     C_R   0.823498 0.020531 0.570470 0.927782
C10   C     C_R   0.178692 0.955355 0.440704 0.875504
C11   C     C_R   0.536639 0.013037 0.554870 -0.056044
C12   C     C_R   0.399816 0.966791 0.415748 0.065894
C13   C     C_R   0.447900 0.978811 0.466203 -0.094849
C14   C     C_R   0.017134 0.552987 0.535535 -0.039342
C15   C     C_R   0.983045 0.464225 0.447052 -0.040272
C16   C     C_R   0.555835 0.537817 0.010397 -0.080270
C17   C     C_R   0.466863 0.449080 0.976687 -0.164957
C18   C     C_R   0.577120 0.012865 0.462113 0.412306
C19   C     C_R   0.400599 0.996420 0.552167 0.331142
C20   C     C_R   0.017716 0.460308 0.575480 0.332319
C21   C     C_R   0.000820 0.549854 0.399647 0.233680
C22   C     C_R   0.463473 0.578892 0.008850 0.351923
C23   C     C_R   0.032383 0.599457 0.585139 0.020625
C24   C     C_R   0.551466 0.401178 0.996865 0.281067
C25   C     C_R   0.541230 0.978617 0.426064 0.303370
C26   C     C_R   0.450695 0.995570 0.602184 0.287461
C27   C     C_R   0.428193 0.543008 0.973838 0.258371
C28   C     C_R   0.602351 0.450985 0.994871 0.332014
C29   C     C_R   0.982706 0.424396 0.539758 0.329191
C30   C     C_R   0.999246 0.600184 0.449876 0.230877
C31   C     C_R   0.538493 0.070876 0.672552 0.450174
C32   C     C_R   0.422934 0.999912 0.318606 0.338571
C33   C     C_R   0.072325 0.672667 0.538753 0.428001
C34   C     C_R   0.967557 0.414634 0.400750 0.023548
C35   C     C_R   0.999881 0.317524 0.424185 0.457678
C36   C     C_R   0.673025 0.539099 0.069065 0.483675
C37   C     C_R   0.318226 0.426295 0.995142 0.370951
C38   C     C_R   0.328035 0.925570 0.462209 0.462128
C39   C     C_R   0.683177 0.996262 0.578838 0.411857
C40   C     C_R   0.462373 0.326775 0.926224 0.488801
C41   C     C_R   0.579054 0.684607 0.996406 0.408075
C42   C     C_R   0.927419 0.461025 0.327632 0.431321
C43   C     C_R   0.000055 0.575962 0.682350 0.454731
C44   C     C_R   0.589498 0.069646 0.721813 -0.239799
C45   C     C_R   0.603136 0.587045 0.025235 0.012094
C46   C     C_R   0.390866 0.971196 0.272952 -0.206678
C47   C     C_R   0.067549 0.722458 0.590575 -0.125972
C48   C     C_R   0.971379 0.272419 0.391393 -0.222990
C49   C     C_R   0.721638 0.589508 0.069724 -0.235715
C50   C     C_R   0.273759 0.393420 0.966572 -0.125819
C51   C     C_R   0.278159 0.929268 0.410490 -0.233361
C52   C     C_R   0.727510 0.027799 0.609516 -0.220994
C53   C     C_R   0.410194 0.277438 0.930998 -0.123311
C54   C     C_R   0.608060 0.727048 0.030948 -0.138257
C55   C     C_R   0.932207 0.409383 0.277689 -0.127515
C56   C     C_R   0.416167 0.400984 0.964928 -0.093238
C57   C     C_R   0.028544 0.608661 0.727537 -0.218694
C58   C     C_R   0.679585 0.065324 0.680384 -0.318788
C59   C     C_R   0.319198 0.934935 0.320070 -0.318214
C60   C     C_R   0.062806 0.681477 0.680621 -0.386218
C61   C     C_R   0.936979 0.319396 0.318611 -0.380031
C62   C     C_R   0.679305 0.678880 0.067867 -0.367228
C63   C     C_R   0.320510 0.319400 0.933939 -0.424391
C64   C     C_R   0.979138 0.176518 0.429805 0.937041
C65   C     C_R   0.043689 0.821302 0.559687 0.898739
C66   C     C_R   0.177110 0.430515 0.977197 0.978916
H1    H     H_    0.714830 0.079108 0.711395 0.225825
H2    H     H_    0.932807 0.345579 0.659849 0.354697
H3    H     H_    0.720001 0.368295 0.945630 0.347449
H4    H     H_    0.358178 0.579191 0.892056 0.353986
H5    H     H_    0.282421 0.048256 0.632620 0.354323
H6    H     H_    0.667556 0.047722 0.343948 0.391777
H7    H     H_    0.630073 0.283192 0.050724 0.361599
H8    H     H_    0.345621 0.670600 0.041325 0.392997
H9    H     H_    0.051362 0.630400 0.281388 0.360470
H10   H     H_    0.067870 0.340495 0.654361 0.356512
H11   H     H_    0.425917 0.148850 0.734610 0.332841
H12   H     H_    0.287486 0.922925 0.284145 0.225343
H13   H     H_    0.458948 0.099180 0.212366 0.351978
H14   H     H_    0.142588 0.641546 0.425526 0.346030
H15   H     H_    0.100443 0.211106 0.457918 0.341680
H16   H     H_    0.733542 0.426593 0.148003 0.332693
H17   H     H_    0.300707 0.467973 0.093435 0.353856
H18   H     H_    0.264801 0.847872 0.573643 0.331274
H19   H     H_    0.791188 0.896205 0.546058 0.343133
H20   H     H_    0.576253 0.356492 0.855558 0.343096
H21   H     H_    0.545709 0.703582 0.891990 0.343418
H22   H     H_    0.857104 0.573965 0.359067 0.344771
H23   H     H_    0.074396 0.713579 0.716485 0.224823
H24   H     H_    0.899497 0.542146 0.788885 0.339942
H25   H     H_    0.925381 0.283621 0.286429 0.224919
H26   H     H_    0.710045 0.713748 0.082428 0.226136
H27   H     H_    0.284438 0.287034 0.923002 0.224894
H28   H     H_    0.370010 0.944649 0.720372 0.358556
H29   H     H_    0.578555 0.897997 0.354320 0.347940
H30   H     H_    0.948500 0.718169 0.369255 0.363090
O1    O     O_R   0.982940 0.138950 0.510160 -0.590133
O2    O     O_R   0.982940 0.510160 0.138950 -0.550441
O3    O     O_R   0.861050 0.017060 0.489840 -0.590121
O4    O     O_R   0.138950 0.982940 0.510160 -0.603212
O5    O     O_R   0.867700 0.025880 0.612340 -0.622705
O6    O     O_R   0.132300 0.974120 0.387660 -0.622633
O7    O     O_R   0.025880 0.612340 0.867700 -0.631311
O8    O     O_R   0.974120 0.387660 0.132300 -0.651788
O9    O     O_R   0.612340 0.867700 0.025880 -0.644914
O10   O     O_R   0.387660 0.132300 0.974120 -0.652384
O11   O     O_R   0.387660 0.974120 0.132300 -0.627847
O12   O     O_R   0.017060 0.861050 0.489840 -0.567195
O13   O     O_R   0.612340 0.025880 0.867700 -0.623159
O14   O     O_R   0.132300 0.387660 0.974120 -0.640284
O15   O     O_R   0.867700 0.612340 0.025880 -0.622115
O16   O     O_R   0.974120 0.132300 0.387660 -0.623411
O17   O     O_R   0.025880 0.867700 0.612340 -0.652123
O18   O     O_3   0.418183 0.974633 0.696679 -0.676811
O19   O     O_3   0.599783 0.945009 0.352693 -0.691203
O20   O     O_3   0.978596 0.694503 0.417333 -0.700305
O21   O     O_3   0.947052 0.351872 0.594519 -0.701279
O22   O     O_3   0.696888 0.417601 0.974052 -0.694143
O23   O     O_R   0.138950 0.510160 0.982940 -0.560661
O24   O     O_3   0.355961 0.601445 0.938660 -0.705919
O25   O     O_3   0.305972 0.018131 0.584528 -0.683338
O26   O     O_3   0.652762 0.044188 0.408562 -0.681150
O27   O     O_3   0.582460 0.306634 0.020078 -0.699799
O28   O     O_3   0.410044 0.655524 0.038536 -0.692464
O29   O     O_3   0.021326 0.582292 0.305223 -0.695362
O30   O     O_3   0.053524 0.405787 0.647990 -0.699441
O31   O     O_3   0.444888 0.113352 0.692223 -0.691866
O32   O     O_3   0.473071 0.061542 0.271114 -0.695843
O33   O     O_3   0.116737 0.696918 0.445785 -0.695556
O34   O     O_R   0.861050 0.489840 0.017060 -0.607500
O35   O     O_3   0.062913 0.269520 0.472862 -0.693004
O36   O     O_3   0.691939 0.445762 0.111624 -0.686353
O37   O     O_3   0.264696 0.478604 0.054672 -0.691046
O38   O     O_3   0.308207 0.881915 0.555496 -0.695504
O39   O     O_3   0.731947 0.931342 0.532299 -0.688703
O40   O     O_3   0.555542 0.301355 0.882492 -0.701883
O41   O     O_3   0.533455 0.739755 0.931315 -0.683282
O42   O     O_3   0.882859 0.553849 0.303568 -0.697557
O43   O     O_3   0.937065 0.527262 0.730381 -0.697216
O44   O     O_R   0.510160 0.982940 0.138950 -0.599776
O45   O     O_R   0.489840 0.017060 0.861050 -0.586674
O46   O     O_R   0.489840 0.861050 0.017060 -0.550130
O47   O     O_R   0.510160 0.138950 0.982940 -0.568460
O48   O     O_R   0.017060 0.489840 0.861050 -0.591377
Zn1   Zn    Zn3+2 0.004880 0.004880 0.583590 1.029293
Zn2   Zn    Zn3+2 0.995120 0.995120 0.416410 1.054470
Zn3   Zn    Zn3+2 0.004880 0.583590 0.004880 1.070550
Zn4   Zn    Zn3+2 0.995120 0.416410 0.995120 1.025610
Zn5   Zn    Zn3+2 0.583590 0.004880 0.004880 1.050118
Zn6   Zn    Zn3+2 0.416410 0.995120 0.995120 1.053257

loop_
_geom_bond_atom_site_label_1
_geom_bond_atom_site_label_2
_ccdc_geom_bond_type
C16   C28   A    
H8    O28   S    
H13   O32   S    
C11   C18   A    
O10   Zn6   S    
C46   C59   A    
C42   O42   S    
H10   O30   S    
O8    Zn4   S    
C34   C42   A    
C31   O31   S    
O48   Zn4   S    
H24   O43   S    
H28   O18   S    
O7    Zn3   S    
C5    O9    A    
C60   H23   S    
C18   C25   A    
O5    Zn1   S    
C47   C65   S    
C14   C30   A    
C36   O36   S    
H2    O21   S    
C64   O16   A    
O2    Zn3   S    
C35   C48   A    
O23   Zn3   S    
H3    O22   S    
C1    C31   A    
C23   C43   A    
C8    C55   S    
C34   C35   A    
O17   Zn1   S    
C19   C26   A    
C8    O2    A    
C48   C64   S    
C47   C60   A    
C37   C56   A    
H4    O24   S    
C23   C33   A    
C62   H26   S    
C43   O43   S    
C49   C62   A    
C15   C34   S    
C41   O41   S    
H11   O31   S    
C39   C52   A    
C9    O3    A    
C7    O7    A    
C12   C32   A    
C50   C63   A    
O11   Zn6   S    
C13   C25   A    
C9    C52   S    
C32   C46   A    
H21   O41   S    
O14   Zn4   S    
C10   C51   S    
C59   H12   S    
C7    O48   A    
O45   Zn6   S    
C15   C29   A    
O12   Zn2   S    
C20   C29   A    
C5    O46   A    
C2    O15   A    
C17   C24   A    
C31   C44   A    
C13   C19   A    
O34   Zn4   S    
C17   C27   A    
C14   C20   A    
C5    C54   S    
C10   O6    A    
C44   C58   A    
C4    O45   A    
C1    C39   A    
C57   C60   A    
C39   O39   S    
C38   C51   A    
C4    C44   S    
C11   C26   A    
C40   C56   A    
C27   O24   S    
C29   O21   S    
C24   O27   S    
C30   O20   S    
H9    O29   S    
C14   C23   S    
O13   Zn5   S    
C26   O18   S    
C20   O30   S    
C2    C49   S    
O15   Zn3   S    
C42   C55   A    
C40   O40   S    
O47   Zn5   S    
O4    Zn1   S    
H18   O38   S    
C6    O10   A    
C36   C45   A    
C66   O14   A    
C10   O4    A    
C8    O8    A    
C17   C56   S    
H22   O42   S    
C52   C58   A    
H19   O39   S    
H20   O40   S    
C64   O1    A    
O3    Zn2   S    
C18   O26   S    
C66   O23   A    
C33   C47   A    
C37   O37   S    
C51   C59   A    
C6    C53   S    
C21   O29   S    
C35   O35   S    
O9    Zn5   S    
C33   O33   S    
C19   O25   S    
C16   C22   A    
H14   O33   S    
C65   O12   A    
H6    O26   S    
C65   O17   A    
H5    O25   S    
C24   C28   A    
C16   C45   S    
C50   C66   S    
C22   O28   S    
C3    O44   A    
C4    O13   A    
C54   C62   A    
C21   C30   A    
C63   H27   S    
C3    C46   S    
C22   C27   A    
C3    O11   A    
C32   O32   S    
C25   O19   S    
H29   O19   S    
C28   O22   S    
O6    Zn2   S    
C37   C50   A    
C53   C63   A    
O46   Zn6   S    
C48   C61   A    
C55   C61   A    
C2    O34   A    
O16   Zn2   S    
C38   O38   S    
C12   C38   A    
C41   C54   A    
H17   O37   S    
H15   O35   S    
C43   C57   A    
C58   H1    S    
C15   C21   A    
O1    Zn1   S    
C12   C13   S    
C9    O5    A    
C40   C53   A    
C41   C45   A    
H30   O20   S    
C1    C11   S    
C6    O47   A    
H16   O36   S    
O44   Zn5   S    
C7    C57   S    
C36   C49   A    
C61   H25   S    
H7    O27   S    
