data_mof_unit_pretest_1876.cif
_audit_creation_date              2012-12-10T17:23:31-0500
_audit_creation_method            fapswitch 2.2
_symmetry_space_group_name_H-M    P1
_symmetry_Int_Tables_number       1
_space_group_crystal_system       triclinic
_cell_length_a                    18.843781
_cell_length_b                    18.744646
_cell_length_c                    18.765076
_cell_angle_alpha                 109.247501
_cell_angle_beta                  109.449565
_cell_angle_gamma                 109.456863
_cell_volume                      5118.66453295

loop_
_atom_site_label
_atom_site_type_symbol
_atom_type_description
_atom_site_fract_x
_atom_site_fract_y
_atom_site_fract_z
_atom_type_partial_charge
C1    C     C_R   0.379901 0.498710 0.381149 0.796952
C2    C     C_R   0.816242 0.818126 0.572979 0.020754
C3    C     C_3   0.864881 0.875816 0.669074 -0.457525
C4    C     C_3   0.790625 0.807496 0.669051 0.328675
C5    C     C_R   0.239054 0.419488 0.242241 0.171214
C6    C     C_R   0.176257 0.423481 0.180780 -0.204316
C7    C     C_R   0.185297 0.503759 0.190082 -0.080687
C8    C     C_R   0.257340 0.582650 0.263794 0.097301
C9    C     C_R   0.320018 0.578264 0.325089 -0.254163
C10   C     C_R   0.312010 0.498029 0.314458 -0.051571
C11   C     C_R   0.325614 0.247273 0.509022 -0.181403
C12   C     C_R   0.617051 0.618685 0.498373 0.792539
C13   C     C_R   0.262208 0.184113 0.510602 -0.176528
C14   C     C_R   0.185564 0.185865 0.499372 -0.019446
C15   C     C_R   0.173345 0.251977 0.488118 -0.179300
C16   C     C_R   0.238157 0.316907 0.489675 -0.185685
C17   C     C_R   0.314003 0.314193 0.499517 -0.007878
C18   C     C_R   0.763628 0.499520 0.670547 0.078054
C19   C     C_R   0.821893 0.487180 0.730572 0.089456
C20   C     C_R   0.817872 0.496791 0.807543 -0.061235
C21   C     C_R   0.756026 0.513619 0.822337 -0.217821
C22   C     C_R   0.695458 0.518693 0.761230 -0.204345
C23   C     C_R   0.623236 0.504237 0.618616 0.778578
C24   C     C_R   0.696767 0.509617 0.684856 -0.081856
C25   C     C_R   0.000819 0.882238 0.381289 0.803147
C26   C     C_R   0.881630 0.881219 0.499889 0.816573
C27   C     C_R   0.999989 0.118941 0.618859 0.794615
C28   C     C_R   0.118789 0.118997 0.499790 0.772822
C29   C     C_R   0.997418 0.619182 0.116208 0.817260
C30   C     C_R   0.118733 0.502307 0.121227 0.800399
C31   C     C_R   0.997877 0.381130 0.879216 0.784617
C32   C     C_R   0.881919 0.496558 0.877250 0.784602
C33   C     C_R   0.021503 0.835640 0.252686 0.052930
C34   C     C_R   0.381006 0.381104 0.499831 0.787482
C35   C     C_R   0.012157 0.767438 0.181724 0.156361
C36   C     C_R   0.995202 0.687259 0.180375 -0.102877
C37   C     C_R   0.978126 0.671730 0.242240 -0.230894
C38   C     C_R   0.979522 0.735114 0.307913 0.144081
C39   C     C_R   0.002194 0.817363 0.313854 -0.092855
C40   C     C_R   0.919687 0.180553 0.672673 -0.183957
C41   C     C_R   0.916723 0.243792 0.734940 0.181818
C42   C     C_R   0.995659 0.313775 0.810348 -0.014115
C43   C     C_R   0.074798 0.318552 0.821599 -0.225439
C44   C     C_R   0.076340 0.253950 0.759912 -0.184842
C45   C     C_R   0.750867 0.758371 0.571937 0.084451
C46   C     C_R   0.998850 0.185264 0.685152 -0.057752
C47   C     C_R   0.680672 0.684786 0.495094 -0.148374
C48   C     C_R   0.676817 0.676520 0.415290 0.073871
C49   C     C_R   0.744479 0.741502 0.417787 -0.241262
C50   C     C_R   0.815338 0.813127 0.497626 -0.095592
Cu1   Cu    Cu3+1 0.499970 0.561780 0.561770 0.931379
Cu2   Cu    Cu3+1 0.500030 0.438220 0.438230 0.918417
Cu3   Cu    Cu3+1 0.061810 1.000000 0.561760 0.935752
Cu4   Cu    Cu3+1 0.938190 0.000070 0.438240 0.933096
Cu5   Cu    Cu3+1 0.938200 0.438300 0.000110 0.938177
Cu6   Cu    Cu3+1 0.061800 0.561880 0.000070 0.906633
H1    H     H_    0.375833 0.637927 0.381850 0.146607
H2    H     H_    0.384209 0.244870 0.516638 0.136551
H3    H     H_    0.272075 0.132944 0.518698 0.142796
H4    H     H_    0.114539 0.254190 0.479786 0.145216
H5    H     H_    0.228715 0.368376 0.481869 0.135676
H6    H     H_    0.754034 0.521952 0.881497 0.150819
H7    H     H_    0.645653 0.527698 0.772870 0.160728
H8    H     H_    0.741513 0.736348 0.357465 0.150990
H9    H     H_    0.964200 0.609642 0.239602 0.162846
H10   H     H_    0.859821 0.126854 0.614474 0.148588
H11   H     H_    0.135432 0.371589 0.879210 0.150884
H12   H     H_    0.137978 0.258299 0.769774 0.150777
H13   H     H_    0.928855 0.879928 0.699576 0.191823
H14   H     H_    0.867643 0.939890 0.687547 0.180183
H15   H     H_    0.120360 0.363591 0.124377 0.150672
O1    O     O_R   0.409790 0.552170 0.461990 -0.589289
O2    O     O_R   0.947790 0.909920 0.357650 -0.594705
O3    O     O_R   0.962030 0.909820 0.552150 -0.583575
O4    O     O_R   0.857630 0.909880 0.447840 -0.588916
O5    O     O_R   0.052210 0.090150 0.642360 -0.585079
O6    O     O_R   0.947820 0.090210 0.538040 -0.588312
O7    O     O_R   0.142360 0.090190 0.552160 -0.586466
O8    O     O_R   0.037970 0.090250 0.447850 -0.594482
O9    O     O_R   0.947800 0.538090 0.090240 -0.591961
O10   O     O_R   0.052170 0.642450 0.090210 -0.583794
O11   O     O_R   0.038000 0.447920 0.090280 -0.586748
O12   O     O_R   0.409840 0.447810 0.357660 -0.587824
O13   O     O_R   0.142370 0.552280 0.090250 -0.589647
O14   O     O_R   0.947830 0.357730 0.909970 -0.578703
O15   O     O_R   0.052200 0.462090 0.909940 -0.601234
O16   O     O_R   0.857630 0.447900 0.909930 -0.586737
O17   O     O_R   0.962000 0.552260 0.909900 -0.602353
O18   O     O_R   0.590140 0.642360 0.552170 -0.589498
O19   O     O_R   0.590190 0.538010 0.447840 -0.596823
O20   O     O_R   0.590160 0.552190 0.642340 -0.585548
O21   O     O_R   0.590210 0.447830 0.538010 -0.595861
O22   O     O_R   0.409810 0.461990 0.552160 -0.580498
O23   O     O_R   0.409860 0.357640 0.447830 -0.583158
O24   O     O_R   0.052180 0.909860 0.461960 -0.585285
C51   C     C_3   0.600705 0.603422 0.327037 -0.375982
C52   C     C_3   0.622509 0.533833 0.287045 -0.317393
C53   C     C_3   0.544351 0.457242 0.200569 -0.846006
H16   H     H_    0.489689 0.425879 0.210376 0.260242
H17   H     H_    0.523282 0.479700 0.153617 0.251746
H18   H     H_    0.562144 0.408239 0.172864 0.237875
H19   H     H_    0.676970 0.562686 0.275926 0.209825
H20   H     H_    0.643135 0.509412 0.332255 0.235955
H21   H     H_    0.541545 0.573780 0.331232 0.204418
H22   H     H_    0.584328 0.630407 0.283186 0.183483
C54   C     C_3   0.770756 0.500714 0.591435 -0.395572
C55   C     C_3   0.859907 0.568632 0.614074 -0.378027
C56   C     C_3   0.853417 0.600052 0.547690 -0.863598
H23   H     H_    0.823306 0.544157 0.481684 0.254878
H24   H     H_    0.813854 0.632631 0.546281 0.260078
H25   H     H_    0.919293 0.647446 0.565656 0.248276
H26   H     H_    0.891823 0.625611 0.679777 0.224595
H27   H     H_    0.901135 0.538572 0.612573 0.241116
H28   H     H_    0.752945 0.434832 0.543825 0.180285
H29   H     H_    0.724580 0.517180 0.556577 0.232891
C57   C     C_3   0.874670 0.447358 0.705185 -0.409030
C58   C     C_3   0.971511 0.512280 0.745032 -0.329070
C59   C     C_3   0.010043 0.475582 0.692426 -0.869900
H30   H     H_    0.004326 0.414142 0.691120 0.268520
H31   H     H_    0.976298 0.462217 0.624613 0.246587
H32   H     H_    0.079796 0.523356 0.723104 0.244739
H33   H     H_    0.981909 0.576175 0.750956 0.207649
H34   H     H_    0.009729 0.524683 0.811019 0.265377
H35   H     H_    0.870465 0.396972 0.724540 0.174214
H36   H     H_    0.843813 0.410520 0.633365 0.203186
C60   C     C_3   0.055232 0.927777 0.264913 -0.384929
C61   C     C_3   0.150822 0.970027 0.288100 -0.367094
C62   C     C_3   0.178563 0.053643 0.282807 -0.830070
H37   H     H_    0.143277 0.038314 0.214395 0.249532
H38   H     H_    0.164596 0.098976 0.323599 0.268149
H39   H     H_    0.249287 0.086312 0.306241 0.246336
H40   H     H_    0.192021 0.985548 0.355398 0.212678
H41   H     H_    0.162656 0.925325 0.243914 0.233798
H42   H     H_    0.013451 0.926823 0.206378 0.199867
H43   H     H_    0.052141 0.972603 0.317967 0.200625
C63   C     C_3   0.016412 0.777352 0.105736 -0.826981
H44   H     H_    0.963702 0.717476 0.043302 0.226662
H45   H     H_    0.006868 0.830814 0.100653 0.220799
H46   H     H_    0.080089 0.788996 0.110907 0.237467
C64   C     C_3   0.955796 0.713483 0.370476 -0.842583
H47   H     H_    0.901513 0.724862 0.370154 0.218315
H48   H     H_    0.934687 0.644288 0.352656 0.220274
H49   H     H_    0.012706 0.754641 0.437215 0.246542
C65   C     C_3   0.828585 0.233788 0.716347 -0.899403
H50   H     H_    0.830904 0.289509 0.764047 0.241242
H51   H     H_    0.794928 0.227310 0.651531 0.223046
H52   H     H_    0.789213 0.173998 0.715475 0.240960
C66   C     C_3   0.819004 0.758898 0.713789 -0.830431
H53   H     H_    0.761480 0.699034 0.695011 0.235848
H54   H     H_    0.862760 0.740297 0.695108 0.220967
H55   H     H_    0.854468 0.801369 0.785540 0.233726
C67   C     C_3   0.736827 0.842889 0.698683 -0.792484
H56   H     H_    0.711243 0.870722 0.659281 0.212793
H57   H     H_    0.681426 0.790390 0.692439 0.248281
H58   H     H_    0.778018 0.894904 0.768034 0.220618
C68   C     C_3   0.225654 0.331645 0.230924 -0.843528
H59   H     H_    0.160819 0.277964 0.175293 0.219746
H60   H     H_    0.275218 0.319855 0.218111 0.247730
H61   H     H_    0.230403 0.328931 0.290492 0.224395
C69   C     C_3   0.268227 0.671792 0.281333 -0.408288
C70   C     C_3   0.204926 0.687918 0.309664 -0.325248
C71   C     C_3   0.216169 0.777667 0.327420 -0.842388
H62   H     H_    0.283680 0.829446 0.378788 0.246268
H63   H     H_    0.201144 0.782257 0.267144 0.259588
H64   H     H_    0.171380 0.788576 0.350096 0.251233
H65   H     H_    0.136975 0.637574 0.258500 0.208328
H66   H     H_    0.216912 0.683857 0.369988 0.219574
H67   H     H_    0.335348 0.723615 0.334186 0.186530
H68   H     H_    0.260614 0.679679 0.223719 0.221208

loop_
_geom_bond_atom_site_label_1
_geom_bond_atom_site_label_2
_ccdc_geom_bond_type
Cu5   Cu6   S    
Cu5   O14   S    
C60   C61   S    
C31   O14   A    
C31   C42   S    
Cu3   O24   S    
C41   C42   A    
Cu2   O19   S    
Cu3   O3    S    
C66   H55   S    
C43   C44   A    
C62   H37   S    
C52   C53   S    
C7    C8    A    
Cu3   Cu4   S    
C57   C58   S    
C40   C46   A    
C29   C36   S    
C33   C39   A    
C54   H28   S    
C18   C24   A    
C12   O19   A    
C68   H59   S    
C3    H13   S    
C66   H54   S    
C71   H62   S    
C65   H52   S    
C5    C6    A    
Cu6   O17   S    
C54   C55   S    
C15   C16   A    
C4    C66   S    
C48   C51   S    
C56   H23   S    
C18   C19   A    
C15   H4    S    
C49   C50   A    
C28   O8    A    
C61   H40   S    
C55   H27   S    
C2    C50   A    
Cu1   O20   S    
C22   H7    S    
C59   H30   S    
C35   C36   A    
C42   C43   A    
C8    C9    A    
C37   H9    S    
C36   C37   A    
C69   H68   S    
C64   H49   S    
Cu2   O23   S    
C23   O20   A    
C11   H2    S    
C28   O7    A    
C9    C10   A    
C9    H1    S    
C52   H19   S    
Cu4   O6    S    
C7    C30   S    
C40   H10   S    
C21   C22   A    
C27   O5    A    
C30   O13   A    
C12   C47   S    
C44   C46   A    
Cu6   O13   S    
C71   H63   S    
C4    C45   S    
C45   C47   A    
C2    C45   A    
C6    H15   S    
C4    C67   S    
C1    O1    A    
Cu1   Cu2   S    
C61   H41   S    
C12   O18   A    
Cu6   O10   S    
C3    H14   S    
C66   H53   S    
C41   C65   S    
C65   H51   S    
C16   C17   A    
C31   O15   A    
C32   O16   A    
C59   H32   S    
C63   H46   S    
C30   O11   A    
Cu2   O12   S    
C26   O3    A    
C58   H33   S    
C18   C54   S    
C29   O10   A    
C37   C38   A    
C71   H64   S    
Cu4   O2    S    
Cu6   O15   S    
C47   C48   A    
C67   H58   S    
C55   C56   S    
C51   C52   S    
C26   O4    A    
C23   C24   S    
C55   H26   S    
C52   H20   S    
C64   H47   S    
Cu5   O11   S    
C21   H6    S    
C70   H66   S    
Cu1   O22   S    
C27   C46   S    
C63   H45   S    
C48   C49   A    
C67   H57   S    
C60   H43   S    
C25   O24   A    
C53   H17   S    
C57   H36   S    
C51   H21   S    
C22   C24   A    
Cu2   O21   S    
Cu3   O5    S    
C16   H5    S    
C3    C4    S    
C8    C69   S    
C62   H39   S    
C51   H22   S    
Cu4   O8    S    
C20   C32   S    
C11   C17   A    
C57   H35   S    
C14   C15   A    
C68   H61   S    
C1    C10   S    
C34   O23   A    
C64   H48   S    
C65   H50   S    
C27   O6    A    
C62   H38   S    
C35   C63   S    
C56   H25   S    
C6    C7    A    
C13   H3    S    
C1    O12   A    
C5    C68   S    
C53   H18   S    
C54   H29   S    
C69   C70   S    
C19   C20   A    
C26   C50   S    
Cu3   O7    S    
C58   H34   S    
C5    C10   A    
C70   C71   S    
C58   C59   S    
Cu1   O18   S    
Cu5   O9    S    
C11   C13   A    
C17   C34   S    
C38   C39   A    
C29   O9    A    
C19   C57   S    
C68   H60   S    
C33   C60   S    
C33   C35   A    
C56   H24   S    
C2    C3    S    
C25   O2    A    
C69   H67   S    
Cu5   O16   S    
C34   O22   A    
C59   H31   S    
C44   H12   S    
C70   H65   S    
Cu4   O4    S    
C20   C21   A    
C60   H42   S    
C43   H11   S    
C53   H16   S    
Cu1   O1    S    
C49   H8    S    
C38   C64   S    
C23   O21   A    
C63   H44   S    
C40   C41   A    
C67   H56   S    
C14   C28   S    
C13   C14   A    
C25   C39   S    
C61   C62   S    
C32   O17   A    
