data_mof_unit_pretest_198.cif
_audit_creation_date              2012-12-10T20:21:39-0500
_audit_creation_method            fapswitch 2.2
_symmetry_space_group_name_H-M    P1
_symmetry_Int_Tables_number       1
_space_group_crystal_system       triclinic
_cell_length_a                    19.308088
_cell_length_b                    18.478323
_cell_length_c                    8.925683
_cell_angle_alpha                 89.99992
_cell_angle_beta                  90.25428
_cell_angle_gamma                 89.999918
_cell_volume                      3184.48351804

loop_
_atom_site_label
_atom_site_type_symbol
_atom_type_description
_atom_site_fract_x
_atom_site_fract_y
_atom_site_fract_z
_atom_type_partial_charge
C1    C     C_R   0.365615 0.500000 0.499321 0.858949
C2    C     C_R   0.634385 0.500000 0.500678 0.858951
C3    C     C_R   0.545415 0.725969 0.589344 0.025433
C4    C     C_R   0.454585 0.274031 0.410656 0.025432
C5    C     C_R   0.454585 0.725970 0.410656 0.025434
C6    C     C_R   0.545415 0.274030 0.589344 0.025432
C7    C     C_R   0.546260 0.801931 0.591145 -0.280812
C8    C     C_R   0.453740 0.198068 0.408854 -0.280813
C9    C     C_R   0.453740 0.801932 0.408855 -0.280811
C10   C     C_R   0.546260 0.198068 0.591145 -0.280811
C11   C     C_R   0.500000 0.841352 0.500000 0.119770
C12   C     C_R   0.500000 0.158648 0.500000 0.119770
C13   C     C_R   0.487804 0.961994 0.367221 -0.184662
C14   C     C_R   0.512196 0.038006 0.632779 -0.184663
C15   C     C_R   0.512196 0.961994 0.632779 -0.184662
C16   C     C_R   0.487804 0.038006 0.367221 -0.184663
C17   C     C_R   0.500000 0.077300 0.500000 0.124259
C18   C     C_R   0.500000 0.922700 0.500000 0.124259
C19   C     C_R   0.499957 0.500000 0.218420 0.944019
C20   C     C_R   0.500043 0.500000 0.781579 0.944019
C21   C     C_1   0.499984 0.500000 0.065302 -0.204515
C22   C     C_1   0.500016 0.500000 0.934698 -0.204515
C23   C     C_R   0.745838 0.434134 0.503740 -0.206318
C24   C     C_R   0.254163 0.565866 0.496224 -0.206315
C25   C     C_R   0.254162 0.434134 0.496282 -0.206321
C26   C     C_R   0.745838 0.565866 0.503751 -0.206317
C27   C     C_R   0.817578 0.434213 0.504832 -0.177459
C28   C     C_R   0.182422 0.565787 0.495131 -0.177458
C29   C     C_R   0.182422 0.434214 0.495188 -0.177459
C30   C     C_R   0.817578 0.565786 0.504844 -0.177458
C31   C     C_R   0.853063 0.500000 0.505130 0.176231
C32   C     C_R   0.146937 0.500001 0.494866 0.176231
C33   C     C_R   0.709623 0.500000 0.502687 -0.028950
C34   C     C_R   0.290377 0.500000 0.497312 -0.028950
C35   C     C_R   0.964649 0.500002 0.639302 0.153619
C36   C     C_R   0.035351 0.499998 0.360695 0.153619
C37   C     C_R   0.037500 0.500005 0.637706 0.170307
C38   C     C_R   0.962500 0.499999 0.362290 0.170307
C39   C     C_R   0.071806 0.500002 0.498140 -0.045471
C40   C     C_R   0.928194 0.500000 0.501856 -0.045472
H1    H     H_    0.718892 0.382724 0.503187 0.157268
H2    H     H_    0.281109 0.617276 0.496749 0.157265
H3    H     H_    0.281108 0.382725 0.496854 0.157270
H4    H     H_    0.718891 0.617276 0.503208 0.157267
H5    H     H_    0.845528 0.383369 0.504605 0.137556
H6    H     H_    0.154473 0.616632 0.495330 0.137554
H7    H     H_    0.154472 0.383370 0.495433 0.137557
H8    H     H_    0.845528 0.616631 0.504626 0.137555
H9    H     H_    0.581279 0.696080 0.659282 0.123193
H10   H     H_    0.418721 0.303920 0.340718 0.123196
H11   H     H_    0.418721 0.696081 0.340718 0.123191
H12   H     H_    0.581279 0.303919 0.659282 0.123194
H13   H     H_    0.583577 0.829461 0.661789 0.133553
H14   H     H_    0.416423 0.170538 0.338210 0.133553
H15   H     H_    0.416423 0.829462 0.338211 0.133553
H16   H     H_    0.583577 0.170538 0.661789 0.133553
H17   H     H_    0.479400 0.933992 0.262179 0.129531
H18   H     H_    0.520600 0.066008 0.737821 0.129531
H19   H     H_    0.520600 0.933992 0.737821 0.129531
H20   H     H_    0.479400 0.066008 0.262179 0.129531
N1    N     N_R   0.500000 0.689440 0.500000 -0.092226
N2    N     N_R   0.500000 0.310560 0.500000 -0.092227
O1    O     O_R   0.398180 0.560840 0.499960 -0.629243
O2    O     O_R   0.601820 0.439160 0.500040 -0.629244
O3    O     O_R   0.601820 0.560840 0.500040 -0.629244
O4    O     O_R   0.398180 0.439160 0.499960 -0.629244
O5    O     O_R   0.500000 0.560800 0.285330 -0.618232
O6    O     O_R   0.500000 0.439200 0.714670 -0.618232
O7    O     O_R   0.500000 0.560800 0.714670 -0.618231
O8    O     O_R   0.500000 0.439200 0.285330 -0.618232
Zn1   Zn    Zn3+2 0.500000 0.581210 0.500000 0.942707
Zn2   Zn    Zn3+2 0.500000 0.418790 0.500000 0.942706
C41   C     C_3   0.924137 0.500001 0.785170 -0.892608
H21   H     H_    0.956526 0.499998 0.887320 0.243446
H22   H     H_    0.890866 0.548919 0.790569 0.242380
H23   H     H_    0.890864 0.451084 0.790563 0.242380
C42   C     C_3   0.075863 0.499994 0.214827 -0.892611
H24   H     H_    0.043474 0.499987 0.112677 0.243446
H25   H     H_    0.109133 0.548912 0.209421 0.242379
H26   H     H_    0.109137 0.451078 0.209440 0.242381
C43   C     C_3   0.077944 0.500011 0.784245 -0.909607
H27   H     H_    0.064917 0.450781 0.849630 0.241710
H28   H     H_    0.134901 0.500019 0.771028 0.252275
H29   H     H_    0.064906 0.549238 0.849627 0.241714
C44   C     C_3   0.922056 0.499999 0.215751 -0.909608
H30   H     H_    0.935092 0.549225 0.150364 0.241713
H31   H     H_    0.935086 0.450769 0.150372 0.241711
H32   H     H_    0.865099 0.500003 0.228968 0.252275

loop_
_geom_bond_atom_site_label_1
_geom_bond_atom_site_label_2
_ccdc_geom_bond_type
C15   C18   A    
C42   H24   S    
C11   C18   S    
C24   H2    S    
C41   H21   S    
C4    C8    A    
C2    O3    A    
C25   H3    S    
C43   H27   S    
C3    H9    S    
C26   H4    S    
C44   H30   S    
C7    C11   A    
C28   H6    S    
C13   C18   A    
C29   H7    S    
C30   H8    S    
C19   C21   S    
C29   C32   A    
C3    C7    A    
C36   C42   S    
C30   C31   A    
C44   H32   S    
C13   H17   S    
C4    N2    A    
C31   C40   S    
C16   H20   S    
C32   C39   S    
O7    Zn1   S    
O4    Zn2   S    
C16   C17   A    
C23   C33   A    
C12   C17   S    
C19   O5    A    
C9    H15   S    
C23   C27   A    
C10   H16   S    
O6    Zn2   S    
C25   C34   A    
N1    Zn1   S    
C3    N1    A    
C21   C22   T    
C41   H22   S    
C14   C17   A    
C37   C43   S    
C1    O1    A    
C43   H28   S    
C2    O2    A    
C1    C34   S    
C42   H25   S    
C25   C29   A    
C14   H18   S    
C44   H31   S    
C27   C31   A    
C28   C32   A    
C8    H14   S    
C38   C44   S    
O3    Zn1   S    
C24   C34   A    
C4    H10   S    
C5    C9    A    
C26   C33   A    
C8    C12   A    
C1    O4    A    
N2    Zn2   S    
C9    C11   A    
C10   C12   A    
C2    C33   S    
O1    Zn1   S    
C26   C30   A    
C41   H23   S    
C20   O7    A    
C7    H13   S    
C43   H29   S    
C42   H26   S    
C35   C41   S    
C35   C37   A    
C15   H19   S    
C20   O6    A    
C36   C39   A    
C24   C28   A    
C20   C22   S    
C6    C10   A    
C23   H1    S    
C6    N2    A    
C36   C38   A    
C35   C40   A    
C37   C39   A    
C38   C40   A    
C27   H5    S    
O5    Zn1   S    
O2    Zn2   S    
C13   C16   A    
C14   C15   A    
C5    H11   S    
C19   O8    A    
O8    Zn2   S    
C6    H12   S    
C5    N1    A    
