data_mof_unit_pretest_1038.cif
_audit_creation_date              2012-10-26T18:51:16-0400
_audit_creation_method            fapswitch 2.2
_symmetry_space_group_name_H-M    P1
_symmetry_Int_Tables_number       1
_space_group_crystal_system       triclinic
_cell_length_a                    15.012401
_cell_length_b                    13.698361
_cell_length_c                    23.567291
_cell_angle_alpha                 89.736019
_cell_angle_beta                  90.564893
_cell_angle_gamma                 90.002265
_cell_volume                      4846.21536729

loop_
_atom_site_label
_atom_site_type_symbol
_atom_type_description
_atom_site_fract_x
_atom_site_fract_y
_atom_site_fract_z
_atom_type_partial_charge
C1    C     C_R   0.328733 0.500000 0.500140 0.546626
C2    C     C_R   0.543455 0.574887 0.704421 -0.015411
C3    C     C_R   0.469441 0.570870 0.235379 -0.017058
C4    C     C_R   0.540687 0.568462 0.763748 -0.048644
C5    C     C_R   0.504379 0.488024 0.209159 0.182921
C6    C     C_R   0.506054 0.485984 0.790963 0.228432
C7    C     C_R   0.812847 0.437956 0.462912 -0.124837
C8    C     C_R   0.187032 0.562674 0.536761 -0.126663
C9    C     C_R   0.767613 0.500311 0.499393 -0.006616
C10   C     C_R   0.232282 0.499876 0.500511 -0.010509
C11   C     C_R   0.814013 0.563357 0.535282 -0.126904
C12   C     C_R   0.671233 0.500024 0.499853 0.548845
C13   C     C_R   0.185823 0.436938 0.464563 -0.129774
C14   C     C_R   0.906695 0.562422 0.536354 0.005689
C15   C     C_R   0.093128 0.438240 0.463282 0.004588
C16   C     C_R   0.498118 0.500198 0.390858 0.531460
C17   C     C_R   0.502793 0.499836 0.609109 0.536512
C18   C     C_R   0.953206 0.500688 0.499112 0.045264
C19   C     C_R   0.046648 0.500105 0.500481 0.045573
C20   C     C_R   0.906108 0.439810 0.460539 0.012636
C21   C     C_R   0.093743 0.561171 0.538976 0.012287
C22   C     C_R   0.952989 0.621067 0.575010 -0.130658
C23   C     C_R   0.536172 0.409291 0.242248 0.052049
C24   C     C_R   0.046777 0.380030 0.424371 -0.130611
C25   C     C_R   0.046131 0.620003 0.577674 -0.009695
C26   C     C_R   0.953633 0.381558 0.421536 -0.008262
C27   C     C_R   0.444290 0.792464 0.535014 0.076857
C28   C     C_R   0.555596 0.207555 0.464892 0.075301
C29   C     C_R   0.554556 0.793017 0.464170 0.070764
C30   C     C_R   0.445228 0.206970 0.535686 0.066509
C31   C     C_R   0.555236 0.896488 0.461975 -0.001762
C32   C     C_R   0.444322 0.103502 0.537719 -0.005033
C33   C     C_R   0.440547 0.895877 0.535185 0.001892
C34   C     C_R   0.472144 0.407594 0.758587 0.051317
C35   C     C_R   0.559076 0.104129 0.464518 -0.000269
C36   C     C_R   0.498899 0.948211 0.499245 0.006964
C37   C     C_R   0.500734 0.051790 0.500476 0.005128
C38   C     C_R   0.612503 0.948951 0.425066 -0.011076
C39   C     C_R   0.386641 0.051039 0.574364 -0.006866
C40   C     C_R   0.382174 0.947632 0.571371 -0.004495
C41   C     C_R   0.617027 0.052373 0.428041 -0.007307
C42   C     C_R   0.584844 0.472640 0.880415 0.421949
C43   C     C_R   0.425812 0.474347 0.119772 0.391057
C44   C     C_R   0.427478 0.493555 0.879556 0.433972
C45   C     C_R   0.533846 0.416541 0.301431 -0.123562
C46   C     C_R   0.583535 0.491720 0.120586 0.378016
C47   C     C_R   0.423915 0.482594 0.939196 0.007882
C48   C     C_R   0.586925 0.480672 0.060990 -0.008428
C49   C     C_R   0.505645 0.478722 0.970030 -0.048944
C50   C     C_R   0.505147 0.478605 0.030155 -0.050618
C51   C     C_R   0.587820 0.475635 0.940542 0.003282
C52   C     C_R   0.422921 0.476967 0.059637 0.004397
C53   C     C_R   0.341753 0.477488 0.968472 0.000807
C54   C     C_R   0.668996 0.474224 0.031714 0.000699
C55   C     C_R   0.341218 0.475965 0.028413 -0.030250
C56   C     C_R   0.471024 0.415709 0.699465 -0.180878
C57   C     C_R   0.669504 0.473327 0.971763 -0.030976
C58   C     C_2   0.256037 0.465256 0.936776 0.276876
C59   C     C_2   0.754520 0.460170 0.063443 0.277519
C60   C     C_R   0.090391 0.677166 0.623361 0.041498
C61   C     C_R   0.071942 0.777155 0.629509 -0.045057
C62   C     C_R   0.110388 0.829953 0.674107 -0.076563
C63   C     C_R   0.167413 0.783479 0.712893 -0.083391
C64   C     C_R   0.185578 0.683958 0.707419 -0.086316
C65   C     C_R   0.146699 0.630715 0.663179 -0.093053
C66   C     C_R   0.909097 0.326038 0.375244 0.038638
C67   C     C_R   0.498012 0.499115 0.328191 -0.056110
C68   C     C_R   0.852910 0.374118 0.335987 -0.098119
C69   C     C_R   0.813137 0.322459 0.291428 -0.076878
C70   C     C_R   0.830186 0.222852 0.285097 -0.071159
C71   C     C_R   0.887142 0.174779 0.323281 -0.082108
C72   C     C_R   0.926566 0.226031 0.368177 -0.048024
C73   C     C_2   0.669572 0.897166 0.383560 0.192618
C74   C     C_2   0.328888 0.102806 0.615491 0.181326
C75   C     C_2   0.315935 0.894942 0.606700 0.184215
C76   C     C_2   0.682646 0.105087 0.392233 0.191353
C77   C     C_R   0.253767 0.472768 0.057342 0.120713
C78   C     C_R   0.506054 0.498091 0.671754 -0.042211
C79   C     C_R   0.214217 0.559366 0.076429 -0.003161
C80   C     C_R   0.130935 0.556521 0.102452 -0.072756
C81   C     C_R   0.086717 0.467485 0.109383 -0.071836
C82   C     C_R   0.125756 0.381091 0.090367 -0.090414
C83   C     C_R   0.209053 0.383555 0.064352 -0.046664
C84   C     C_R   0.756901 0.469993 0.942798 0.119181
C85   C     C_R   0.796386 0.556539 0.923118 -0.006740
C86   C     C_R   0.879651 0.553657 0.897095 -0.073360
C87   C     C_R   0.923927 0.464632 0.890764 -0.071734
C88   C     C_R   0.884948 0.378282 0.910361 -0.088028
C89   C     C_R   0.463746 0.576959 0.294579 -0.011617
C90   C     C_R   0.801655 0.380779 0.936365 -0.041981
C91   C     C_2   0.569746 0.318736 0.215398 0.247246
C92   C     C_2   0.438801 0.315464 0.784198 0.268608
C93   C     C_2   0.416805 0.661986 0.319341 0.268510
C94   C     C_2   0.590638 0.659051 0.678406 0.236753
Cu1   Cu    Cu3+1 0.500000 0.597420 0.500000 0.950444
Cu2   Cu    Cu3+1 0.500000 0.402580 0.500000 0.960587
H1    H     H_    0.404375 0.749152 0.563413 0.184309
H2    H     H_    0.225465 0.611666 0.563318 0.158950
H3    H     H_    0.777682 0.610862 0.563607 0.114565
H4    H     H_    0.222127 0.389281 0.436320 0.122564
H5    H     H_    0.916201 0.665958 0.604487 0.115664
H6    H     H_    0.083511 0.335343 0.394767 0.113513
H7    H     H_    0.250579 0.410401 0.903843 0.146131
H8    H     H_    0.759093 0.405039 0.096573 0.126166
H9    H     H_    0.028023 0.814188 0.599706 0.112301
H10   H     H_    0.096318 0.907030 0.678431 0.109168
H11   H     H_    0.197432 0.824570 0.747216 0.121305
H12   H     H_    0.595580 0.250910 0.436554 0.179656
H13   H     H_    0.229341 0.647896 0.737679 0.147804
H14   H     H_    0.160085 0.553236 0.660105 0.113587
H15   H     H_    0.840211 0.451643 0.339796 0.120246
H16   H     H_    0.769526 0.359827 0.261611 0.153976
H17   H     H_    0.799412 0.182963 0.250551 0.140246
H18   H     H_    0.900381 0.097647 0.318269 0.111562
H19   H     H_    0.970325 0.187755 0.397544 0.112991
H20   H     H_    0.738860 0.917969 0.378792 0.107851
H21   H     H_    0.259441 0.082222 0.619650 0.113039
H22   H     H_    0.306321 0.915466 0.650631 0.119965
H23   H     H_    0.598581 0.750147 0.438352 0.185063
H24   H     H_    0.691277 0.084790 0.348173 0.138668
H25   H     H_    0.247828 0.628691 0.070986 0.120119
H26   H     H_    0.100570 0.623347 0.117121 0.125528
H27   H     H_    0.022167 0.465450 0.129418 0.139688
H28   H     H_    0.091376 0.312255 0.095682 0.114110
H29   H     H_    0.238644 0.316348 0.049527 0.105056
H30   H     H_    0.762742 0.625864 0.928108 0.118698
H31   H     H_    0.909964 0.620446 0.881968 0.123021
H32   H     H_    0.988476 0.462576 0.870742 0.137828
H33   H     H_    0.919375 0.309453 0.905510 0.115466
H34   H     H_    0.401212 0.249843 0.561511 0.179264
H35   H     H_    0.772115 0.313611 0.951646 0.106075
H36   H     H_    0.567598 0.310292 0.169689 0.124536
H37   H     H_    0.403244 0.263250 0.757886 0.141352
H38   H     H_    0.386733 0.657291 0.360851 0.137646
H39   H     H_    0.618179 0.654090 0.636205 0.132477
H40   H     H_    0.559911 0.356870 0.326997 0.176865
H41   H     H_    0.443180 0.356376 0.674681 0.159934
H42   H     H_    0.443734 0.629444 0.208832 0.178025
H43   H     H_    0.568067 0.626678 0.789572 0.170910
H44   H     H_    0.774428 0.389013 0.436308 0.157802
N1    N     N_R   0.506062 0.483396 0.851930 -0.360751
N2    N     N_R   0.504693 0.483999 0.148222 -0.407079
N3    N     N_R   0.500000 0.743810 0.500000 -0.272194
N4    N     N_R   0.500000 0.256190 0.500000 -0.266485
O1    O     O_R   0.370260 0.582280 0.500010 -0.497718
O2    O     O_2   0.351070 0.462099 0.150260 -0.502505
O3    O     O_2   0.353816 0.515811 0.848893 -0.507807
O4    O     O_2   0.657629 0.512048 0.151163 -0.493356
O5    O     O_2   0.191981 0.517361 0.946327 -0.499902
O6    O     O_2   0.819420 0.511078 0.053709 -0.492042
O7    O     O_2   0.638500 0.834624 0.352369 -0.475724
O8    O     O_2   0.359514 0.165051 0.647048 -0.544718
O9    O     O_2   0.268508 0.831676 0.586125 -0.528651
O10   O     O_2   0.730644 0.168125 0.412508 -0.528078
O11   O     O_2   0.599794 0.251723 0.244091 -0.533594
O12   O     O_R   0.629740 0.417720 0.499990 -0.491242
O13   O     O_2   0.452239 0.295053 0.834013 -0.488054
O14   O     O_2   0.409330 0.738423 0.292836 -0.472405
O15   O     O_2   0.601258 0.734965 0.704596 -0.502699
O16   O     O_R   0.629740 0.582280 0.499990 -0.512640
O17   O     O_R   0.370260 0.417720 0.500010 -0.507309
O18   O     O_R   0.499980 0.582290 0.417880 -0.503519
O19   O     O_R   0.500020 0.417710 0.582120 -0.490818
O20   O     O_R   0.500020 0.582290 0.582120 -0.522766
O21   O     O_R   0.499980 0.417710 0.417880 -0.509997
O22   O     O_2   0.659333 0.458669 0.849996 -0.494013

loop_
_geom_bond_atom_site_label_1
_geom_bond_atom_site_label_2
_ccdc_geom_bond_type
C66   C68   A    
C87   C88   A    
C34   C56   A    
C94   O15   D    
C23   C45   A    
C14   C18   A    
C53   C55   A    
C1    O1    A    
Cu1   Cu2   S    
Cu1   O1    S    
C44   O3    S    
C81   C82   A    
C64   H13   S    
C30   N4    A    
C47   C49   A    
C80   H26   S    
C85   C86   A    
C27   C33   A    
C15   C19   A    
C29   H23   S    
C72   H19   S    
C76   H24   S    
C22   H5    S    
C81   H27   S    
C59   H8    S    
C36   C37   A    
C35   C37   A    
C52   C55   A    
C24   C26   A    
C7    H44   S    
C55   C77   S    
C69   H16   S    
C43   C52   A    
C39   C74   S    
C77   C83   A    
C29   N3    A    
C67   C89   A    
C33   C36   A    
C56   C78   A    
Cu2   O17   S    
C11   H3    S    
C18   C19   A    
C32   C39   A    
C8    H2    S    
C17   O19   A    
C46   O4    S    
C92   H37   S    
C28   C35   A    
C66   C72   A    
C44   N1    A    
C49   C51   A    
C22   C25   A    
C45   C67   A    
C27   N3    A    
C70   C71   A    
C51   C57   A    
C25   C60   S    
C61   H9    S    
C24   H6    S    
C61   C62   A    
C44   C47   A    
C42   C51   A    
C47   C53   A    
C48   C50   A    
C1    O17   A    
C73   O7    D    
C74   O8    D    
C85   H30   S    
C93   O14   D    
C75   H22   S    
C84   C90   A    
C88   H33   S    
C12   O12   A    
C82   H28   S    
C87   H32   S    
C8    C21   A    
C54   C59   S    
C77   C79   A    
C70   H17   S    
C46   C48   A    
C33   C40   A    
C1    C10   S    
C63   C64   A    
Cu1   O16   S    
C26   C66   S    
Cu2   O19   S    
C2    C94   S    
C84   C85   A    
C38   C41   A    
C46   N2    A    
C93   H38   S    
C83   H29   S    
Cu1   O18   S    
C39   C40   A    
C3    H42   S    
C86   C87   A    
C68   C69   A    
C91   H36   S    
C16   O18   A    
C30   H34   S    
C82   C83   A    
C6    C34   A    
C71   H18   S    
C92   O13   D    
C68   H15   S    
C48   C54   A    
C91   O11   D    
C62   C63   A    
C2    C78   A    
C17   O20   A    
Cu2   N4    S    
C79   H25   S    
C75   O9    D    
C50   C52   A    
C5    C23   A    
C16   O21   A    
C42   N1    A    
C94   H39   S    
C57   C84   S    
C16   C67   S    
C32   C37   A    
C12   O16   A    
C6    N1    S    
C73   H20   S    
C28   N4    A    
C90   H35   S    
C4    C6    A    
C15   C24   A    
C88   C90   A    
C60   C65   A    
C49   C50   A    
C9    C11   A    
C23   C91   S    
C63   H11   S    
C59   O6    D    
C7    C9    A    
C74   H21   S    
C21   C25   A    
C27   H1    S    
C45   H40   S    
C19   C21   A    
C86   H31   S    
C31   C36   A    
Cu1   N3    S    
C80   C81   A    
C3    C5    A    
C10   C13   A    
C53   C58   S    
C58   O5    D    
C31   C38   A    
C62   H10   S    
C40   C75   S    
C3    C89   A    
C64   C65   A    
C14   C22   A    
C13   H4    S    
C13   C15   A    
C71   C72   A    
C29   C31   A    
C43   O2    S    
Cu1   O20   S    
C4    H43   S    
C30   C32   A    
C56   H41   S    
C5    N2    S    
Cu2   O12   S    
C20   C26   A    
C28   H12   S    
C2    C4    A    
C76   O10   D    
C17   C78   S    
C11   C14   A    
C18   C20   A    
C89   C93   S    
C69   C70   A    
C35   C41   A    
C9    C12   S    
C34   C92   S    
C65   H14   S    
C79   C80   A    
C8    C10   A    
C7    C20   A    
Cu2   O21   S    
C60   C61   A    
C43   N2    A    
C58   H7    S    
C38   C73   S    
C42   O22   S    
C41   C76   S    
C54   C57   A    
