data_mof_unit_pretest_938.cif
_audit_creation_date              2012-12-10T18:49:26-0500
_audit_creation_method            fapswitch 2.2
_symmetry_space_group_name_H-M    P1
_symmetry_Int_Tables_number       1
_space_group_crystal_system       triclinic
_cell_length_a                    9.844935
_cell_length_b                    10.623224
_cell_length_c                    13.606617
_cell_angle_alpha                 89.77736
_cell_angle_beta                  82.265733
_cell_angle_gamma                 89.890015
_cell_volume                      1410.08968934

loop_
_atom_site_label
_atom_site_type_symbol
_atom_type_description
_atom_site_fract_x
_atom_site_fract_y
_atom_site_fract_z
_atom_type_partial_charge
C1    C     C_R   0.500598 0.739743 0.495923 0.857160
C2    C     C_R   0.915159 0.569984 0.567151 -0.321315
C3    C     C_1   0.545731 0.487833 0.210666 -0.190383
C4    C     C_1   0.453856 0.495971 0.789700 -0.202972
C5    C     C_2   0.557006 0.472194 0.019124 0.083832
C6    C     C_2   0.436751 0.485098 0.982029 0.092868
C7    C     C_1   0.440646 0.491134 0.877579 -0.037824
C8    C     C_1   0.556657 0.479244 0.123063 -0.042265
C9    C     C_R   0.556004 0.930931 0.572545 -0.240612
C10   C     C_R   0.442735 0.069382 0.428656 -0.252568
C11   C     C_R   0.555111 0.061017 0.579503 0.090260
C12   C     C_R   0.499473 0.260367 0.503396 0.847819
C13   C     C_R   0.443111 0.940188 0.422225 0.100730
C14   C     C_3   0.900970 0.231857 0.375284 0.106706
C15   C     C_3   0.817177 0.160046 0.307826 -0.802485
C16   C     C_3   0.098466 0.768575 0.624314 0.099611
C17   C     C_3   0.181627 0.840789 0.691928 -0.798623
C18   C     C_3   0.297299 0.500681 0.044434 -0.413154
C19   C     C_3   0.207129 0.384679 0.036081 -0.365298
C20   C     C_3   0.069097 0.397505 0.101539 -0.844055
C21   C     C_3   0.695338 0.458518 0.955422 -0.405517
C22   C     C_3   0.758812 0.587679 0.927841 -0.368644
C23   C     C_R   0.499132 0.127928 0.504996 -0.075442
C24   C     C_3   0.896111 0.574472 0.861674 -0.828343
C25   C     C_3   0.608738 0.129981 0.664803 -0.395094
C26   C     C_3   0.642888 0.046603 0.750863 -0.365359
C27   C     C_3   0.681460 0.126255 0.836020 -0.896042
C28   C     C_3   0.391617 0.880010 0.333333 -0.445338
C29   C     C_3   0.511759 0.844465 0.254554 -0.333643
C30   C     C_3   0.460966 0.799919 0.159452 -0.887632
C31   C     C_R   0.500401 0.872345 0.495498 -0.064976
C32   C     C_R   0.474692 0.500058 0.685871 0.891041
C33   C     C_R   0.525300 0.497769 0.314197 0.897010
C34   C     C_R   0.940099 0.428326 0.433216 0.528439
C35   C     C_R   0.059886 0.571840 0.566669 0.530564
C36   C     C_R   0.084835 0.430247 0.432671 -0.315047
H1    H     H_    0.150728 0.376766 0.377966 0.165172
H2    H     H_    0.988864 0.794895 0.644436 0.112852
H3    H     H_    0.133707 0.797931 0.546259 0.142879
H4    H     H_    0.291497 0.814302 0.676264 0.258921
H5    H     H_    0.171479 0.943557 0.679457 0.203835
H6    H     H_    0.143963 0.818839 0.770742 0.238980
H7    H     H_    0.084198 0.403834 0.180828 0.277553
H8    H     H_    0.014120 0.482884 0.080659 0.263243
H9    H     H_    0.004911 0.313807 0.091889 0.243449
H10   H     H_    0.188703 0.372448 0.957837 0.229401
H11   H     H_    0.260262 0.299279 0.059271 0.223438
H12   H     H_    0.849218 0.623778 0.621604 0.168875
H13   H     H_    0.305223 0.516928 0.123881 0.207916
H14   H     H_    0.246105 0.585301 0.017891 0.202478
H15   H     H_    0.970249 0.521841 0.901019 0.263022
H16   H     H_    0.882461 0.523931 0.792392 0.268964
H17   H     H_    0.938660 0.669294 0.841786 0.254522
H18   H     H_    0.688362 0.644096 0.887717 0.225670
H19   H     H_    0.774902 0.639048 0.996375 0.223091
H20   H     H_    0.765653 0.403420 0.996750 0.205774
H21   H     H_    0.685525 0.404420 0.887073 0.206762
H22   H     H_    0.771271 0.186589 0.809960 0.260854
H23   H     H_    0.597660 0.873254 0.627069 0.136298
H24   H     H_    0.593673 0.186593 0.866637 0.260507
H25   H     H_    0.708353 0.063721 0.896098 0.250823
H26   H     H_    0.552503 0.988078 0.779432 0.225029
H27   H     H_    0.730855 0.984001 0.724603 0.216225
H28   H     H_    0.702485 0.183013 0.634770 0.210879
H29   H     H_    0.529430 0.199127 0.695704 0.191139
H30   H     H_    0.389039 0.719928 0.175612 0.261881
H31   H     H_    0.407624 0.877778 0.125520 0.257355
H32   H     H_    0.549315 0.768797 0.105533 0.250756
H33   H     H_    0.579362 0.927520 0.236740 0.225404
H34   H     H_    0.402530 0.125417 0.372165 0.139965
H35   H     H_    0.573374 0.768450 0.283363 0.214084
H36   H     H_    0.327256 0.796451 0.355531 0.217798
H37   H     H_    0.323799 0.947101 0.299866 0.198028
H38   H     H_    0.865911 0.202487 0.453356 0.140357
H39   H     H_    0.010439 0.205223 0.354968 0.113905
H40   H     H_    0.854851 0.181746 0.228982 0.240600
H41   H     H_    0.826621 0.057221 0.320374 0.198872
H42   H     H_    0.707486 0.187127 0.323539 0.260091
N1    N     N_R   0.142790 0.500030 0.500020 -0.122653
N2    N     N_R   0.857210 0.499970 0.499980 -0.121789
O1    O     O_R   0.385380 0.683250 0.500010 -0.604317
O2    O     O_3   0.118009 0.638163 0.637640 -0.583033
O3    O     O_R   0.614620 0.316750 0.499990 -0.606083
O4    O     O_R   0.614710 0.683220 0.500000 -0.623636
O5    O     O_R   0.385290 0.316780 0.500000 -0.618955
O6    O     O_R   0.368830 0.499990 0.640350 -0.553690
O7    O     O_R   0.631170 0.500010 0.359650 -0.556066
O8    O     O_R   0.598160 0.499960 0.640350 -0.625223
O9    O     O_R   0.401840 0.500040 0.359650 -0.627676
O10   O     O_3   0.881973 0.362357 0.362055 -0.584936
Zn1   Zn    Zn3+2 0.346870 0.500020 0.500000 0.969836
Zn2   Zn    Zn3+2 0.653130 0.499980 0.500000 0.967160

loop_
_geom_bond_atom_site_label_1
_geom_bond_atom_site_label_2
_ccdc_geom_bond_type
C2    C35   A    
C24   H16   S    
C19   C20   S    
O5    Zn1   S    
C19   H10   S    
C22   H18   S    
C1    O4    A    
O3    Zn2   S    
C12   C23   S    
C26   C27   S    
C12   O5    A    
C14   H38   S    
C28   C29   S    
C27   H24   S    
C5    C6    D    
C19   H11   S    
C15   H42   S    
C3    C33   S    
C1    O1    A    
C32   O8    A    
C1    C31   S    
C18   C19   S    
C35   N1    A    
C17   H6    S    
C14   O10   S    
C27   H25   S    
C34   N2    A    
O8    Zn2   S    
C30   H30   S    
C16   C17   S    
C13   C28   S    
O9    Zn1   S    
N1    Zn1   S    
C30   H31   S    
C24   H15   S    
C15   H40   S    
O7    Zn2   S    
C28   H36   S    
C4    C7    T    
C28   H37   S    
C20   H8    S    
C35   O2    S    
C29   H33   S    
C6    C18   S    
C25   H29   S    
C3    C8    T    
C2    H12   S    
C25   C26   S    
C36   N1    A    
C12   O3    A    
C9    H23   S    
C25   H28   S    
N2    Zn2   S    
C26   H27   S    
C34   O10   S    
C21   H21   S    
C29   C30   S    
C33   O9    A    
C21   H20   S    
C32   O6    A    
C16   O2    S    
C4    C32   S    
C9    C11   A    
C6    C7    S    
C10   H34   S    
C22   C24   S    
C20   H7    S    
C18   H14   S    
C36   H1    S    
C13   C31   A    
C20   H9    S    
C10   C13   A    
C5    C8    S    
C22   H19   S    
C10   C23   A    
C24   H17   S    
O6    Zn1   S    
C14   H39   S    
C26   H26   S    
C15   H41   S    
C27   H22   S    
C11   C23   A    
C34   C36   A    
C33   O7    A    
C17   H5    S    
C2    N2    A    
C9    C31   A    
C16   H3    S    
O1    Zn1   S    
C5    C21   S    
C11   C25   S    
C14   C15   S    
O4    Zn2   S    
C21   C22   S    
C17   H4    S    
C30   H32   S    
C18   H13   S    
C16   H2    S    
C29   H35   S    
