data_mof_unit_pretest_331.cif
_audit_creation_date              2012-12-10T16:48:08-0500
_audit_creation_method            fapswitch 2.2
_symmetry_space_group_name_H-M    P1
_symmetry_Int_Tables_number       1
_space_group_crystal_system       triclinic
_cell_length_a                    15.868585
_cell_length_b                    8.711385
_cell_length_c                    7.63209
_cell_angle_alpha                 102.167969
_cell_angle_beta                  96.463742
_cell_angle_gamma                 95.157087
_cell_volume                      1017.74674587

loop_
_atom_site_label
_atom_site_type_symbol
_atom_type_description
_atom_site_fract_x
_atom_site_fract_y
_atom_site_fract_z
_atom_type_partial_charge
C1    C     C_R   0.496664 0.200521 0.454056 0.861496
C2    C     C_R   0.503337 0.799479 0.545944 0.861488
C3    C     C_R   0.340217 0.499037 0.498529 0.802563
C4    C     C_R   0.659782 0.500966 0.501471 0.802599
C5    C     C_2   0.492848 0.032260 0.429051 -0.367331
C6    C     C_2   0.507154 0.967740 0.570948 -0.367326
C7    C     C_3   0.969686 0.371567 0.554152 0.128834
C8    C     C_3   0.030312 0.628473 0.445833 0.128909
C9    C     C_3   0.015419 0.368081 0.384443 -0.260151
C10   C     C_3   0.984578 0.631956 0.615544 -0.260181
C11   C     C_1   0.250326 0.499220 0.495884 -0.154911
C12   C     C_1   0.749673 0.500797 0.504115 -0.154953
C13   C     C_3   0.038024 0.503424 0.666241 0.040503
C14   C     C_3   0.961972 0.496613 0.333742 0.040454
C15   C     C_3   0.083105 0.501125 0.498082 0.011894
C16   C     C_3   0.916893 0.498915 0.501907 0.011895
C17   C     C_1   0.174781 0.499896 0.495782 -0.019513
C18   C     C_1   0.825218 0.500134 0.504213 -0.019658
Cu1   Cu    Cu3+1 0.509330 0.517380 0.684380 0.936907
Cu2   Cu    Cu3+1 0.490670 0.482620 0.315620 0.936905
H1    H     H_    0.029598 0.261333 0.289435 0.166301
H2    H     H_    0.970400 0.738707 0.710551 0.166321
H3    H     H_    0.477331 0.960996 0.292248 0.167288
H4    H     H_    0.522672 0.039004 0.707750 0.167287
N1    N     N_2   0.476600 0.456420 0.038510 -0.073032
N2    N     N_2   0.523400 0.543580 0.961490 -0.073041
O1    O     O_R   0.506070 0.286130 0.619780 -0.610151
O2    O     O_R   0.493930 0.713870 0.380220 -0.610145
O3    O     O_R   0.490300 0.256770 0.308360 -0.590334
O4    O     O_R   0.509700 0.743230 0.691640 -0.590337
O5    O     O_R   0.386960 0.514660 0.655680 -0.587857
O6    O     O_R   0.613040 0.485340 0.344320 -0.587881
O7    O     O_R   0.371190 0.485310 0.344260 -0.579069
O8    O     O_R   0.628810 0.514690 0.655740 -0.579068
C19   C     C_3   0.928326 0.222799 0.602182 -0.383709
C20   C     C_3   0.993079 0.135141 0.693295 -0.741945
H5    H     H_    0.050277 0.125739 0.622182 0.259080
H6    H     H_    0.013058 0.196390 0.836354 0.300497
H7    H     H_    0.963234 0.014867 0.692413 0.222858
H8    H     H_    0.879405 0.254943 0.692039 0.243951
H9    H     H_    0.894952 0.142907 0.475559 0.193610
C21   C     C_3   0.071683 0.777257 0.397859 -0.383634
C22   C     C_3   0.006936 0.865014 0.306886 -0.741847
H10   H     H_    0.986978 0.803908 0.163768 0.300629
H11   H     H_    0.949728 0.874323 0.377982 0.259112
H12   H     H_    0.036785 0.985328 0.307941 0.222762
H13   H     H_    0.105086 0.857085 0.524495 0.193541
H14   H     H_    0.120581 0.745126 0.307942 0.243894
C23   C     C_2   0.915187 0.485184 0.149163 0.878950
O9    O     O_2   0.922851 0.374711 0.026387 -0.640511
O10   O     O_R   0.861160 0.597545 0.119089 -0.783876
H15   H     H_    0.836225 0.579457 0.987159 0.323905
C24   C     C_2   0.084774 0.514800 0.850834 0.878458
O11   O     O_2   0.076906 0.625016 0.973749 -0.640505
O12   O     O_R   0.138968 0.402654 0.880791 -0.783899
H16   H     H_    0.163845 0.420644 0.012747 0.323865
C25   C     C_3   0.427930 0.310363 0.931659 -0.054433
C26   C     C_3   0.343808 0.271793 0.000608 -0.799343
H17   H     H_    0.353263 0.228098 0.126365 0.263062
H18   H     H_    0.308627 0.377099 0.020306 0.268806
H19   H     H_    0.303412 0.175755 0.898343 0.208891
H20   H     H_    0.406201 0.318414 0.794906 0.215362
H21   H     H_    0.466980 0.211011 0.931392 0.151709
C27   C     C_3   0.572079 0.689627 0.068337 -0.054491
C28   C     C_3   0.656202 0.728166 0.999378 -0.799295
H22   H     H_    0.691359 0.622827 0.979599 0.268794
H23   H     H_    0.646742 0.771917 0.873660 0.263054
H24   H     H_    0.696625 0.824149 0.101670 0.208924
H25   H     H_    0.533038 0.788990 0.068595 0.151714
H26   H     H_    0.593802 0.681582 0.205094 0.215356

loop_
_geom_bond_atom_site_label_1
_geom_bond_atom_site_label_2
_ccdc_geom_bond_type
C21   H14   S    
C8    C14   S    
C9    C14   S    
C15   C17   S    
Cu2   N1    S    
C27   H26   S    
C4    C12   S    
Cu1   O1    S    
Cu1   Cu2   S    
C5    H3    S    
C13   C15   S    
C2    O4    A    
C22   H10   S    
C28   H24   S    
C6    H4    S    
C27   C28   S    
C23   O9    D    
O12   H16   S    
C1    O3    A    
C19   H8    S    
N1    N2    D    
Cu1   O5    S    
C25   H20   S    
C16   C18   S    
C2    C6    S    
C27   H25   S    
C10   H2    S    
C3    O5    A    
C22   H11   S    
C9    H1    S    
C25   C26   S    
C4    O6    A    
C10   C16   S    
N1    C25   S    
Cu2   O3    S    
C26   H19   S    
C1    C5    S    
Cu2   O7    S    
C20   H6    S    
C20   H5    S    
C8    C21   S    
C25   H21   S    
C8    C15   S    
C13   C24   S    
C21   H13   S    
C24   O12   S    
C4    O8    A    
C9    C15   S    
C5    C6    D    
C19   H9    S    
C22   H12   S    
C14   C16   S    
C14   C23   S    
C3    C11   S    
C21   C22   S    
C3    O7    A    
C26   H18   S    
O10   H15   S    
C7    C9    S    
C7    C13   S    
C8    C10   S    
C28   H22   S    
Cu2   O6    S    
C12   C18   T    
C1    O1    A    
Cu1   N2    S    
N2    C27   S    
C11   C17   T    
C2    O2    A    
Cu2   O2    S    
C28   H23   S    
C26   H17   S    
C24   O11   D    
Cu1   O4    S    
C7    C19   S    
Cu1   O8    S    
C20   H7    S    
C7    C16   S    
C19   C20   S    
C23   O10   S    
C10   C13   S    
