data_mof_unit_pretest_1449.cif
_audit_creation_date              2012-12-10T18:45:35-0500
_audit_creation_method            fapswitch 2.2
_symmetry_space_group_name_H-M    P1
_symmetry_Int_Tables_number       1
_space_group_crystal_system       triclinic
_cell_length_a                    19.452242
_cell_length_b                    18.104234
_cell_length_c                    10.813954
_cell_angle_alpha                 89.967222
_cell_angle_beta                  89.691905
_cell_angle_gamma                 91.491172
_cell_volume                      3806.98220427

loop_
_atom_site_label
_atom_site_type_symbol
_atom_type_description
_atom_site_fract_x
_atom_site_fract_y
_atom_site_fract_z
_atom_type_partial_charge
C1    C     C_R   0.366988 0.498790 0.498449 0.791677
C2    C     C_R   0.928023 0.499700 0.403757 -0.246286
C3    C     C_R   0.522891 0.722748 0.399328 0.076806
C4    C     C_R   0.458895 0.277683 0.580922 0.076366
C5    C     C_R   0.474728 0.719846 0.600507 0.075387
C6    C     C_R   0.540992 0.280384 0.418416 0.083816
C7    C     C_R   0.522422 0.800242 0.398381 -0.304299
C8    C     C_R   0.458243 0.200166 0.582099 -0.261595
C9    C     C_R   0.473308 0.797251 0.603228 -0.319816
C10   C     C_R   0.541776 0.202956 0.416408 -0.337953
C11   C     C_R   0.497310 0.838504 0.501181 0.178413
C12   C     C_R   0.633113 0.501052 0.499330 0.790376
C13   C     C_R   0.500227 0.161935 0.499393 0.155830
C14   C     C_R   0.549577 0.961870 0.566421 0.104174
C15   C     C_R   0.448912 0.038891 0.430135 0.097565
C16   C     C_R   0.445692 0.959849 0.436521 0.104502
C17   C     C_R   0.550347 0.040774 0.565860 0.110418
C18   C     C_R   0.499957 0.079019 0.498104 -0.038132
C19   C     C_R   0.497048 0.921543 0.502459 -0.024072
C20   C     C_R   0.499930 0.499989 0.262596 0.795973
C21   C     C_R   0.499973 0.499994 0.737477 0.795178
C22   C     C_R   0.372844 0.496771 0.129046 -0.159422
C23   C     C_R   0.709703 0.503663 0.488150 -0.110800
C24   C     C_R   0.625746 0.523116 0.871630 -0.166934
C25   C     C_R   0.374115 0.476938 0.873740 -0.172210
C26   C     C_R   0.626901 0.501548 0.126536 -0.169110
C27   C     C_R   0.311174 0.486407 0.065587 -0.145728
C28   C     C_R   0.687926 0.524609 0.935240 -0.147607
C29   C     C_R   0.311925 0.474777 0.938524 -0.147277
C30   C     C_R   0.688621 0.511914 0.062023 -0.142920
C31   C     C_R   0.437029 0.490549 0.935788 0.074239
C32   C     C_R   0.563118 0.503286 0.064468 0.070683
C33   C     C_R   0.436655 0.496096 0.065669 0.072589
C34   C     C_R   0.290827 0.495178 0.483704 -0.111163
C35   C     C_R   0.562792 0.509302 0.934678 0.077499
C36   C     C_R   0.499924 0.500005 0.871186 -0.189131
C37   C     C_R   0.499887 0.499867 0.129007 -0.189430
C38   C     C_R   0.749893 0.441910 0.523180 0.087065
C39   C     C_R   0.249149 0.556047 0.517033 0.091996
C40   C     C_R   0.258024 0.432028 0.426943 0.087422
C41   C     C_R   0.744650 0.566155 0.432708 0.084693
C42   C     C_R   0.821299 0.445678 0.504662 -0.161850
C43   C     C_R   0.178112 0.550767 0.496377 -0.157841
C44   C     C_R   0.190407 0.437181 0.385517 -0.172414
C45   C     C_R   0.969324 0.565221 0.402337 0.367500
C46   C     C_R   0.812772 0.559636 0.393373 -0.180598
C47   C     C_R   0.852808 0.501521 0.433038 0.117080
C48   C     C_R   0.148483 0.493990 0.424634 0.145575
C49   C     C_3   0.720834 0.369918 0.577832 -0.378334
C50   C     C_3   0.694348 0.378681 0.709761 -0.799866
C51   C     C_3   0.276253 0.628070 0.573749 -0.374804
C52   C     C_3   0.300161 0.618701 0.706721 -0.832900
C53   C     C_3   0.288303 0.355368 0.418213 -0.365738
C54   C     C_3   0.328196 0.343015 0.298575 -0.801857
C55   C     C_3   0.715361 0.642777 0.418730 -0.367530
C56   C     C_R   0.032547 0.427388 0.393312 0.372624
C57   C     C_3   0.682335 0.653847 0.293015 -0.824573
C58   C     C_3   0.945280 0.650575 0.548376 -0.277771
C59   C     C_3   0.057703 0.312909 0.314034 -0.279344
C60   C     C_3   0.097643 0.630022 0.236543 -0.284542
C61   C     C_3   0.893641 0.364002 0.251600 -0.361299
C62   C     C_3   0.606198 0.920029 0.631758 -0.385911
C63   C     C_3   0.666269 0.905911 0.544137 -0.844915
C64   C     C_3   0.399911 0.081482 0.347711 -0.375862
C65   C     C_3   0.329878 0.092024 0.408884 -0.827649
C66   C     C_3   0.387377 0.915228 0.374868 -0.370313
C67   C     C_R   0.040051 0.561663 0.381095 0.334868
C68   C     C_3   0.333617 0.887646 0.469071 -0.831237
C69   C     C_3   0.604800 0.084960 0.638028 -0.381817
C70   C     C_3   0.581511 0.098026 0.771156 -0.845398
C71   C     C_R   0.960323 0.431259 0.384481 0.360127
C72   C     C_R   0.073192 0.493673 0.396167 -0.253417
Cu1   Cu    Cu3+1 0.500000 0.573360 0.500000 0.920937
Cu2   Cu    Cu3+1 0.500000 0.426640 0.500000 0.919436
H1    H     H_    0.737020 0.511274 0.110958 0.131352
H2    H     H_    0.145769 0.592830 0.534781 0.172786
H3    H     H_    0.170320 0.394341 0.325806 0.171980
H4    H     H_    0.834933 0.602456 0.334682 0.196511
H5    H     H_    0.541001 0.694239 0.318492 0.129210
H6    H     H_    0.426461 0.306978 0.644823 0.113420
H7    H     H_    0.454972 0.688992 0.679083 0.134815
H8    H     H_    0.573254 0.311782 0.354570 0.121058
H9    H     H_    0.541230 0.830199 0.317814 0.126349
H10   H     H_    0.425448 0.170239 0.647152 0.126816
H11   H     H_    0.453345 0.824886 0.684099 0.134358
H12   H     H_    0.264122 0.465064 0.889657 0.131190
H13   H     H_    0.574526 0.175161 0.350937 0.135871
H14   H     H_    0.733754 0.407379 0.767528 0.241255
H15   H     H_    0.646146 0.409584 0.711163 0.266123
H16   H     H_    0.682994 0.323302 0.750325 0.236243
H17   H     H_    0.680808 0.344796 0.517432 0.219280
H18   H     H_    0.761251 0.327616 0.581037 0.193247
H19   H     H_    0.348621 0.588317 0.709772 0.259862
H20   H     H_    0.310147 0.673902 0.748626 0.231761
H21   H     H_    0.259955 0.589086 0.762288 0.248060
H22   H     H_    0.317326 0.653952 0.515600 0.226703
H23   H     H_    0.735773 0.534381 0.885588 0.129014
H24   H     H_    0.235277 0.669790 0.575563 0.193893
H25   H     H_    0.374733 0.379206 0.293928 0.281064
H26   H     H_    0.344807 0.284822 0.294765 0.233732
H27   H     H_    0.295082 0.353452 0.217462 0.238107
H28   H     H_    0.319284 0.342062 0.500516 0.214023
H29   H     H_    0.245926 0.312876 0.421505 0.193043
H30   H     H_    0.635726 0.618082 0.284252 0.265973
H31   H     H_    0.667365 0.712315 0.283276 0.227139
H32   H     H_    0.719188 0.641159 0.217705 0.247273
H33   H     H_    0.680163 0.657070 0.495304 0.224229
H34   H     H_    0.262775 0.486205 0.115540 0.130927
H35   H     H_    0.757730 0.684941 0.427520 0.196575
H36   H     H_    0.999595 0.654894 0.580035 0.172878
H37   H     H_    0.915867 0.609088 0.605003 0.144190
H38   H     H_    0.921786 0.704978 0.563992 0.177225
H39   H     H_    0.059364 0.343094 0.224065 0.117657
H40   H     H_    0.011057 0.276547 0.320271 0.220212
H41   H     H_    0.102450 0.276147 0.315017 0.156307
H42   H     H_    0.052548 0.626823 0.173557 0.155084
H43   H     H_    0.134209 0.585652 0.214121 0.147533
H44   H     H_    0.124786 0.683743 0.219607 0.183382
H45   H     H_    0.370029 0.505000 0.227928 0.127111
H46   H     H_    0.934113 0.370824 0.178971 0.143774
H47   H     H_    0.853796 0.406246 0.239440 0.175450
H48   H     H_    0.868275 0.309067 0.237870 0.188008
H49   H     H_    0.649267 0.870381 0.465930 0.257331
H50   H     H_    0.687936 0.958695 0.506656 0.243607
H51   H     H_    0.707348 0.877285 0.594768 0.239470
H52   H     H_    0.625209 0.949415 0.715017 0.202909
H53   H     H_    0.586990 0.866459 0.669338 0.206717
H54   H     H_    0.300308 0.039107 0.415195 0.257449
H55   H     H_    0.336132 0.115584 0.502975 0.249801
H56   H     H_    0.627575 0.532417 0.772863 0.125828
H57   H     H_    0.299624 0.130808 0.352698 0.232780
H58   H     H_    0.421198 0.137029 0.323587 0.207701
H59   H     H_    0.394206 0.055037 0.255821 0.175784
H60   H     H_    0.352716 0.840641 0.523178 0.255322
H61   H     H_    0.319576 0.932442 0.533791 0.251612
H62   H     H_    0.286559 0.868133 0.419959 0.234673
H63   H     H_    0.360091 0.946642 0.303808 0.199604
H64   H     H_    0.407867 0.867605 0.323282 0.196469
H65   H     H_    0.534757 0.131824 0.772930 0.256516
H66   H     H_    0.569921 0.044883 0.819033 0.241252
H67   H     H_    0.372350 0.468089 0.774903 0.121636
H68   H     H_    0.622880 0.128129 0.822303 0.239217
H69   H     H_    0.655098 0.057708 0.637248 0.201476
H70   H     H_    0.616754 0.139222 0.594481 0.207806
H71   H     H_    0.629645 0.492427 0.225207 0.124116
H72   H     H_    0.852391 0.402866 0.543584 0.186383
N1    N     N_R   0.500000 0.683620 0.500000 -0.166537
N2    N     N_R   0.500000 0.316380 0.500000 -0.164256
O1    O     O_R   0.400190 0.561980 0.499980 -0.577805
O2    O     O_3   0.062195 0.360083 0.418100 -0.553571
O3    O     O_3   0.076837 0.627118 0.361562 -0.552417
O4    O     O_3   0.921837 0.366372 0.371645 -0.563051
O5    O     O_R   0.599810 0.438020 0.500020 -0.584916
O6    O     O_R   0.599810 0.561980 0.500020 -0.580470
O7    O     O_R   0.400190 0.438020 0.499980 -0.588619
O8    O     O_R   0.500000 0.561950 0.319660 -0.592249
O9    O     O_R   0.500000 0.438050 0.680340 -0.582883
O10   O     O_R   0.500000 0.561950 0.680340 -0.593752
O11   O     O_R   0.500000 0.438050 0.319660 -0.590350
O12   O     O_3   0.941548 0.633833 0.421194 -0.555787

loop_
_geom_bond_atom_site_label_1
_geom_bond_atom_site_label_2
_ccdc_geom_bond_type
C28   H23   S    
C25   C31   A    
C15   C18   A    
C66   C68   S    
C70   H66   S    
C8    C13   A    
C6    H8    S    
C27   C29   A    
C21   O10   A    
C54   H27   S    
C7    H9    S    
C35   C36   A    
C12   O5    A    
C4    C8    A    
C3    H5    S    
C63   H50   S    
C21   C36   S    
C38   C49   S    
C53   C54   S    
C69   H70   S    
C26   C32   A    
C12   C23   S    
C11   C19   S    
Cu2   O11   S    
Cu1   N1    S    
C58   H38   S    
C27   H34   S    
Cu2   N2    S    
C44   H3    S    
C48   C72   S    
C38   C42   A    
C3    C7    A    
C16   C19   A    
C62   H53   S    
C15   C16   A    
C14   C62   S    
C5    H7    S    
C52   H21   S    
C61   H47   S    
C67   C72   A    
Cu1   Cu2   S    
C1    O7    A    
C41   C55   S    
C9    H11   S    
C39   C51   S    
C46   C47   A    
C50   H16   S    
C64   H58   S    
C56   C72   A    
C20   O11   A    
Cu1   O6    S    
C45   C67   A    
C15   C64   S    
C31   C33   A    
C60   H44   S    
C43   C48   A    
C50   H14   S    
C51   H22   S    
C51   H24   S    
C57   H32   S    
C70   H65   S    
C8    H10   S    
C55   H35   S    
C61   H46   S    
C14   C17   A    
C54   H26   S    
C45   O12   S    
C49   H17   S    
C65   H57   S    
C1    C34   S    
C2    C45   A    
C25   C29   A    
C22   H45   S    
C10   H13   S    
C70   H68   S    
C24   C35   A    
C57   H31   S    
C67   O3    S    
C34   C39   A    
C32   C35   A    
C68   H62   S    
C62   H52   S    
C39   C43   A    
Cu1   O10   S    
C33   C37   A    
C51   C52   S    
Cu2   O5    S    
C55   H33   S    
C61   H48   S    
C60   O3    S    
C26   H71   S    
C7    C11   A    
C65   H54   S    
C5    C9    A    
C62   C63   S    
C6    N2    A    
C50   H15   S    
C63   H49   S    
C71   O4    S    
C66   H64   S    
C53   H28   S    
C41   C46   A    
C56   C71   A    
C17   C18   A    
C60   H43   S    
C32   C37   A    
C52   H20   S    
C9    C11   A    
C29   H12   S    
C63   H51   S    
C13   C18   S    
C26   C30   A    
C22   C27   A    
C55   C57   S    
C49   C50   S    
C34   C40   A    
C54   H25   S    
C60   H42   S    
C16   C66   S    
C49   H18   S    
C56   O2    S    
C2    C71   A    
C42   H72   S    
C46   H4    S    
C64   H59   S    
C59   O2    S    
C43   H2    S    
C57   H30   S    
C17   C69   S    
C20   O8    A    
Cu2   O9    S    
Cu1   O1    S    
C58   H36   S    
C21   O9    A    
C14   C19   A    
C68   H61   S    
C25   H67   S    
C24   C28   A    
C12   O6    A    
C59   H39   S    
C10   C13   A    
C6    C10   A    
C65   H55   S    
C58   H37   S    
C4    H6    S    
C2    C47   S    
C69   H69   S    
C23   C38   A    
C4    N2    A    
C23   C41   A    
C52   H19   S    
C64   C65   S    
C28   C30   A    
C58   O12   S    
C3    N1    A    
C20   C37   S    
C66   H63   S    
C5    N1    A    
C53   H29   S    
C59   H40   S    
Cu1   O8    S    
C68   H60   S    
Cu2   O7    S    
C42   C47   A    
C69   C70   S    
C61   O4    S    
C24   H56   S    
C40   C44   A    
C30   H1    S    
C59   H41   S    
C40   C53   S    
C31   C36   A    
C1    O1    A    
C44   C48   A    
C22   C33   A    
