data_mof_unit_pretest_1142.cif
_audit_creation_date              2012-12-10T19:48:04-0500
_audit_creation_method            fapswitch 2.2
_symmetry_space_group_name_H-M    P1
_symmetry_Int_Tables_number       1
_space_group_crystal_system       triclinic
_cell_length_a                    14.995057
_cell_length_b                    14.166155
_cell_length_c                    10.802691
_cell_angle_alpha                 89.999949
_cell_angle_beta                  89.999979
_cell_angle_gamma                 89.922035
_cell_volume                      2294.73036223

loop_
_atom_site_label
_atom_site_type_symbol
_atom_type_description
_atom_site_fract_x
_atom_site_fract_y
_atom_site_fract_z
_atom_type_partial_charge
C1    C     C_R   0.327786 0.500052 0.500438 0.862997
C2    C     C_R   0.576454 0.795434 0.473620 -0.028264
C3    C     C_R   0.576578 0.204306 0.525670 -0.041144
C4    C     C_R   0.423389 0.795695 0.525487 -0.041150
C5    C     C_R   0.500043 0.053345 0.499327 0.115892
C6    C     C_R   0.499955 0.946656 0.499325 0.115819
C7    C     C_R   0.499987 0.500000 0.259840 0.910389
C8    C     C_R   0.500012 0.500001 0.740266 0.865090
C9    C     C_R   0.443733 0.669434 0.101728 0.026971
C10   C     C_R   0.439490 0.333235 0.897020 0.011480
C11   C     C_R   0.560496 0.666786 0.897029 0.011503
C12   C     C_R   0.672213 0.499948 0.500412 0.863006
C13   C     C_R   0.556244 0.330568 0.101728 0.026886
C14   C     C_R   0.471373 0.755351 0.046250 0.372136
C15   C     C_R   0.464922 0.246141 0.950450 0.434926
C16   C     C_R   0.535045 0.753874 0.950452 0.434900
C17   C     C_R   0.528597 0.244653 0.046245 0.372200
C18   C     C_R   0.517533 0.584085 0.940197 -0.072757
C19   C     C_R   0.514235 0.415015 0.060305 -0.018495
C20   C     C_R   0.485750 0.584990 0.060306 -0.018536
C21   C     C_R   0.482470 0.415924 0.940191 -0.072729
C22   C     C_R   0.500008 0.500004 0.873186 -0.117714
C23   C     C_R   0.048135 0.500416 0.510455 0.117920
C24   C     C_R   0.499988 0.500001 0.127260 -0.108883
C25   C     C_R   0.093352 0.579810 0.465892 -0.179156
C26   C     C_R   0.906650 0.420188 0.465885 -0.179157
C27   C     C_R   0.905038 0.578868 0.552350 -0.177583
C28   C     C_R   0.094960 0.421134 0.552368 -0.177583
C29   C     C_R   0.185363 0.579963 0.463336 -0.204953
C30   C     C_R   0.814639 0.420037 0.463318 -0.204965
C31   C     C_R   0.813057 0.579276 0.548068 -0.209437
C32   C     C_R   0.186941 0.420726 0.548096 -0.209437
C33   C     C_R   0.232065 0.500163 0.503615 -0.013935
C34   C     C_R   0.951864 0.499584 0.510449 0.117923
C35   C     C_R   0.767935 0.499838 0.503588 -0.013938
C36   C     C_3   0.526319 0.129018 0.190903 -0.248008
C37   C     C_3   0.523593 0.873924 0.813271 -0.241650
C38   C     C_3   0.476232 0.126102 0.813229 -0.241623
C39   C     C_3   0.473759 0.871015 0.190854 -0.248116
C40   C     C_3   0.357700 0.668050 0.177788 -0.346331
C41   C     C_3   0.294337 0.588473 0.140016 -0.883973
C42   C     C_3   0.357949 0.338928 0.813574 -0.281192
C43   C     C_3   0.272687 0.314447 0.884019 -0.874138
C44   C     C_3   0.642017 0.661129 0.813542 -0.281147
C45   C     C_R   0.422208 0.105395 0.472247 -0.303020
C46   C     C_3   0.727285 0.685686 0.883923 -0.874160
C47   C     C_3   0.642283 0.331950 0.177775 -0.346399
C48   C     C_3   0.705629 0.411556 0.140042 -0.883801
C49   C     C_R   0.577823 0.894607 0.472424 -0.302921
C50   C     C_R   0.577953 0.105092 0.526397 -0.307428
C51   C     C_R   0.422013 0.894909 0.526215 -0.307378
C52   C     C_R   0.423578 0.204568 0.473440 -0.028283
H1    H     H_    0.057519 0.640874 0.431502 0.131604
H2    H     H_    0.639320 0.929738 0.447950 0.141313
H3    H     H_    0.639445 0.069715 0.550714 0.143800
H4    H     H_    0.360491 0.930286 0.550386 0.143799
H5    H     H_    0.363347 0.243083 0.451600 0.139729
H6    H     H_    0.636714 0.756922 0.451926 0.139703
H7    H     H_    0.636837 0.242618 0.547460 0.141422
H8    H     H_    0.363102 0.757385 0.547132 0.141398
H9    H     H_    0.536875 0.180868 0.266374 0.164960
H10   H     H_    0.558599 0.062220 0.220116 0.183050
H11   H     H_    0.453846 0.115372 0.177879 0.184748
H12   H     H_    0.942484 0.359123 0.431504 0.131605
H13   H     H_    0.514751 0.820971 0.738700 0.159732
H14   H     H_    0.560285 0.934397 0.772823 0.177706
H15   H     H_    0.457500 0.899572 0.845704 0.200798
H16   H     H_    0.484847 0.178997 0.738565 0.159793
H17   H     H_    0.439582 0.065534 0.772988 0.177652
H18   H     H_    0.542418 0.100607 0.845465 0.200621
H19   H     H_    0.463408 0.819113 0.266335 0.164999
H20   H     H_    0.441404 0.937747 0.220188 0.183105
H21   H     H_    0.546195 0.884801 0.177622 0.184872
H22   H     H_    0.228577 0.599097 0.185198 0.247293
H23   H     H_    0.939596 0.640067 0.588495 0.131119
H24   H     H_    0.284488 0.588268 0.038072 0.267979
H25   H     H_    0.320515 0.518853 0.169865 0.253117
H26   H     H_    0.370679 0.664967 0.278326 0.233206
H27   H     H_    0.320262 0.734895 0.163747 0.233417
H28   H     H_    0.265468 0.360983 0.966247 0.256099
H29   H     H_    0.272985 0.239689 0.914479 0.296484
H30   H     H_    0.214090 0.325287 0.822764 0.238353
H31   H     H_    0.348092 0.411529 0.777609 0.193935
H32   H     H_    0.365670 0.291062 0.732917 0.219132
H33   H     H_    0.785874 0.674825 0.822655 0.238325
H34   H     H_    0.060400 0.359936 0.588512 0.131122
H35   H     H_    0.726970 0.760464 0.914290 0.296507
H36   H     H_    0.734537 0.639209 0.966203 0.256110
H37   H     H_    0.651907 0.588527 0.777601 0.193928
H38   H     H_    0.634236 0.708978 0.732877 0.219213
H39   H     H_    0.679449 0.481161 0.169959 0.253090
H40   H     H_    0.715461 0.411810 0.038090 0.267954
H41   H     H_    0.771398 0.400917 0.185194 0.247271
H42   H     H_    0.629304 0.334999 0.278319 0.233196
H43   H     H_    0.679733 0.265116 0.163687 0.233372
H44   H     H_    0.219819 0.641569 0.428155 0.146392
H45   H     H_    0.780184 0.358429 0.428139 0.146417
H46   H     H_    0.777337 0.640998 0.580644 0.147800
H47   H     H_    0.222660 0.359006 0.580679 0.147819
H48   H     H_    0.360742 0.070264 0.447627 0.141317
N1    N     N_R   0.500000 0.252470 0.500000 -0.101456
N2    N     N_R   0.500000 0.747530 0.500000 -0.101445
O1    O     O_R   0.369060 0.579480 0.500010 -0.640107
O2    O     O_3   0.573838 0.837350 0.912247 -0.594773
O3    O     O_3   0.426087 0.162673 0.912303 -0.594726
O4    O     O_3   0.433813 0.840735 0.079984 -0.603879
O5    O     O_R   0.630940 0.420520 0.499990 -0.640090
O6    O     O_R   0.630940 0.579480 0.499990 -0.640818
O7    O     O_R   0.369060 0.420520 0.500010 -0.640802
O8    O     O_R   0.499990 0.579480 0.316780 -0.626251
O9    O     O_R   0.500010 0.420520 0.683220 -0.622761
O10   O     O_R   0.500010 0.579480 0.683220 -0.622776
O11   O     O_R   0.499990 0.420520 0.316780 -0.626235
O12   O     O_3   0.566156 0.159260 0.079943 -0.603819
Zn1   Zn    Zn3+2 0.500000 0.606140 0.500000 0.911456
Zn2   Zn    Zn3+2 0.500000 0.393860 0.500000 0.911455

loop_
_geom_bond_atom_site_label_1
_geom_bond_atom_site_label_2
_ccdc_geom_bond_type
C39   O4    S    
C38   H18   S    
C11   C18   A    
C10   C42   S    
C37   O2    S    
C36   O12   S    
C1    C33   S    
C30   H45   S    
C30   C35   A    
C43   H30   S    
O6    Zn1   S    
C19   C21   A    
C25   H1    S    
C10   C15   A    
C8    O10   A    
C41   H25   S    
C5    C6    S    
C36   H10   S    
C2    N2    A    
C7    C24   S    
C29   C33   A    
C51   H4    S    
C31   H46   S    
C26   H12   S    
N2    Zn1   S    
O7    Zn2   S    
C1    O7    A    
C41   H22   S    
C16   O2    S    
C7    O8    A    
C20   C24   A    
C48   H39   S    
C4    N2    A    
C8    C22   S    
C39   H20   S    
O9    Zn2   S    
C6    C51   A    
C36   H11   S    
C1    O1    A    
O11   Zn2   S    
C3    N1    A    
C23   C25   A    
C38   H17   S    
C10   C21   A    
C21   C22   A    
C27   H23   S    
C3    C50   A    
C44   C46   S    
C17   O12   S    
C46   H36   S    
C27   C34   A    
C25   C29   A    
C52   N1    A    
C48   H41   S    
C13   C19   A    
C4    C51   A    
C27   C31   A    
C28   C32   A    
C42   H32   S    
C8    O9    A    
C13   C47   S    
C45   C52   A    
C43   H28   S    
C5    C45   A    
C9    C40   S    
C37   H13   S    
O1    Zn1   S    
C9    C14   A    
C2    C49   A    
C29   H44   S    
C11   C16   A    
C9    C20   A    
C47   C48   S    
C23   C34   S    
C37   H14   S    
C4    H8    S    
C40   H27   S    
C11   C44   S    
C23   C28   A    
C12   C35   S    
C40   H26   S    
C40   C41   S    
C38   H16   S    
C26   C30   A    
C28   H34   S    
C43   H29   S    
C14   C16   A    
C5    C50   A    
C42   C43   S    
C36   H9    S    
C44   H38   S    
C12   O6    A    
C46   H35   S    
C15   C17   A    
C7    O11   A    
C39   H19   S    
C26   C34   A    
C18   C22   A    
C42   H31   S    
C45   H48   S    
C12   O5    A    
C2    H6    S    
C50   H3    S    
C32   H47   S    
C13   C17   A    
C32   C33   A    
C46   H33   S    
C38   O3    S    
C19   C24   A    
C41   H24   S    
C15   O3    S    
C37   H15   S    
C31   C35   A    
C47   H42   S    
C18   C20   A    
C39   H21   S    
C6    C49   A    
O5    Zn2   S    
C52   H5    S    
C14   O4    S    
C48   H40   S    
N1    Zn2   S    
C47   H43   S    
O8    Zn1   S    
O10   Zn1   S    
C44   H37   S    
C49   H2    S    
C3    H7    S    
