data_mof_unit_pretest_1824.cif
_audit_creation_date              2012-12-10T20:11:17-0500
_audit_creation_method            fapswitch 2.2
_symmetry_space_group_name_H-M    P1
_symmetry_Int_Tables_number       1
_space_group_crystal_system       triclinic
_cell_length_a                    15.948624
_cell_length_b                    15.948063
_cell_length_c                    51.363491
_cell_angle_alpha                 90.000463
_cell_angle_beta                  90.028266
_cell_angle_gamma                 89.961784
_cell_volume                      13064.2819922

loop_
_atom_site_label
_atom_site_type_symbol
_atom_type_description
_atom_site_fract_x
_atom_site_fract_y
_atom_site_fract_z
_atom_type_partial_charge
C1    C     C_R   0.978745 0.574562 0.637017 -0.119199
C2    C     C_R   0.021664 0.425346 0.362957 -0.117936
C3    C     C_R   0.428306 0.031203 0.637684 -0.116228
C4    C     C_R   0.564224 0.959670 0.363115 -0.120956
C5    C     C_R   0.023546 0.426729 0.637434 -0.117366
C6    C     C_R   0.976153 0.572964 0.362599 -0.120461
C7    C     C_R   0.571127 0.972432 0.636707 -0.119564
C8    C     C_R   0.433272 0.041344 0.362611 -0.124977
C9    C     C_R   0.478586 0.072520 0.136658 -0.115823
C10   C     C_R   0.525970 0.925525 0.862232 -0.119563
C11   C     C_R   0.928686 0.527663 0.136718 -0.114524
C12   C     C_R   0.066506 0.458643 0.862661 -0.125293
C13   C     C_R   0.525451 0.925384 0.137773 -0.120077
C14   C     C_R   0.478376 0.072425 0.863345 -0.118403
C15   C     C_R   0.071478 0.468807 0.137673 -0.120609
C16   C     C_R   0.935615 0.540420 0.863065 -0.120650
C17   C     C_R   0.508224 0.994025 0.986219 -0.006713
C18   C     C_R   0.508196 0.994033 0.013786 -0.006689
C19   C     C_R   0.003177 0.495773 0.986260 -0.007107
C20   C     C_R   0.003458 0.495024 0.013815 -0.007105
C21   C     C_R   0.999498 0.499938 0.486221 -0.006736
C22   C     C_R   0.000713 0.499547 0.513783 -0.006714
C23   C     C_R   0.496294 0.004442 0.486260 -0.007103
C24   C     C_R   0.496007 0.005199 0.513815 -0.007109
C25   C     C_R   0.364119 0.944774 0.986366 -0.125831
C26   C     C_R   0.652319 0.043178 0.013645 -0.128182
C27   C     C_R   0.073714 0.630739 0.986728 -0.125912
C28   C     C_R   0.933371 0.359831 0.013348 -0.127313
C29   C     C_R   0.652341 0.043186 0.986430 -0.128224
C30   C     C_R   0.364085 0.944799 0.013570 -0.125746
C31   C     C_R   0.932694 0.360778 0.986144 -0.126968
C32   C     C_R   0.073570 0.630219 0.013930 -0.125438
C33   C     C_R   0.854653 0.452984 0.486919 -0.127473
C34   C     C_R   0.145565 0.546480 0.513085 -0.127478
C35   C     C_R   0.566653 0.139501 0.486163 -0.127034
C36   C     C_R   0.426011 0.869944 0.513910 -0.125643
C37   C     C_R   0.144366 0.546872 0.485880 -0.126692
C38   C     C_R   0.855842 0.452624 0.514124 -0.126581
C39   C     C_R   0.425874 0.869416 0.486708 -0.125786
C40   C     C_R   0.565970 0.140456 0.513367 -0.127091
C41   C     C_R   0.980527 0.573406 0.609524 0.102388
C42   C     C_R   0.019956 0.426405 0.390452 0.101159
C43   C     C_R   0.428577 0.034914 0.610219 0.099635
C44   C     C_R   0.562729 0.960353 0.390596 0.101349
C45   C     C_R   0.025966 0.427414 0.609946 0.099989
C46   C     C_R   0.973801 0.572172 0.390087 0.100562
C47   C     C_R   0.569085 0.974719 0.609232 0.102273
C48   C     C_R   0.433566 0.042234 0.390087 0.101925
C49   C     C_R   0.481819 0.070470 0.109178 0.100809
C50   C     C_R   0.529855 0.925320 0.889703 0.100373
C51   C     C_R   0.930624 0.525450 0.109242 0.101091
C52   C     C_R   0.066103 0.457798 0.890138 0.101909
C53   C     C_R   0.529316 0.925180 0.110302 0.101072
C54   C     C_R   0.481627 0.070367 0.890826 0.101164
C55   C     C_R   0.071096 0.465160 0.110207 0.100610
C56   C     C_R   0.937006 0.539789 0.890547 0.101401
C57   C     C_R   0.003612 0.500124 0.596114 0.230561
C58   C     C_R   0.996541 0.499527 0.403890 0.230679
C59   C     C_R   0.498192 0.005695 0.596114 0.229912
C60   C     C_R   0.497890 0.001755 0.403961 0.232107
C61   C     C_R   0.506777 0.997122 0.096122 0.230442
C62   C     C_R   0.506943 0.997131 0.903883 0.230493
C63   C     C_R   0.001444 0.494455 0.096114 0.229814
C64   C     C_R   0.001760 0.498356 0.903962 0.232059
C65   C     C_R   0.000043 0.499981 0.820149 0.976928
C66   C     C_R   0.998661 0.500049 0.179865 0.956092
C67   C     C_R   0.499999 0.001055 0.820134 0.964715
C68   C     C_R   0.499961 0.001041 0.179866 0.963739
C69   C     C_R   0.499941 0.000022 0.320149 0.977085
C70   C     C_R   0.501320 0.999953 0.679864 0.956089
C71   C     C_R   0.000070 0.498912 0.320127 0.968327
C72   C     C_R   0.999933 0.501056 0.679874 0.967106
C73   C     C_R   0.839669 0.660325 0.749999 0.890648
C74   C     C_R   0.160330 0.339674 0.250002 0.892225
C75   C     C_R   0.339673 0.839663 0.749999 0.877988
C76   C     C_R   0.660328 0.160336 0.250001 0.864121
C77   C     C_R   0.160322 0.339675 0.750003 0.891411
C78   C     C_R   0.839679 0.660326 0.249998 0.886769
C79   C     C_R   0.660341 0.160333 0.750001 0.858645
C80   C     C_R   0.339663 0.839664 0.249997 0.878242
C81   C     C_R   0.839673 0.339663 0.249999 0.857587
C82   C     C_R   0.160328 0.660337 0.750001 0.867817
C83   C     C_R   0.339667 0.160323 0.250000 0.890409
C84   C     C_R   0.660332 0.839676 0.750000 0.888188
C85   C     C_R   0.160340 0.660334 0.250001 0.879097
C86   C     C_R   0.839663 0.339664 0.749997 0.874789
C87   C     C_R   0.660319 0.839673 0.250001 0.890980
C88   C     C_R   0.339681 0.160328 0.749999 0.889933
C89   C     C_R   0.999464 0.500484 0.651064 -0.103926
C90   C     C_R   0.000558 0.499374 0.348938 -0.104329
C91   C     C_R   0.499806 0.999726 0.651046 -0.105231
C92   C     C_R   0.499106 0.000214 0.349000 -0.112523
C93   C     C_R   0.499771 0.999278 0.151051 -0.102317
C94   C     C_R   0.499896 0.999293 0.848952 -0.103061
C95   C     C_R   0.000050 0.500295 0.151047 -0.104822
C96   C     C_R   0.000759 0.499806 0.849000 -0.112477
C97   C     C_1   0.776570 0.276572 0.749997 -0.127415
C98   C     C_1   0.223435 0.723423 0.250001 -0.119485
C99   C     C_1   0.723429 0.776582 0.750000 -0.119220
C100  C     C_1   0.276571 0.223417 0.250000 -0.117154
C101  C     C_1   0.223424 0.723433 0.750002 -0.125515
C102  C     C_1   0.776577 0.276566 0.249998 -0.132733
C103  C     C_1   0.276585 0.223429 0.750000 -0.122264
C104  C     C_1   0.723416 0.776572 0.250001 -0.127440
C105  C     C_1   0.776581 0.723425 0.249997 -0.121632
C106  C     C_1   0.223420 0.276576 0.750005 -0.127484
C107  C     C_1   0.723424 0.223433 0.250002 -0.132326
C108  C     C_1   0.276578 0.776566 0.749998 -0.122961
C109  C     C_1   0.223425 0.276579 0.250003 -0.119877
C110  C     C_1   0.776575 0.723421 0.749997 -0.117141
C111  C     C_1   0.276569 0.776572 0.249997 -0.120608
C112  C     C_1   0.723436 0.223424 0.750000 -0.129231
C113  C     C_R   0.578851 0.018928 0.945079 0.570316
C114  C     C_R   0.436972 0.970637 0.054898 0.577810
C115  C     C_R   0.967357 0.430906 0.944989 0.573395
C116  C     C_R   0.037296 0.560958 0.055079 0.577880
C117  C     C_R   0.437098 0.970564 0.945072 0.577749
C118  C     C_R   0.578758 0.018904 0.054960 0.570411
C119  C     C_R   0.037627 0.563178 0.945279 0.573819
C120  C     C_R   0.969359 0.427470 0.054807 0.570074
C121  C     C_R   0.068997 0.523416 0.444833 0.577736
C122  C     C_R   0.931185 0.476158 0.555171 0.577789
C123  C     C_R   0.461954 0.936974 0.445268 0.573819
C124  C     C_R   0.530082 0.072772 0.554817 0.570070
C125  C     C_R   0.926513 0.477268 0.445333 0.570283
C126  C     C_R   0.073700 0.522212 0.554671 0.570371
C127  C     C_R   0.532105 0.069308 0.444999 0.573426
C128  C     C_R   0.462261 0.939226 0.555069 0.577892
C129  C     C_R   0.435861 0.969457 0.972459 -0.029028
C130  C     C_R   0.580463 0.018830 0.027560 -0.024810
C131  C     C_R   0.038524 0.563839 0.972663 -0.027162
C132  C     C_R   0.968511 0.426757 0.027416 -0.024595
C133  C     C_R   0.580512 0.018836 0.972480 -0.024771
C134  C     C_R   0.435797 0.969496 0.027512 -0.029209
C135  C     C_R   0.967430 0.428523 0.972369 -0.026436
C136  C     C_R   0.038517 0.562640 0.027702 -0.029477
C137  C     C_R   0.926197 0.476567 0.472732 -0.024808
C138  C     C_R   0.074019 0.522903 0.527272 -0.025090
C139  C     C_R   0.531991 0.071716 0.472379 -0.026527
C140  C     C_R   0.461012 0.937553 0.527692 -0.029080
C141  C     C_R   0.071597 0.523678 0.472215 -0.028889
C142  C     C_R   0.928605 0.475836 0.527789 -0.028847
C143  C     C_R   0.461018 0.936337 0.472653 -0.027134
C144  C     C_R   0.530898 0.073497 0.527426 -0.025063
H1    H     H_    0.307666 0.925528 0.976282 0.198677
H2    H     H_    0.708739 0.062502 0.023732 0.198060
H3    H     H_    0.101293 0.683843 0.976772 0.198699
H4    H     H_    0.906033 0.306603 0.023306 0.197979
H5    H     H_    0.708777 0.062518 0.976371 0.197969
H6    H     H_    0.307608 0.925570 0.023626 0.198808
H7    H     H_    0.904891 0.308230 0.975956 0.198237
H8    H     H_    0.101023 0.682952 0.024117 0.199130
H9    H     H_    0.797485 0.434700 0.477053 0.197950
H10   H     H_    0.202736 0.564752 0.522951 0.198303
H11   H     H_    0.594412 0.192070 0.475984 0.198375
H12   H     H_    0.398606 0.817188 0.524089 0.198802
H13   H     H_    0.200667 0.565392 0.475603 0.198748
H14   H     H_    0.799535 0.434117 0.524401 0.198622
H15   H     H_    0.398347 0.816282 0.476743 0.198639
H16   H     H_    0.593260 0.193710 0.523333 0.198361
N1    N     N_R   0.507794 0.995241 0.931969 -0.338438
N2    N     N_R   0.507662 0.995263 0.068036 -0.338448
N3    N     N_R   0.002221 0.497477 0.932037 -0.338900
N4    N     N_R   0.003068 0.494073 0.068041 -0.338495
N5    N     N_R   0.997245 0.500339 0.431978 -0.338489
N6    N     N_R   0.002944 0.499215 0.568026 -0.338503
N7    N     N_R   0.497330 0.002688 0.432036 -0.338884
N8    N     N_R   0.496460 0.006128 0.568041 -0.338486
O1    O     O_3   0.000000 0.500000 0.750000 -0.513544
O2    O     O_3   0.000000 0.500000 0.250000 -0.515626
O3    O     O_3   0.500000 0.000000 0.750000 -0.515542
O4    O     O_3   0.500000 1.000000 0.250000 -0.513523
O5    O     O_R   0.000000 0.430630 0.807650 -0.625431
O6    O     O_R   0.000000 0.569370 0.192350 -0.575396
O7    O     O_R   0.569370 1.000000 0.807650 -0.649222
O8    O     O_R   0.430630 0.000000 0.192350 -0.576173
O9    O     O_R   0.000000 0.569370 0.807650 -0.622264
O10   O     O_R   0.000000 0.430630 0.192350 -0.647691
O11   O     O_R   0.430630 1.000000 0.807650 -0.576458
O12   O     O_R   0.569370 0.000000 0.192350 -0.649656
O13   O     O_R   0.500000 0.930630 0.307650 -0.623167
O14   O     O_R   0.500000 0.069370 0.692350 -0.646860
O15   O     O_R   0.069370 0.500000 0.307650 -0.577864
O16   O     O_R   0.930630 0.500000 0.692350 -0.577341
O17   O     O_R   0.500000 0.069370 0.307650 -0.624438
O18   O     O_R   0.500000 0.930630 0.692350 -0.576341
O19   O     O_R   0.930630 0.500000 0.307650 -0.648291
O20   O     O_R   0.069370 0.500000 0.692350 -0.649122
O21   O     O_R   0.902350 0.666510 0.764820 -0.634708
O22   O     O_R   0.097650 0.333490 0.235180 -0.631332
O23   O     O_R   0.333490 0.902350 0.764820 -0.629764
O24   O     O_R   0.666510 0.097650 0.235180 -0.636667
O25   O     O_R   0.097650 0.333490 0.764820 -0.625315
O26   O     O_R   0.902350 0.666510 0.235180 -0.613232
O27   O     O_R   0.666510 0.097650 0.764820 -0.636977
O28   O     O_R   0.333490 0.902350 0.235180 -0.627658
O29   O     O_R   0.902350 0.333490 0.235180 -0.636863
O30   O     O_R   0.097650 0.666510 0.764820 -0.632419
O31   O     O_R   0.333490 0.097650 0.235180 -0.618206
O32   O     O_R   0.666510 0.902350 0.764820 -0.637185
O33   O     O_R   0.097650 0.666510 0.235180 -0.629258
O34   O     O_R   0.902350 0.333490 0.764820 -0.635447
O35   O     O_R   0.666510 0.902350 0.235180 -0.628124
O36   O     O_R   0.333490 0.097650 0.764820 -0.616386
O37   O     O_R   0.402350 0.166510 0.264820 -0.631925
O38   O     O_R   0.597650 0.833490 0.735180 -0.610960
O39   O     O_R   0.833490 0.402350 0.264820 -0.636404
O40   O     O_R   0.166510 0.597650 0.735180 -0.635632
O41   O     O_R   0.597650 0.833490 0.264820 -0.628243
O42   O     O_R   0.402350 0.166510 0.735180 -0.633876
O43   O     O_R   0.166510 0.597650 0.264820 -0.630526
O44   O     O_R   0.833490 0.402350 0.735180 -0.628818
O45   O     O_R   0.402350 0.833490 0.735180 -0.630570
O46   O     O_R   0.597650 0.166510 0.264820 -0.633738
O47   O     O_R   0.833490 0.597650 0.735180 -0.615152
O48   O     O_R   0.166510 0.402350 0.264820 -0.617133
O49   O     O_R   0.597650 0.166510 0.735180 -0.635583
O50   O     O_R   0.402350 0.833490 0.264820 -0.634210
O51   O     O_R   0.166510 0.402350 0.735180 -0.631433
O52   O     O_R   0.833490 0.597650 0.264820 -0.636559
O53   O     O_2   0.647486 0.042670 0.931633 -0.523897
O54   O     O_2   0.368042 0.947568 0.068318 -0.510729
O55   O     O_2   0.932818 0.367302 0.931396 -0.519185
O56   O     O_2   0.069858 0.625619 0.068663 -0.510281
O57   O     O_2   0.368216 0.947425 0.931619 -0.511676
O58   O     O_2   0.647389 0.042587 0.068440 -0.523775
O59   O     O_2   0.071734 0.627604 0.931967 -0.516746
O60   O     O_2   0.936514 0.362415 0.068128 -0.524639
O61   O     O_2   0.137572 0.545855 0.431138 -0.511949
O62   O     O_2   0.862584 0.453799 0.568866 -0.511930
O63   O     O_2   0.427923 0.872505 0.431947 -0.516882
O64   O     O_2   0.562886 0.137850 0.568147 -0.522858
O65   O     O_2   0.856870 0.454971 0.432127 -0.523851
O66   O     O_2   0.143357 0.544463 0.567877 -0.522784
O67   O     O_2   0.566605 0.132932 0.431416 -0.519121
O68   O     O_2   0.429769 0.874531 0.568644 -0.512205
Zn1   Zn    Zn3+2 0.900880 0.500000 0.727850 1.078913
Zn2   Zn    Zn3+2 0.099120 0.500000 0.272150 1.079331
Zn3   Zn    Zn3+2 0.500000 0.900880 0.727850 1.080048
Zn4   Zn    Zn3+2 0.500000 0.099120 0.272150 1.045368
Zn5   Zn    Zn3+2 0.099120 0.500000 0.727850 1.035985
Zn6   Zn    Zn3+2 0.900880 0.500000 0.272150 1.027104
Zn7   Zn    Zn3+2 0.500000 0.099120 0.727850 1.028818
Zn8   Zn    Zn3+2 0.500000 0.900880 0.272150 1.054069
Zn9   Zn    Zn3+2 0.400880 0.000000 0.227850 1.079302
Zn10  Zn    Zn3+2 0.599120 0.000000 0.772150 1.026851
Zn11  Zn    Zn3+2 0.000000 0.400880 0.227850 1.029847
Zn12  Zn    Zn3+2 0.000000 0.599120 0.772150 1.047223
Zn13  Zn    Zn3+2 0.599120 0.000000 0.227850 1.034938
Zn14  Zn    Zn3+2 0.400880 0.000000 0.772150 1.078817
Zn15  Zn    Zn3+2 0.000000 0.599120 0.227850 1.079455
Zn16  Zn    Zn3+2 0.000000 0.400880 0.772150 1.052572
I1    I     I_    0.944491 0.680907 0.587132 -0.241649
I2    I     I_    0.056593 0.319009 0.412800 -0.245123
I3    I     I_    0.322549 0.080830 0.588951 -0.251642
I4    I     I_    0.661066 0.903729 0.412911 -0.250709
I5    I     I_    0.058982 0.317665 0.588224 -0.249977
I6    I     I_    0.940354 0.681702 0.411852 -0.244078
I7    I     I_    0.671208 0.927364 0.586458 -0.239547
I8    I     I_    0.334223 0.100050 0.411643 -0.240142
I9    I     I_    0.445342 0.176665 0.086264 -0.250437
I10   I     I_    0.566084 0.815471 0.910888 -0.244131
I11   I     I_    0.828459 0.572967 0.086487 -0.249874
I12   I     I_    0.165317 0.399942 0.911769 -0.240125
I13   I     I_    0.564979 0.815166 0.089117 -0.241020
I14   I     I_    0.444661 0.176376 0.913737 -0.244959
I15   I     I_    0.177017 0.419244 0.088922 -0.240445
I16   I     I_    0.838639 0.596553 0.912786 -0.250228
C145  C     C_2   0.958552 0.654888 0.650495 0.429560
H17   H     H_    0.973595 0.714265 0.641380 0.113596
O69   O     O_2   0.923756 0.656422 0.671639 -0.563163
C146  C     C_2   0.042152 0.345138 0.349455 0.423799
H18   H     H_    0.027323 0.285680 0.358553 0.115571
O70   O     O_2   0.076963 0.343791 0.328313 -0.566087
C147  C     C_2   0.352491 0.060101 0.652044 0.456040
H19   H     H_    0.314163 0.110439 0.644333 0.104512
O71   O     O_2   0.330649 0.026840 0.672348 -0.583627
C148  C     C_2   0.635435 0.917934 0.349590 0.463240
H20   H     H_    0.664063 0.862312 0.357853 0.105250
O72   O     O_2   0.664569 0.946343 0.329461 -0.581365
C149  C     C_2   0.046293 0.348275 0.651523 0.447850
H21   H     H_    0.091633 0.305161 0.643293 0.108077
O73   O     O_2   0.013507 0.329723 0.672210 -0.584386
C150  C     C_2   0.953014 0.651362 0.348542 0.453423
H22   H     H_    0.907453 0.694209 0.356789 0.108707
O74   O     O_2   0.985718 0.670169 0.327864 -0.580874
C151  C     C_2   0.650155 0.945495 0.649784 0.430320
H23   H     H_    0.710132 0.956824 0.640527 0.112616
O75   O     O_2   0.649904 0.909124 0.670673 -0.554264
C152  C     C_2   0.362557 0.082149 0.348549 0.470890
H24   H     H_    0.333558 0.138252 0.356353 0.110913
O76   O     O_2   0.334248 0.052425 0.328479 -0.578597
C153  C     C_2   0.456501 0.152953 0.149772 0.418895
H25   H     H_    0.471264 0.212256 0.140566 0.112457
O77   O     O_2   0.420390 0.154613 0.170700 -0.566157
C154  C     C_2   0.549288 0.847949 0.847780 0.454329
H26   H     H_    0.595989 0.805481 0.855604 0.107603
O78   O     O_2   0.515456 0.829384 0.827245 -0.580702
C155  C     C_2   0.849712 0.554596 0.149803 0.418441
H27   H     H_    0.789700 0.543313 0.140544 0.110938
O79   O     O_2   0.850043 0.590913 0.170702 -0.560171
C156  C     C_2   0.137243 0.417761 0.848653 0.471336
H28   H     H_    0.166167 0.361647 0.856485 0.110807
O80   O     O_2   0.165656 0.447433 0.828600 -0.576964
C157  C     C_2   0.548399 0.847688 0.152227 0.457244
H29   H     H_    0.594831 0.804956 0.144401 0.111179
O81   O     O_2   0.514554 0.829322 0.172766 -0.580749
C158  C     C_2   0.455951 0.152783 0.850236 0.423790
H30   H     H_    0.470539 0.212132 0.859446 0.115222
O82   O     O_2   0.419747 0.154329 0.829312 -0.563407
C159  C     C_2   0.147334 0.439839 0.152021 0.464219
H31   H     H_    0.185604 0.389496 0.144297 0.109937
O83   O     O_2   0.169276 0.473046 0.172330 -0.579193
C160  C     C_2   0.864480 0.582175 0.849487 0.462914
H32   H     H_    0.835874 0.637847 0.857716 0.105419
O84   O     O_2   0.835382 0.553729 0.829348 -0.583044

loop_
_geom_bond_atom_site_label_1
_geom_bond_atom_site_label_2
_ccdc_geom_bond_type
C128  O68   S    
C29   C133  A    
C4    C148  S    
C19   C20   A    
C21   C137  A    
C42   C58   A    
C68   O8    A    
C24   C140  A    
C45   C57   A    
C150  H22   S    
C82   O30   A    
O17   Zn4   S    
C42   I2    S    
O23   Zn14  S    
C2    C90   A    
C58   N5    S    
C77   O25   A    
C35   C139  A    
C124  N8    A    
C65   C96   S    
C118  N2    A    
C33   C137  A    
C146  H18   S    
C67   C94   S    
C151  O75   D    
C8    C92   A    
C69   C92   S    
C86   O34   A    
O44   Zn1   S    
C26   C130  A    
O13   Zn8   S    
C81   O39   A    
O2    Zn2   S    
C100  C109  T    
C113  C133  A    
C21   C22   A    
C23   C143  A    
O20   Zn5   S    
C20   C132  A    
O41   Zn8   S    
C104  C105  T    
O5    Zn16  S    
C80   O28   A    
C71   O15   A    
O40   Zn5   S    
C72   O16   A    
C97   C112  T    
C44   I4    S    
C57   N6    S    
C160  H32   S    
C99   C110  T    
O51   Zn5   S    
O46   Zn4   S    
C113  O53   S    
C124  O64   S    
C1    C41   A    
C154  H26   S    
C76   C107  S    
C83   C100  S    
C145  O69   D    
C17   C133  A    
C18   C130  A    
C119  N3    A    
C69   O17   A    
C48   I8    S    
C71   O19   A    
C11   C155  S    
C127  O67   S    
C33   C38   A    
O48   Zn2   S    
C35   C40   A    
C81   O29   A    
O4    Zn9   S    
C53   I13   S    
O29   Zn11  S    
C36   C140  A    
C115  N3    A    
C114  N2    A    
C113  N1    A    
O18   Zn3   S    
C84   O38   A    
C10   C94   A    
C66   O6    A    
C19   C135  A    
C5    C89   A    
C69   O13   A    
C66   C95   S    
C46   I6    S    
C75   O23   A    
C70   C91   S    
O14   Zn7   S    
C9    C153  S    
C73   C110  S    
C118  O58   S    
C77   C106  S    
C35   H11   S    
C33   H9    S    
O6    Zn15  S    
C79   O49   A    
C62   N1    S    
C1    C145  S    
C41   I1    S    
O4    Zn13  S    
C79   O27   A    
C37   H13   S    
C26   H2    S    
C86   C97   S    
C53   C61   A    
C157  O81   D    
C55   C63   A    
C119  C131  A    
C23   C24   A    
C56   C64   A    
O47   Zn1   S    
O50   Zn8   S    
C117  C129  A    
C34   C138  A    
C43   C59   A    
C74   O22   A    
C46   C58   A    
O19   Zn6   S    
C85   O43   A    
C158  O82   D    
C156  O80   D    
C16   C96   A    
C60   N7    S    
C121  O61   S    
C61   N2    S    
C9    C49   A    
O30   Zn12  S    
O11   Zn14  S    
C77   O51   A    
C6    C90   A    
C51   I11   S    
C75   O45   A    
C88   O36   A    
C28   C132  A    
C15   C55   A    
O37   Zn4   S    
C125  N5    A    
C16   C56   A    
C153  H25   S    
C76   O24   A    
C31   H7    S    
C32   H8    S    
C22   C142  A    
C17   C18   A    
C114  C134  A    
C102  C107  T    
C20   C136  A    
O4    Zn4   S    
C159  O83   D    
C47   I7    S    
C10   C154  S    
O3    Zn7   S    
C36   C39   A    
C73   O47   A    
O1    Zn5   S    
C3    C147  S    
C149  O73   D    
C121  N5    A    
C150  O74   D    
C128  C140  A    
C83   O37   A    
C71   C90   S    
C115  C135  A    
C2    C42   A    
C18   C134  A    
O1    Zn12  S    
C126  O66   S    
C7    C151  S    
C70   O18   A    
O10   Zn11  S    
C76   O46   A    
C11   C95   A    
O4    Zn8   S    
C146  O70   D    
C148  H20   S    
C88   O42   A    
C117  O57   S    
O28   Zn9   S    
C34   C37   A    
C147  H19   S    
C16   C160  S    
C37   C141  A    
C79   C112  S    
C13   C157  S    
C115  O55   S    
C86   O44   A    
O42   Zn7   S    
O15   Zn2   S    
C15   C95   A    
C30   H6    S    
C41   C57   A    
C160  O84   D    
C3    C91   A    
C152  H24   S    
C78   O26   A    
O25   Zn16  S    
C78   O52   A    
O35   Zn13  S    
C70   O14   A    
C67   O7    A    
O33   Zn15  S    
O38   Zn3   S    
C120  O60   S    
C85   O33   A    
C74   O48   A    
C101  C108  T    
C154  O78   D    
C75   C108  S    
O1    Zn1   S    
C145  H17   S    
O21   Zn12  S    
C87   O41   A    
C64   N3    S    
C87   O35   A    
C12   C52   A    
O2    Zn6   S    
C13   C53   A    
C34   H10   S    
C63   N4    S    
C52   I12   S    
C28   H4    S    
C49   C61   A    
C121  C141  A    
C51   C63   A    
C38   H14   S    
C31   C135  A    
C52   C64   A    
O39   Zn6   S    
C32   C136  A    
C49   I9    S    
C54   C62   A    
C125  C137  A    
C5    C45   A    
C13   C93   A    
C7    C47   A    
C116  O56   S    
C155  H27   S    
C8    C48   A    
C118  C130  A    
C151  H23   S    
C7    C91   A    
O43   Zn2   S    
C24   C144  A    
O2    Zn11  S    
C10   C50   A    
O16   Zn1   S    
C2    C146  S    
C36   H12   S    
C50   I10   S    
C25   C30   A    
C39   H15   S    
C27   C32   A    
C84   C99   S    
C40   H16   S    
C28   C31   A    
C14   C158  S    
C126  N6    A    
C45   I5    S    
O8    Zn9   S    
C116  C136  A    
C4    C44   A    
C22   C138  A    
C21   C141  A    
C27   H3    S    
C67   O11   A    
O52   Zn6   S    
C44   C60   A    
C80   C111  S    
C11   C51   A    
C87   C104  S    
O9    Zn12  S    
C123  O63   S    
C157  H29   S    
O26   Zn15  S    
C12   C96   A    
C14   C94   A    
C73   O21   A    
C59   N8    S    
C4    C92   A    
O34   Zn16  S    
C159  H31   S    
C122  N6    A    
C27   C131  A    
C25   C129  A    
C74   C109  S    
C119  O59   S    
C8    C152  S    
C84   O32   A    
C66   O10   A    
O3    Zn14  S    
C3    C43   A    
O22   Zn11  S    
C54   I14   S    
C65   O9    A    
C78   C105  S    
C5    C149  S    
O1    Zn16  S    
C23   C139  A    
C147  O71   D    
C80   O50   A    
O24   Zn13  S    
C72   O20   A    
C85   C98   S    
O7    Zn10  S    
C123  N7    A    
C38   C142  A    
C127  C139  A    
C56   I16   S    
C30   C134  A    
C48   C60   A    
C81   C102  S    
C19   C131  A    
C122  O62   S    
O27   Zn10  S    
C47   C59   A    
O3    Zn10  S    
C17   C129  A    
C55   I15   S    
O32   Zn10  S    
C120  N4    A    
C117  N1    A    
C149  H21   S    
C68   O12   A    
C114  O54   S    
O49   Zn7   S    
O12   Zn13  S    
C155  O79   D    
C12   C156  S    
C14   C54   A    
C39   C143  A    
C40   C144  A    
C50   C62   A    
C148  O72   D    
C122  C142  A    
C83   O31   A    
C9    C93   A    
C88   C103  S    
C158  H30   S    
C43   I3    S    
C156  H28   S    
C126  C138  A    
C1    C89   A    
C98   C111  T    
C6    C46   A    
C65   O5    A    
C120  C132  A    
C116  N4    A    
C6    C150  S    
C82   O40   A    
O45   Zn3   S    
C68   C93   S    
O36   Zn14  S    
C153  O77   D    
C72   C89   S    
O3    Zn3   S    
C82   C101  S    
O2    Zn15  S    
C103  C106  T    
C152  O76   D    
C29   H5    S    
C125  O65   S    
O31   Zn9   S    
C26   C29   A    
C127  N7    A    
C123  C143  A    
C128  N8    A    
C124  C144  A    
C25   H1    S    
C15   C159  S    
