data_mof_unit_pretest_1585.cif
_audit_creation_date              2012-12-11T16:03:07-0500
_audit_creation_method            fapswitch 2.2
_symmetry_space_group_name_H-M    P1
_symmetry_Int_Tables_number       1
_space_group_crystal_system       triclinic
_cell_length_a                    6.945308
_cell_length_b                    23.167983
_cell_length_c                    25.110061
_cell_angle_alpha                 106.629127
_cell_angle_beta                  89.657133
_cell_angle_gamma                 90.435204
_cell_volume                      3871.30493514

loop_
_atom_site_label
_atom_site_type_symbol
_atom_type_description
_atom_site_fract_x
_atom_site_fract_y
_atom_site_fract_z
_atom_type_partial_charge
O1    O     O_R   0.494320 0.441930 0.440920 -0.519646
O2    O     O_R   0.820780 0.446390 0.546550 -0.533636
O3    O     O_R   0.994330 0.558070 0.559080 -0.520313
C1    C     C_R   0.652220 0.435448 0.564329 0.702459
O4    O     O_R   0.823820 0.435090 0.440550 -0.522751
O5    O     O_R   0.997390 0.546680 0.452330 -0.536309
C2    C     C_R   0.654926 0.416682 0.418568 0.721616
O6    O     O_R   0.491260 0.453320 0.547670 -0.536128
O7    O     O_3   0.661870 0.536630 0.503990 -0.358794
V1    V     V_3+5 0.935460 0.493210 0.499260 1.401097
O8    O     O_R   0.327300 0.553610 0.453450 -0.534216
C3    C     C_R   0.159365 0.566743 0.437591 0.700673
O9    O     O_R   0.324250 0.564910 0.559450 -0.523234
C4    C     C_R   0.155271 0.583303 0.581445 0.720453
V2    V     V_3+5 0.435850 0.506790 0.500740 1.399848
O10   O     O_3   0.159570 0.463370 0.496010 -0.358660
C5    C     C_1   0.144546 0.635355 0.633458 -0.214009
C6    C     C_1   0.133067 0.678159 0.676763 0.004956
C7    C     C_1   0.118085 0.728746 0.728222 0.003380
C8    C     C_1   0.105171 0.771358 0.771637 0.003110
C9    C     C_1   0.090204 0.821925 0.823110 0.005161
C10   C     C_1   0.078745 0.864697 0.866440 -0.211881
C11   C     C_R   0.248303 0.884024 0.123549 -0.158432
H1    H     H_    0.381127 0.903238 0.113257 0.119507
C12   C     C_R   0.255788 0.848246 0.159984 -0.132355
H2    H     H_    0.394274 0.840888 0.176436 0.133907
C13   C     C_R   0.087319 0.822344 0.174888 0.020381
C14   C     C_R   0.911070 0.833152 0.152199 -0.131299
H3    H     H_    0.778348 0.814089 0.162728 0.137854
C15   C     C_R   0.903405 0.869216 0.115942 -0.158964
H4    H     H_    0.764932 0.876717 0.099558 0.120752
C16   C     C_R   0.071969 0.895204 0.101123 -0.053066
N1    N     N_R   0.938205 0.754407 0.224425 -0.277670
N2    N     N_R   0.946867 0.720902 0.259640 -0.279194
C17   C     C_R   0.113599 0.716380 0.286255 0.524327
N3    N     N_R   0.271076 0.746726 0.275885 -0.279843
N4    N     N_R   0.262583 0.780033 0.240602 -0.282612
C18   C     C_R   0.096013 0.784717 0.214078 0.514312
C19   C     C_R   0.289094 0.681867 0.358764 -0.125426
H5    H     H_    0.406370 0.711886 0.355743 0.144113
C20   C     C_R   0.304580 0.646826 0.396051 0.143536
C21   C     C_R   0.151868 0.606781 0.400104 -0.064725
C22   C     C_R   0.987038 0.604906 0.367176 -0.197214
H6    H     H_    0.868534 0.574831 0.368820 0.127593
C23   C     C_R   0.973190 0.640641 0.330847 -0.137536
H7    H     H_    0.844150 0.637412 0.306145 0.148501
C24   C     C_R   0.124783 0.679156 0.325776 -0.021301
C25   C     C_R   0.476202 0.364682 0.607276 -0.200823
H8    H     H_    0.355180 0.365435 0.580585 0.131752
C26   C     C_R   0.462871 0.328968 0.643814 -0.137228
H9    H     H_    0.331372 0.303885 0.644895 0.144268
C27   C     C_R   0.619639 0.324109 0.677208 -0.014286
C28   C     C_R   0.787602 0.357165 0.674670 -0.125987
H10   H     H_    0.907888 0.354449 0.701140 0.139620
C29   C     C_R   0.801088 0.394950 0.639703 0.153087
C30   C     C_R   0.644282 0.398018 0.604176 -0.065519
N5    N     N_R   0.771692 0.257398 0.725746 -0.278017
N6    N     N_R   0.765534 0.222724 0.759947 -0.277181
C31   C     C_R   0.598343 0.214672 0.785342 0.542971
N7    N     N_R   0.437025 0.242289 0.774579 -0.272938
N8    N     N_R   0.442666 0.276374 0.739773 -0.276751
C32   C     C_R   0.610448 0.284840 0.714784 0.512954
C33   C     C_R   0.465985 0.189464 0.869229 -0.212148
H11   H     H_    0.376922 0.229256 0.877590 0.154566
C34   C     C_R   0.457966 0.153084 0.905585 0.410264
C35   C     C_R   0.580085 0.102443 0.896787 -0.156230
C36   C     C_R   0.703470 0.087793 0.849419 0.088433
C37   C     C_R   0.711813 0.125857 0.814659 -0.146113
H12   H     H_    0.807260 0.114614 0.778893 0.153724
C38   C     C_R   0.592220 0.176256 0.823699 -0.075159
C39   C     C_1   0.643986 0.364659 0.366534 -0.211640
C40   C     C_1   0.632550 0.321890 0.323199 0.006319
C41   C     C_1   0.617727 0.271352 0.271702 0.005620
C42   C     C_1   0.604968 0.228772 0.228257 0.006657
C43   C     C_1   0.590160 0.178224 0.176768 0.009437
C44   C     C_1   0.578758 0.135436 0.133448 -0.201880
O11   O     O_R   0.731800 0.046750 0.952380 -0.539112
O12   O     O_R   0.399050 0.064920 0.059460 -0.518310
O13   O     O_R   0.225670 0.953300 0.047660 -0.537404
C45   C     C_R   0.567908 0.083384 0.081439 0.732321
O14   O     O_R   0.402270 0.053620 0.953470 -0.521250
O15   O     O_R   0.228900 0.941920 0.940910 -0.522795
C46   C     C_R   0.571333 0.064840 0.936145 0.751491
O16   O     O_R   0.728560 0.058130 0.059130 -0.523192
O17   O     O_3   0.561250 0.963410 0.996040 -0.364996
V3    V     V_3+5 0.287590 0.006790 0.000740 1.431623
O18   O     O_R   0.898990 0.935020 0.940500 -0.526551
C47   C     C_R   0.067992 0.916697 0.918495 0.716309
O19   O     O_R   0.895770 0.946320 0.046490 -0.539365
C48   C     C_R   0.063995 0.934152 0.063065 0.690203
V4    V     V_3+5 0.787210 0.993120 0.999190 1.398957
O20   O     O_3   0.063420 0.036580 0.003960 -0.355446
C49   C     C_3   0.981058 0.432735 0.643079 -0.752303
H13   H     H_    0.077948 0.428902 0.676933 0.200662
H14   H     H_    0.063377 0.417691 0.603668 0.216409
H15   H     H_    0.942406 0.480956 0.651552 0.198913
O21   O     O_3   0.344745 0.170356 0.953044 -0.555202
C50   C     C_3   0.148931 0.161766 0.937975 -0.160858
H16   H     H_    0.060781 0.170889 0.976442 0.159984
H17   H     H_    0.119345 0.114451 0.913401 0.131497
H18   H     H_    0.101721 0.193472 0.914819 0.128497
C51   C     C_3   0.819346 0.030503 0.831876 -0.764484
H19   H     H_    0.974865 0.041079 0.838553 0.198101
H20   H     H_    0.776862 0.997186 0.853827 0.203470
H21   H     H_    0.796331 0.008088 0.786939 0.208095
C52   C     C_3   0.483039 0.654657 0.431481 -0.739857
H22   H     H_    0.577066 0.691632 0.426152 0.198456
H23   H     H_    0.442269 0.665953 0.476094 0.204214
H24   H     H_    0.569393 0.612824 0.419590 0.215832

loop_
_geom_bond_atom_site_label_1
_geom_bond_atom_site_label_2
_ccdc_geom_bond_type
C29   C30   A    
C33   C34   A    
C49   H13   S    
O18   V4    S    
C20   C21   A    
C7    C8    T    
C1    O6    A    
C17   C24   S    
O21   C50   S    
O17   V4    S    
O15   V3    S    
N5    C32   A    
C19   C20   A    
C28   H10   S    
C14   H3    S    
C6    C7    S    
C2    C39   S    
C15   H4    S    
O12   C45   A    
C52   H22   S    
O11   C46   A    
C13   C18   S    
V2    O10   S    
C51   H21   S    
N2    C17   A    
C41   C42   T    
O13   C48   A    
C3    C21   S    
C35   C46   S    
O8    V2    S    
C16   C48   S    
C17   N3    A    
C37   H12   S    
N3    N4    A    
C26   C27   A    
C11   H1    S    
O1    V2    S    
O16   V4    S    
C10   C47   S    
O19   V4    S    
O7    V1    S    
O14   V3    S    
C29   C49   S    
O12   V3    S    
C28   C29   A    
C35   C36   A    
C31   N7    A    
C49   H14   S    
O9    C4    A    
C1    C30   S    
C4    C5    S    
N8    C32   A    
O5    C3    A    
O14   C46   A    
C26   H9    S    
C23   C24   A    
C20   C52   S    
C36   C37   A    
C42   C43   S    
V4    O20   S    
O4    C2    A    
C12   H2    S    
O17   V3    S    
N7    N8    A    
O2    C1    A    
C43   C44   T    
N4    C18   A    
C33   C38   A    
C5    C6    T    
C51   H20   S    
C22   C23   A    
O3    C4    A    
C25   H8    S    
C34   C35   A    
C49   H15   S    
C50   H17   S    
O9    V2    S    
C22   H6    S    
C12   C13   A    
C21   C22   A    
O2    V1    S    
C19   H5    S    
C27   C28   A    
C19   C24   A    
C25   C30   A    
O11   V4    S    
O1    C2    A    
C44   C45   S    
C40   C41   S    
O5    V1    S    
O8    C3    A    
O6    V2    S    
C50   H18   S    
N1    C18   A    
C11   C16   A    
C14   C15   A    
N6    C31   A    
C34   O21   S    
O4    V1    S    
O3    V1    S    
C27   C32   S    
C45   O16   A    
C15   C16   A    
N5    N6    A    
V1    O10   S    
C52   H23   S    
O15   C47   A    
C25   C26   A    
N1    N2    A    
C11   C12   A    
O7    V2    S    
C51   H19   S    
C31   C38   S    
C33   H11   S    
C23   H7    S    
C39   C40   T    
C8    C9    S    
O18   C47   A    
C37   C38   A    
C50   H16   S    
C13   C14   A    
V3    O20   S    
O19   C48   A    
C9    C10   T    
O13   V3    S    
C36   C51   S    
C52   H24   S    
