data_mof_unit_pretest_115.cif
_audit_creation_date              2012-12-11T14:35:56-0500
_audit_creation_method            fapswitch 2.2
_symmetry_space_group_name_H-M    P1
_symmetry_Int_Tables_number       1
_space_group_crystal_system       triclinic
_cell_length_a                    13.478628
_cell_length_b                    13.480367
_cell_length_c                    27.528978
_cell_angle_alpha                 90.548781
_cell_angle_beta                  89.868562
_cell_angle_gamma                 60.007097
_cell_volume                      4331.76347901

loop_
_atom_site_label
_atom_site_type_symbol
_atom_type_description
_atom_site_fract_x
_atom_site_fract_y
_atom_site_fract_z
_atom_type_partial_charge
C1    C     C_R   0.619992 0.101285 0.570324 0.549214
C2    C     C_1   0.648950 0.705337 0.658555 -0.054105
C3    C     C_3   0.139343 0.083873 0.741052 -0.111536
C4    C     C_R   0.599446 0.779721 0.568852 0.543550
C5    C     C_3   0.232765 0.059047 0.779512 -0.120558
C6    C     C_1   0.097114 0.201419 0.901832 0.006674
C7    C     C_1   0.229757 0.137904 0.617681 -0.006325
C8    C     C_3   0.053978 0.193952 0.769516 -0.125360
C9    C     C_3   0.147810 0.168848 0.807170 0.057257
C10   C     C_3   0.094301 0.264769 0.739879 -0.084686
C11   C     C_3   0.179227 0.154965 0.712262 0.033222
C12   C     C_1   0.630581 0.732568 0.616543 -0.010879
C13   C     C_3   0.187584 0.239285 0.778080 0.121746
C14   C     C_3   0.273168 0.129813 0.749837 -0.090034
C15   C     C_1   0.125003 0.182147 0.859632 -0.022765
C16   C     C_R   0.277706 0.121823 0.569739 0.550761
C17   C     C_1   0.201875 0.146967 0.659848 -0.048669
C18   C     C_3   0.732583 0.198286 0.738567 -0.108498
C19   C     C_3   0.632916 0.283568 0.771976 -0.098670
C20   C     C_1   0.691640 0.208142 0.902852 -0.005831
C21   C     C_1   0.634725 0.133262 0.618544 -0.009384
C22   C     C_3   0.762364 0.101554 0.775487 -0.103307
C23   C     C_3   0.740363 0.557445 0.767409 -0.100010
C24   C     C_3   0.662561 0.186506 0.808156 0.053337
C25   C     C_3   0.679645 0.070312 0.749578 -0.107351
C26   C     C_3   0.650015 0.167307 0.713362 0.046011
C27   C     C_3   0.579980 0.155485 0.782978 -0.091498
C28   C     C_R   0.622415 0.099310 0.431145 0.548496
C29   C     C_3   0.550084 0.252302 0.745958 -0.085513
C30   C     C_1   0.674599 0.197251 0.860643 -0.044027
C31   C     C_1   0.642899 0.152153 0.660847 -0.052852
C32   C     C_R   0.731626 0.709272 0.358009 -0.132301
C33   C     C_R   0.741879 0.692883 0.307727 0.021637
C34   C     C_3   0.680060 0.654222 0.805443 0.053079
C35   C     C_R   0.758225 0.668747 0.206460 0.020754
C36   C     C_R   0.848424 0.665097 0.233089 -0.126339
C37   C     C_R   0.839619 0.678640 0.283410 -0.129040
C38   C     C_R   0.770750 0.645112 0.156707 -0.131650
C39   C     C_R   0.682575 0.642382 0.131147 -0.012469
C40   C     C_R   0.601703 0.776294 0.430117 0.542166
C41   C     C_R   0.551108 0.710618 0.355886 -0.105590
C42   C     C_R   0.554143 0.704320 0.305385 -0.005703
C43   C     C_R   0.650701 0.695451 0.281157 0.036422
C44   C     C_R   0.460602 0.712443 0.278822 0.104497
C45   C     C_3   0.627285 0.608045 0.738475 -0.102458
C46   C     C_R   0.463472 0.713404 0.227745 0.098849
C47   C     C_R   0.563629 0.696632 0.203723 -0.003574
C48   C     C_R   0.656974 0.687966 0.230455 0.036831
C49   C     C_R   0.576286 0.679632 0.153601 -0.110855
C50   C     C_R   0.633772 0.723008 0.381828 -0.010478
C51   C     C_R   0.177577 0.085102 0.361421 0.074324
C52   C     C_R   0.280114 0.119914 0.430436 0.568374
C53   C     C_R   0.156670 0.091830 0.310946 0.030666
C54   C     C_R   0.111734 0.112852 0.210700 0.017068
C55   C     C_R   0.077597 0.050023 0.239487 -0.104264
C56   C     C_3   0.663229 0.683592 0.710837 0.048671
C57   C     C_R   0.099199 0.040092 0.289148 -0.078660
C58   C     C_R   0.081777 0.131143 0.162076 -0.114648
C59   C     C_R   0.105570 0.204167 0.134468 -0.001520
C60   C     C_R   0.273911 0.196287 0.350444 -0.145228
C61   C     C_R   0.251985 0.205376 0.301382 0.000525
C62   C     C_R   0.194055 0.152669 0.281228 0.042338
C63   C     C_R   0.287905 0.266514 0.272284 -0.119309
C64   C     C_3   0.776138 0.633470 0.738966 -0.094389
C65   C     C_R   0.263356 0.278919 0.223031 -0.121777
C66   C     C_R   0.203396 0.229455 0.202448 0.016262
C67   C     C_3   0.567275 0.704339 0.777240 -0.099324
C68   C     C_R   0.170996 0.163718 0.231350 0.065935
C69   C     C_R   0.169873 0.249703 0.154080 -0.132552
C70   C     C_R   0.238293 0.136402 0.380649 0.011806
C71   C     C_R   0.570644 0.238942 0.363620 -0.140465
C72   C     C_R   0.577244 0.257673 0.314066 0.003962
C73   C     C_R   0.586591 0.289667 0.213697 0.005213
C74   C     C_R   0.511077 0.381432 0.243797 -0.130265
C75   C     C_R   0.505745 0.365252 0.293636 -0.136973
C76   C     C_3   0.716064 0.729804 0.777868 -0.097220
C77   C     C_R   0.597833 0.305768 0.164294 -0.134853
C78   C     C_3   0.602984 0.780328 0.748897 -0.104818
C79   C     C_R   0.678482 0.213759 0.135547 -0.006610
C80   C     C_R   0.726377 0.042528 0.353523 -0.113790
C81   C     C_R   0.730106 0.058088 0.304101 0.009960
C82   C     C_R   0.654772 0.165650 0.284048 0.064460
C83   C     C_R   0.805436 0.966141 0.274291 -0.125477
C84   C     C_R   0.805620 0.980161 0.224414 -0.132108
C85   C     C_R   0.732761 0.087207 0.204155 0.008412
C86   C     C_R   0.657274 0.180758 0.233905 0.064504
C87   C     C_R   0.739551 0.103629 0.154961 -0.131566
C88   C     C_1   0.697691 0.607640 0.900026 -0.006900
C89   C     C_1   0.688954 0.633397 0.857818 -0.048574
C90   C     C_R   0.643477 0.130472 0.383104 0.002596
C91   C     C_R   0.049335 0.236224 0.949746 0.547434
C92   C     C_R   0.711724 0.562874 0.948121 0.544618
C93   C     C_R   0.722320 0.225559 0.950818 0.545536
C94   C     C_R   0.047809 0.244576 0.088280 0.547598
C95   C     C_R   0.707110 0.576435 0.085907 0.544301
C96   C     C_R   0.718255 0.234237 0.089370 0.545440
Cr1   Cr    Cr6+3 0.417550 0.169090 0.500530 1.033991
Cr2   Cr    Cr6+3 0.669180 0.913420 0.499920 1.038480
Cr3   Cr    Cr6+3 0.413260 0.917540 0.499520 1.073595
Cr4   Cr    Cr6+3 0.909170 0.177380 0.020380 1.033037
Cr5   Cr    Cr6+3 0.912710 0.429210 0.018220 1.040239
Cr6   Cr    Cr6+3 0.657170 0.432570 0.019030 1.042370
H1    H     H_    0.752116 0.780122 0.794576 0.111754
H2    H     H_    0.852164 0.619347 0.138988 0.129488
H3    H     H_    0.861995 0.603897 0.722669 0.118693
H4    H     H_    0.796456 0.717300 0.378074 0.125011
H5    H     H_    0.926102 0.650803 0.215031 0.116820
H6    H     H_    0.909863 0.676420 0.303393 0.114973
H7    H     H_    0.508249 0.681633 0.132321 0.176226
H8    H     H_    0.478449 0.717333 0.375298 0.186673
H9    H     H_    0.031829 0.095580 0.146943 0.143851
H10   H     H_    0.031698 0.010696 0.223782 0.134302
H11   H     H_    0.546161 0.872402 0.740721 0.101044
H12   H     H_    0.037324 0.349299 0.723315 0.118762
H13   H     H_    0.069952 0.991882 0.309887 0.174337
H14   H     H_    0.188875 0.305101 0.132459 0.128011
H15   H     H_    0.289214 0.328923 0.201310 0.121894
H16   H     H_    0.332849 0.306759 0.287891 0.125641
H17   H     H_    0.322662 0.233922 0.364905 0.141891
H18   H     H_    0.550278 0.390969 0.149246 0.143249
H19   H     H_    0.506722 0.306880 0.386502 0.125674
H20   H     H_    0.456577 0.465614 0.228851 0.159768
H21   H     H_    0.445925 0.436697 0.316195 0.150237
H22   H     H_    0.800470 0.032092 0.132615 0.133717
H23   H     H_    0.963549 0.220201 0.778159 0.103257
H24   H     H_    0.481364 0.733919 0.793488 0.109762
H25   H     H_    0.864627 0.908150 0.201851 0.119198
H26   H     H_    0.863623 0.883321 0.289542 0.120175
H27   H     H_    0.782793 0.958255 0.368118 0.141649
H28   H     H_    0.591196 0.557695 0.721823 0.109555
H29   H     H_    0.797171 0.465386 0.775619 0.105072
H30   H     H_    0.289852 0.974701 0.796186 0.109260
H31   H     H_    0.118980 0.020178 0.725193 0.117946
H32   H     H_    0.363564 0.103869 0.741272 0.109758
H33   H     H_    0.613552 0.371611 0.781758 0.111329
H34   H     H_    0.795178 0.215944 0.719937 0.105243
H35   H     H_    0.462788 0.314499 0.733189 0.141557
H36   H     H_    0.517462 0.137740 0.801619 0.131496
H37   H     H_    0.699041 0.982234 0.739834 0.107034
H38   H     H_    0.849769 0.039315 0.788149 0.112496
I1    I     I_    0.227788 0.362344 0.807076 -0.442275
I2    I     I_    0.315958 0.739459 0.187331 -0.425414
I3    I     I_    0.313670 0.723906 0.315179 -0.398084
I4    I     I_    0.111364 0.006752 0.409142 -0.344891
O1    O     O_R   0.301710 0.195650 0.554160 -0.503622
O2    O     O_R   0.635520 0.542770 0.964420 -0.504052
O3    O     O_R   0.665950 0.325030 0.970100 -0.490920
O4    O     O_R   0.522390 0.158990 0.550460 -0.494328
O5    O     O_R   0.816620 0.158530 0.074540 -0.522145
O6    O     O_R   0.004460 0.188870 0.069750 -0.503110
O7    O     O_R   0.025800 0.341780 0.072300 -0.514665
O8    O     O_R   0.807650 0.528950 0.067500 -0.501099
O9    O     O_R   0.633420 0.550490 0.071810 -0.515545
O10   O     O_R   0.664000 0.332180 0.069640 -0.497202
O11   O     O_3   0.826350 0.346390 0.019210 -0.252069
O12   O     O_R   0.658900 0.818120 0.449760 -0.503643
O13   O     O_R   0.694390 0.003530 0.554040 -0.500047
O14   O     O_R   0.657700 0.819660 0.549320 -0.495496
O15   O     O_R   0.501930 0.803280 0.552920 -0.502789
O16   O     O_R   0.318170 0.023580 0.549580 -0.487725
O17   O     O_R   0.303010 0.193990 0.446760 -0.525986
O18   O     O_R   0.523600 0.157450 0.450900 -0.505962
O19   O     O_R   0.695690 0.001860 0.446640 -0.512383
O20   O     O_R   0.503220 0.801620 0.445520 -0.505040
O21   O     O_R   0.319370 0.022040 0.450020 -0.460906
O22   O     O_3   0.499990 0.000010 0.499990 -0.259868
O23   O     O_R   0.818720 0.150820 0.967160 -0.506935
O24   O     O_R   0.006410 0.181720 0.970200 -0.497934
O25   O     O_R   0.027890 0.334070 0.964920 -0.492939
O26   O     O_R   0.809600 0.521790 0.967960 -0.492335

loop_
_geom_bond_atom_site_label_1
_geom_bond_atom_site_label_2
_ccdc_geom_bond_type
C66   C68   A    
C20   C93   S    
C63   C65   A    
C69   H14   S    
C1    C21   S    
C23   C45   S    
Cr3   O15   S    
C55   H10   S    
C27   C29   S    
C41   C42   A    
C35   C36   A    
C18   C26   S    
C24   C27   S    
C83   H26   S    
C9    C15   S    
C77   H18   S    
C2    C12   T    
C79   C87   A    
Cr2   O19   S    
C28   O18   A    
C64   H3    S    
C47   C49   A    
C20   C30   T    
C51   I4    S    
C21   C31   T    
Cr4   O23   S    
C75   H21   S    
C36   C37   A    
C25   H37   S    
C76   C78   S    
C40   O20   A    
C38   C39   A    
Cr6   O3    S    
C11   C14   S    
C66   C69   A    
C54   C68   A    
Cr5   O11   S    
C19   H33   S    
Cr1   O22   S    
C22   H38   S    
C56   C78   S    
C60   H17   S    
C18   C19   S    
C73   C74   A    
C61   C63   A    
C9    C13   S    
C38   H2    S    
C6    C15   T    
C54   C55   A    
C5    H30   S    
C96   O10   A    
Cr2   O14   S    
C45   C56   S    
C92   O26   A    
C8    C9    S    
C7    C17   T    
C22   C25   S    
C45   C67   S    
C56   C64   S    
C18   H34   S    
C59   C94   S    
C13   I1    S    
C4    C12   S    
C43   C48   A    
Cr6   O10   S    
C10   H12   S    
C52   O17   A    
Cr3   O22   S    
C76   H1    S    
C85   C87   A    
C45   H28   S    
C32   H4    S    
C13   C14   S    
C36   H5    S    
C67   C78   S    
C42   C44   A    
C72   C75   A    
C35   C48   A    
C81   C83   A    
C44   C46   A    
C81   C82   A    
C77   C79   A    
Cr2   O12   S    
C27   H36   S    
C74   C75   A    
C91   O25   A    
C92   O2    A    
C58   H9    S    
C33   C43   A    
C88   C92   S    
C91   O24   A    
C35   C38   A    
C3    C11   S    
C84   C85   A    
C37   H6    S    
C57   H13   S    
C3    C8    S    
C67   H24   S    
C63   H16   S    
C53   C57   A    
C14   H32   S    
Cr4   O6    S    
C58   C59   A    
C85   C86   A    
Cr5   O7    S    
C33   C37   A    
C60   C61   A    
C3    H31   S    
C5    C9    S    
C52   O21   A    
C53   C62   A    
C40   O12   A    
C47   C48   A    
C74   H20   S    
Cr2   O13   S    
C60   C70   A    
C23   C34   S    
C39   C95   S    
C64   C76   S    
C23   H29   S    
Cr5   O26   S    
C25   C26   S    
C88   C89   T    
Cr5   O25   S    
Cr6   O9    S    
C32   C50   A    
C5    C14   S    
Cr2   O22   S    
C59   C69   A    
Cr4   O11   S    
C23   C64   S    
C51   C70   A    
C65   C66   A    
Cr1   O17   S    
C41   H8    S    
C55   C57   A    
Cr1   O4    S    
C22   C24   S    
C83   C84   A    
C78   H11   S    
C94   O6    A    
C42   C43   A    
C19   C29   S    
C41   C50   A    
C49   H7    S    
C54   C58   A    
C46   C47   A    
C11   C17   S    
C73   C77   A    
C80   H27   S    
C39   C49   A    
C18   C22   S    
Cr1   O1    S    
C71   H19   S    
C7    C16   S    
C80   C81   A    
C3    C5    S    
C10   C13   S    
C34   C67   S    
C28   C90   S    
C79   C96   S    
Cr4   O5    S    
C25   C27   S    
C29   H35   S    
Cr5   O8    S    
C62   C68   A    
Cr4   O24   S    
C32   C33   A    
C1    O13   A    
C19   C24   S    
C94   O7    A    
C34   C89   S    
C71   C72   A    
C82   C86   A    
Cr6   O2    S    
C87   H22   S    
C71   C90   A    
C95   O9    A    
C84   H25   S    
C44   I3    S    
C40   C50   S    
C96   O5    A    
C46   I2    S    
C93   O3    A    
C80   C90   A    
C61   C62   A    
C24   C30   S    
C73   C86   A    
C52   C70   S    
C10   C11   S    
Cr3   O20   S    
C4    O15   A    
C4    O14   A    
C8    H23   S    
C26   C31   S    
C16   O16   A    
C93   O23   A    
C26   C29   S    
C8    C10   S    
Cr1   O18   S    
C65   H15   S    
C16   O1    A    
C1    O4    A    
C2    C56   S    
C95   O8    A    
C51   C53   A    
Cr3   O16   S    
Cr6   O11   S    
C72   C82   A    
C6    C91   S    
C28   O19   A    
C34   C76   S    
Cr3   O21   S    
