data_mof_unit_pretest_29.cif
_audit_creation_date              2012-12-10T17:52:23-0500
_audit_creation_method            fapswitch 2.2
_symmetry_space_group_name_H-M    P1
_symmetry_Int_Tables_number       1
_space_group_crystal_system       triclinic
_cell_length_a                    19.012633
_cell_length_b                    10.671353
_cell_length_c                    9.877987
_cell_angle_alpha                 89.127263
_cell_angle_beta                  89.076848
_cell_angle_gamma                 91.973656
_cell_volume                      2002.45107397

loop_
_atom_site_label
_atom_site_type_symbol
_atom_type_description
_atom_site_fract_x
_atom_site_fract_y
_atom_site_fract_z
_atom_type_partial_charge
C1    C     C_R   0.503587 0.259207 0.501675 0.872261
C2    C     C_R   0.289178 0.525528 0.500640 -0.123833
C3    C     C_R   0.931454 0.611569 0.473760 0.289672
C4    C     C_R   0.073108 0.610560 0.475490 0.252779
C5    C     C_R   0.819465 0.579626 0.610179 0.121871
C6    C     C_R   0.747700 0.547152 0.614486 -0.246839
C7    C     C_R   0.711141 0.525778 0.494611 -0.056899
C8    C     C_R   0.746750 0.537097 0.369523 -0.193284
C9    C     C_R   0.817928 0.569580 0.364167 -0.205321
C10   C     C_R   0.855004 0.591128 0.483582 0.090209
C11   C     C_R   0.513604 0.101555 0.758174 -0.167483
C12   C     C_R   0.364914 0.502359 0.500967 0.831189
C13   C     C_R   0.491834 0.037807 0.876568 -0.193388
C14   C     C_R   0.449473 0.929480 0.869042 -0.149670
C15   C     C_R   0.435361 0.876331 0.743402 0.136782
C16   C     C_R   0.466873 0.932174 0.623749 0.069876
C17   C     C_R   0.494915 0.054862 0.629683 0.072117
C18   C     C_R   0.503056 0.124012 0.505847 -0.116310
C19   C     C_R   0.498277 0.063456 0.381508 -0.218829
C20   C     C_R   0.487572 0.936191 0.378750 -0.210393
C21   C     C_R   0.475977 0.869375 0.499906 -0.141222
C22   C     C_R   0.409121 0.331659 0.145594 -0.168173
C23   C     C_R   0.490599 0.738048 0.499725 0.888395
C24   C     C_R   0.365600 0.247192 0.077583 -0.189475
C25   C     C_R   0.366397 0.246513 0.937576 -0.155811
C26   C     C_R   0.410656 0.330438 0.864984 -0.193293
C27   C     C_R   0.455870 0.416346 0.930350 0.149770
C28   C     C_R   0.455514 0.416703 0.075067 0.172237
C29   C     C_R   0.542291 0.580187 0.068958 -0.131788
C30   C     C_R   0.542179 0.580310 0.925589 -0.130009
C31   C     C_R   0.634939 0.503572 0.498730 0.882103
C32   C     C_R   0.243559 0.493427 0.611675 0.093764
C33   C     C_R   0.172038 0.523353 0.606645 0.004869
C34   C     C_R   0.147259 0.585508 0.490109 -0.038194
C35   C     C_R   0.192409 0.615093 0.380931 -0.140875
C36   C     C_R   0.262580 0.586035 0.386284 -0.204075
H1    H     H_    0.546772 0.184767 0.769496 0.175704
H2    H     H_    0.505060 0.075842 0.974296 0.152686
H3    H     H_    0.427454 0.886624 0.961097 0.142995
H4    H     H_    0.491217 0.889965 0.282067 0.167532
H5    H     H_    0.576801 0.645541 0.120889 0.145460
H6    H     H_    0.404305 0.327607 0.252942 0.208731
H7    H     H_    0.330761 0.182402 0.134016 0.157777
H8    H     H_    0.332283 0.181073 0.884669 0.163454
H9    H     H_    0.407370 0.326546 0.757892 0.207757
H10   H     H_    0.576548 0.645865 0.869324 0.153619
H11   H     H_    0.173142 0.661201 0.290996 0.164776
H12   H     H_    0.296354 0.612471 0.300417 0.173795
H13   H     H_    0.720716 0.539582 0.711899 0.154639
H14   H     H_    0.719541 0.522244 0.275298 0.160727
H15   H     H_    0.844171 0.577239 0.266060 0.158298
H16   H     H_    0.504793 0.113653 0.285672 0.170862
N1    N     N_R   0.037458 0.559489 0.371270 -0.147459
N2    N     N_R   0.967707 0.560127 0.370402 -0.174817
N3    N     N_R   0.967553 0.669056 0.573945 -0.137611
N4    N     N_R   0.037364 0.668485 0.574952 -0.169054
N5    N     N_R   0.499340 0.498800 0.142780 -0.119938
N6    N     N_R   0.499320 0.498720 0.857170 -0.129069
O1    O     O_R   0.500000 0.316780 0.614690 -0.644868
O2    O     O_R   0.499990 0.316750 0.385360 -0.635443
O3    O     O_R   0.398140 0.500000 0.614700 -0.656765
O4    O     O_R   0.398130 0.499970 0.385370 -0.628470
O5    O     O_R   0.500010 0.683250 0.614640 -0.622182
O6    O     O_R   0.500000 0.683220 0.385310 -0.617539
O7    O     O_R   0.601870 0.500030 0.614630 -0.614285
O8    O     O_R   0.601860 0.500000 0.385300 -0.613904
Zn1   Zn    Zn3+2 0.500000 0.500020 0.653130 0.911397
Zn2   Zn    Zn3+2 0.500000 0.499980 0.346870 0.930946
N7    N     N_3   0.267357 0.422799 0.725422 -0.392686
H17   H     H_    0.302858 0.478665 0.779504 0.225729
H18   H     H_    0.291035 0.342367 0.690180 0.164625
N8    N     N_3   0.382540 0.776819 0.739394 -0.451813
H19   H     H_    0.368804 0.756268 0.640033 0.182487
H20   H     H_    0.402129 0.696870 0.785750 0.222367
C37   C     C_2   0.122425 0.482597 0.718658 0.443036
H21   H     H_    0.067345 0.462452 0.698284 0.070108
O9    O     O_2   0.142140 0.472384 0.835217 -0.537739
N9    N     N_3   0.856074 0.596636 0.734581 -0.442964
H22   H     H_    0.850077 0.513711 0.791999 0.187036
H23   H     H_    0.831994 0.667727 0.788140 0.187334

loop_
_geom_bond_atom_site_label_1
_geom_bond_atom_site_label_2
_ccdc_geom_bond_type
C31   O8    A    
O8    Zn2   S    
N3    N4    A    
C16   C21   A    
C4    N1    A    
C35   C36   A    
C9    H15   S    
C2    C12   S    
C7    C8    A    
N1    N2    A    
C15   N8    S    
C1    C18   S    
O6    Zn2   S    
C34   C35   A    
C1    O1    A    
C5    C6    A    
C20   H4    S    
C3    N2    A    
N9    H23   S    
C15   C16   A    
C2    C32   A    
C18   C19   A    
C11   H1    S    
C26   H9    S    
O1    Zn1   S    
C14   H3    S    
C3    N3    A    
C19   H16   S    
C33   C37   S    
C19   C20   A    
C8    C9    A    
O7    Zn1   S    
C9    C10   A    
C23   O5    A    
C35   H11   S    
C22   C28   A    
C13   C14   A    
C4    N4    A    
C25   H8    S    
C33   C34   A    
C4    C34   S    
O5    Zn1   S    
C7    C31   S    
C24   C25   A    
N8    H20   S    
C1    O2    A    
N9    H22   S    
C16   C17   A    
C25   C26   A    
C28   N5    A    
C37   H21   S    
C29   C30   A    
C12   O4    A    
O3    Zn1   S    
C17   C18   A    
C26   C27   A    
C37   O9    D    
C13   H2    S    
C32   N7    S    
C23   O6    A    
C29   N5    A    
C21   C23   S    
C22   C24   A    
N5    Zn2   S    
C8    H14   S    
C2    C36   A    
C31   O7    A    
C11   C17   A    
C29   H5    S    
C30   H10   S    
N8    H19   S    
C27   N6    A    
C6    C7    A    
N7    H18   S    
O4    Zn2   S    
C32   C33   A    
C5    C10   A    
C3    C10   S    
C12   O3    A    
C11   C13   A    
C22   H6    S    
C30   N6    A    
C36   H12   S    
C6    H13   S    
N7    H17   S    
N6    Zn1   S    
C20   C21   A    
O2    Zn2   S    
C27   C28   A    
C24   H7    S    
C14   C15   A    
C5    N9    S    
