data_mof_unit_pretest_1423.cif
_audit_creation_date              2013-03-05T16:36:14-0500
_audit_creation_method            fapswitch 2.2
_symmetry_space_group_name_H-M    P1
_symmetry_Int_Tables_number       1
_space_group_crystal_system       triclinic
_cell_length_a                    27.811542
_cell_length_b                    9.388906
_cell_length_c                    7.760626
_cell_angle_alpha                 90.00095
_cell_angle_beta                  90.003736
_cell_angle_gamma                 88.096873
_cell_volume                      2025.33651401

loop_
_atom_site_label
_atom_site_type_symbol
_atom_site_description
_atom_site_fract_x
_atom_site_fract_y
_atom_site_fract_z
_atom_type_partial_charge
O1    O     O_R   0.500000 0.288390 0.642760 -0.583547
O2    O     O_R   0.500000 0.711610 0.357240 -0.571011
O3    O     O_R   0.500000 0.711610 0.642760 -0.583549
O4    O     O_R   0.500000 0.288390 0.357240 -0.571011
C1    C     C_R   0.500061 0.219467 0.500001 0.827779
C2    C     C_R   0.499938 0.780532 0.500002 0.827768
O5    O     O_R   0.430260 0.500000 0.642770 -0.584987
O6    O     O_R   0.569740 0.500000 0.357230 -0.527826
O7    O     O_R   0.569740 0.500000 0.642770 -0.584988
O8    O     O_R   0.430260 0.500000 0.357230 -0.527844
C3    C     C_R   0.407129 0.503833 0.499793 0.838225
C4    C     C_R   0.592871 0.496169 0.499803 0.838210
Cu1   Cu    Cu3+1 0.500000 0.500000 0.669080 1.050496
Cu2   Cu    Cu3+1 0.500000 0.500000 0.330920 1.088491
C5    C     C_R   0.179173 0.385118 0.496028 0.598325
C6    C     C_R   0.820819 0.615001 0.496123 0.598401
C7    C     C_R   0.175244 0.635797 0.450734 0.659006
C8    C     C_R   0.824763 0.364307 0.450915 0.658944
O9    O     O_2   0.205657 0.267830 0.540577 -0.487426
O10   O     O_2   0.794330 0.732269 0.540700 -0.487337
O11   O     O_2   0.197767 0.760508 0.440094 -0.473628
O12   O     O_2   0.802248 0.239575 0.440369 -0.473460
N1    N     N_R   0.201146 0.512780 0.484200 -0.459238
N2    N     N_R   0.798854 0.487320 0.484338 -0.459334
C9    C     C_R   0.276556 0.586973 0.619018 -0.076005
C10   C     C_R   0.723447 0.413115 0.619133 -0.075992
C11   C     C_R   0.279367 0.439968 0.363191 -0.190849
C12   C     C_R   0.720631 0.560067 0.363268 -0.190908
C13   C     C_R   0.326782 0.589125 0.622462 0.314226
C14   C     C_R   0.673221 0.410934 0.622540 0.314223
C15   C     C_R   0.329776 0.435702 0.366759 0.367639
C16   C     C_R   0.670222 0.564305 0.366798 0.367660
C17   C     C_R   0.252784 0.513912 0.489281 0.191979
C18   C     C_R   0.747216 0.486164 0.489396 0.191945
C19   C     C_R   0.101647 0.503689 0.448867 -0.090744
C20   C     C_R   0.898346 0.496480 0.448894 -0.091040
C21   C     C_R   0.129292 0.376557 0.463428 -0.092029
C22   C     C_R   0.870694 0.623599 0.463446 -0.091501
C23   C     C_R   0.125055 0.632907 0.430737 -0.114972
C24   C     C_R   0.874946 0.367225 0.430876 -0.115068
C25   C     C_R   0.107117 0.247572 0.425485 -0.137532
C26   C     C_R   0.892859 0.752600 0.425466 -0.138016
C27   C     C_R   0.097495 0.752710 0.380262 -0.114190
C28   C     C_R   0.902514 0.247419 0.380440 -0.113598
C29   C     C_R   0.353984 0.510017 0.497342 -0.194257
C30   C     C_R   0.646017 0.490002 0.497382 -0.194265
H1    H     H_    0.260460 0.384105 0.263020 0.170510
H2    H     H_    0.739537 0.615920 0.263096 0.170501
H3    H     H_    0.255830 0.645091 0.715840 0.190574
H4    H     H_    0.744174 0.355027 0.715984 0.190565
C31   C     C_R   0.976625 0.368605 0.433129 0.017574
C32   C     C_R   0.023368 0.631597 0.432978 0.017279
C33   C     C_R   0.972168 0.630071 0.427300 0.067240
C34   C     C_R   0.027819 0.370131 0.427429 0.066542
C35   C     C_R   0.949329 0.498771 0.438393 -0.089667
C36   C     C_R   0.050661 0.501427 0.438383 -0.089660
C37   C     C_R   0.950904 0.241740 0.432715 0.461043
C38   C     C_R   0.049095 0.758450 0.432422 0.461140
C39   C     C_R   0.942699 0.751667 0.388625 0.360833
C40   C     C_R   0.057275 0.248508 0.388834 0.360482
C41   C     C_1   0.500020 0.064763 0.500004 -0.131761
C42   C     C_1   0.499980 0.935237 0.500006 -0.131760
N3    N     N_1   0.500000 0.500000 0.076820 -0.020998
N4    N     N_1   0.500000 0.500000 0.923180 -0.025641
O13   O     O_3   0.355960 0.357331 0.246160 -0.684567
H5    H     H_    0.333568 0.312149 0.164820 0.340113
O14   O     O_3   0.644036 0.642639 0.246161 -0.684557
H6    H     H_    0.666427 0.687817 0.164825 0.340115
O15   O     O_3   0.347406 0.672193 0.747205 -0.681310
H7    H     H_    0.378702 0.704611 0.704369 0.331625
O16   O     O_3   0.652600 0.327878 0.747287 -0.681307
H8    H     H_    0.621309 0.295426 0.704429 0.331628
C43   C     C_2   0.136802 0.116867 0.397176 0.923867
O17   O     O_2   0.138851 0.024795 0.508300 -0.552345
O18   O     O_R   0.166249 0.106776 0.251488 -0.735778
H9    H     H_    0.189386 0.021252 0.255694 0.385095
C44   C     C_2   0.863160 0.883338 0.397456 0.922221
O19   O     O_2   0.861190 0.975377 0.508632 -0.552132
O20   O     O_R   0.833619 0.893498 0.252001 -0.735650
H10   H     H_    0.810468 0.978978 0.256480 0.385610
C45   C     C_2   0.108791 0.818326 0.210681 0.886238
O21   O     O_2   0.077387 0.884612 0.131425 -0.540853
O22   O     O_R   0.153534 0.792510 0.132285 -0.730337
H11   H     H_    0.155862 0.838838 0.014679 0.356720
C46   C     C_2   0.891297 0.182104 0.210600 0.884846
O23   O     O_2   0.922841 0.116954 0.130706 -0.541167
O24   O     O_R   0.846437 0.207031 0.132699 -0.729971
H12   H     H_    0.844167 0.161067 0.014861 0.356823
O25   O     O_3   0.971447 0.118247 0.498888 -0.606501
H13   H     H_    0.946079 0.048009 0.513746 0.379722
O26   O     O_3   0.028561 0.881983 0.498510 -0.606293
H14   H     H_    0.053949 0.952127 0.513608 0.379874
O27   O     O_3   0.961028 0.855575 0.285085 -0.621959
H15   H     H_    0.937741 0.871051 0.189916 0.359785
O28   O     O_3   0.038955 0.144611 0.285285 -0.621639
H16   H     H_    0.061945 0.130675 0.188920 0.360119

loop_
_geom_bond_atom_site_label_1
_geom_bond_atom_site_label_2
_geom_bond_distance
_ccdc_geom_bond_type
O5    Cu1   1.950281 S    
O24   H12   1.014063 S    
O27   H15   0.989826 S    
C43   O17   1.221061 D    
O28   H16   0.989796 S    
O3    C2    1.283011 A    
C14   O16   1.379877 S    
C33   C39   1.415277 A    
C34   C40   1.415166 A    
C44   O19   1.221062 D    
C11   C17   1.397168 A    
C5    O9    1.349367 S    
C7    N1    1.365708 A    
C37   O25   1.374951 S    
O1    C1    1.283004 A    
C19   C21   1.402754 A    
C22   C26   1.408353 A    
C10   H4    1.083402 S    
C7    C23   1.405556 A    
O7    Cu1   1.950305 S    
C5    C21   1.415032 A    
C8    C24   1.405499 A    
C27   C38   1.404965 A    
C10   C18   1.396914 A    
N1    C17   1.437058 S    
N2    C18   1.437064 S    
C31   C37   1.409633 A    
C38   O26   1.374929 S    
C41   C42   1.216139 T    
O3    Cu1   1.997262 S    
C6    O10   1.349363 S    
C44   O20   1.397500 S    
C12   C18   1.397167 A    
C6    N2    1.366470 A    
Cu1   Cu2   2.624334 S    
C21   C25   1.408277 A    
C43   O18   1.397495 S    
O2    C2    1.283024 A    
C45   O22   1.399077 S    
O5    C3    1.282468 A    
C13   O15   1.379880 S    
C33   C35   1.408044 A    
C9    C13   1.397939 A    
C34   C36   1.407985 A    
C46   O24   1.399040 S    
C11   C15   1.401471 A    
O14   H6    0.991833 S    
C20   C24   1.402946 A    
C4    C30   1.477385 S    
O8    Cu2   1.950308 S    
O26   H14   0.988373 S    
C23   C27   1.396037 A    
C46   O23   1.221750 D    
C45   O21   1.221586 D    
O20   H10   1.012697 S    
C13   C29   1.424631 A    
C19   C23   1.402854 A    
O18   H9    1.012705 S    
O22   H11   1.014054 S    
C12   C16   1.401465 A    
C28   C37   1.404903 A    
O6    C4    1.279758 A    
C1    C41   1.452547 S    
C32   C38   1.409644 A    
C16   O14   1.382816 S    
C10   C14   1.397941 A    
C27   C45   1.491026 S    
C8    N2    1.365711 A    
C3    C29   1.477378 S    
O1    Cu1   1.997256 S    
C28   C46   1.491075 S    
C32   C33   1.425172 A    
C11   H1    1.083595 S    
C15   O13   1.382815 S    
C12   H2    1.083594 S    
O6    Cu2   1.950279 S    
C19   C36   1.421175 A    
C8    O12   1.348674 S    
C16   C30   1.413569 A    
C14   C30   1.424635 A    
C25   C40   1.414777 A    
O4    C1    1.283031 A    
C26   C39   1.415056 A    
C31   C34   1.425019 A    
C2    C42   1.452547 S    
C20   C22   1.402740 A    
O16   H8    0.989125 S    
C20   C35   1.421140 A    
Cu1   N4    1.971974 S    
Cu2   N3    1.971974 S    
C5    N1    1.366456 A    
C31   C35   1.417707 A    
O4    Cu2   1.997263 S    
O15   H7    0.989126 S    
O2    Cu2   1.997255 S    
O7    C4    1.282469 A    
C9    H3    1.083402 S    
O8    C3    1.279754 A    
C25   C43   1.472599 S    
N3    N4    1.192343 T    
C40   O28   1.374721 S    
C24   C28   1.396093 A    
C26   C44   1.472712 S    
O13   H5    0.991836 S    
C15   C29   1.413570 A    
C9    C17   1.396917 A    
C39   O27   1.374921 S    
O25   H13   0.988367 S    
C32   C36   1.417744 A    
C6    C22   1.415066 A    
C7    O11   1.348684 S    
