data_mof_unit_pretest_995.cif
_audit_creation_date              2012-10-26T18:53:53-0400
_audit_creation_method            fapswitch 2.2
_symmetry_space_group_name_H-M    P1
_symmetry_Int_Tables_number       1
_space_group_crystal_system       triclinic
_cell_length_a                    14.701299
_cell_length_b                    14.753056
_cell_length_c                    17.370688
_cell_angle_alpha                 105.837426
_cell_angle_beta                  73.28664
_cell_angle_gamma                 114.857264
_cell_volume                      3223.58564304

loop_
_atom_site_label
_atom_site_type_symbol
_atom_type_description
_atom_site_fract_x
_atom_site_fract_y
_atom_site_fract_z
_atom_type_partial_charge
C1    C     C_R   0.118651 0.687888 0.513569 0.546893
C2    C     C_R   0.709519 0.178520 0.484759 -0.136834
C3    C     C_R   0.360706 0.919930 0.499724 0.032766
C4    C     C_R   0.641646 0.076907 0.476575 0.031333
C5    C     C_R   0.321095 0.994626 0.505244 0.050083
C6    C     C_R   0.682202 0.000704 0.462768 0.050547
C7    C     C_R   0.468438 0.946171 0.485690 0.031555
C8    C     C_R   0.534615 0.049347 0.484143 0.031699
C9    C     C_R   0.491825 0.121133 0.488743 -0.139742
C10   C     C_R   0.512334 0.872453 0.471201 -0.140596
C11   C     C_R   0.387222 0.093887 0.498768 -0.136676
C12   C     C_R   0.881354 0.312059 0.485751 0.547695
C13   C     C_R   0.617166 0.899452 0.459223 -0.136469
C14   C     C_R   0.275535 0.307084 0.389318 -0.165278
C15   C     C_R   0.724781 0.693108 0.610745 -0.164398
C16   C     C_R   0.989654 0.503026 0.652278 0.547600
C17   C     C_R   0.010386 0.497037 0.347731 0.547787
C18   C     C_R   0.198311 0.343726 0.402657 0.040929
C19   C     C_R   0.801649 0.656095 0.597705 0.040443
C20   C     C_R   0.294398 0.498871 0.476886 0.029230
C21   C     C_R   0.705999 0.501627 0.522445 0.029971
C22   C     C_R   0.370953 0.461746 0.472998 -0.004634
C23   C     C_R   0.185852 0.795037 0.516321 -0.002140
C24   C     C_R   0.629689 0.539075 0.526316 -0.005116
C25   C     C_R   0.362659 0.366456 0.423181 0.023160
C26   C     C_R   0.638003 0.634239 0.576338 0.022925
C27   C     C_R   0.457004 0.516343 0.513087 0.010576
C28   C     C_R   0.543819 0.484843 0.486021 0.011180
C29   C     C_R   0.539737 0.400432 0.420412 -0.017480
C30   C     C_R   0.461259 0.601004 0.578540 -0.016727
C31   C     C_R   0.444628 0.334642 0.401416 -0.123204
C32   C     C_R   0.556384 0.666491 0.597687 -0.118899
C33   C     C_R   0.986858 0.506934 0.737508 0.012537
C34   C     C_R   0.814553 0.204388 0.476161 -0.002595
C35   C     C_R   0.013381 0.493426 0.262526 0.013081
C36   C     C_R   0.039941 0.459255 0.756986 -0.144291
C37   C     C_R   0.960797 0.541654 0.243092 -0.144252
C38   C     C_R   0.043619 0.468342 0.837671 -0.116320
C39   C     C_R   0.957439 0.532994 0.162396 -0.116478
C40   C     C_R   0.992767 0.524027 0.900029 0.041387
C41   C     C_R   0.008055 0.477119 0.100002 0.041461
C42   C     C_R   0.939270 0.571212 0.880608 -0.118281
C43   C     C_R   0.061080 0.429415 0.119393 -0.118205
C44   C     C_R   0.935612 0.562142 0.799675 -0.130395
C45   C     C_R   0.215342 0.969036 0.516451 -0.136124
C46   C     C_R   0.064454 0.438097 0.200325 -0.130118
C47   C     C_2   0.996222 0.536176 0.985692 -0.137167
C48   C     C_2   0.004697 0.465122 0.014337 -0.137043
C49   C     C_3   0.633147 0.381343 0.363514 -0.264818
C50   C     C_3   0.635432 0.372717 0.272471 -0.296368
C51   C     C_3   0.714275 0.328598 0.217892 -0.449562
C52   C     C_3   0.368042 0.620911 0.635031 -0.265000
C53   C     C_3   0.365502 0.630593 0.726295 -0.296932
C54   C     C_3   0.285782 0.673951 0.780185 -0.449932
C55   C     C_R   0.787757 0.026635 0.453215 -0.135929
C56   C     C_R   0.148091 0.869512 0.521139 -0.140121
C57   C     C_R   0.853703 0.127902 0.459310 -0.140033
C58   C     C_R   0.290718 0.821371 0.508686 -0.132770
Cu1   Cu    Cu3+1 0.916740 0.524770 0.521640 0.926548
Cu2   Cu    Cu3+1 0.083260 0.475230 0.478360 0.927263
H1    H     H_    0.080640 0.416888 0.709758 0.127828
H2    H     H_    0.130035 0.296514 0.378254 0.122674
H3    H     H_    0.267648 0.233150 0.351960 0.085918
H4    H     H_    0.732661 0.766929 0.648310 0.087081
H5    H     H_    0.104854 0.399721 0.214326 0.123558
H6    H     H_    0.894844 0.600120 0.785647 0.123577
H7    H     H_    0.011023 0.396540 0.973991 0.114513
H8    H     H_    0.989855 0.604753 0.026012 0.114325
H9    H     H_    0.900257 0.614919 0.928124 0.100246
H10   H     H_    0.099908 0.385559 0.071854 0.100324
H11   H     H_    0.912566 0.567446 0.149648 0.102622
H12   H     H_    0.920266 0.584150 0.290357 0.127057
H13   H     H_    0.088846 0.434307 0.850455 0.103042
H14   H     H_    0.357880 0.151243 0.501613 0.111347
H15   H     H_    0.647417 0.840478 0.448106 0.110250
H16   H     H_    0.682098 0.239514 0.500362 0.114937
H17   H     H_    0.315592 0.763171 0.510344 0.107901
H18   H     H_    0.934832 0.146326 0.452264 0.120922
H19   H     H_    0.067038 0.850628 0.527241 0.122638
H20   H     H_    0.184827 0.025764 0.520202 0.103231
H21   H     H_    0.819173 0.968520 0.441764 0.102906
H22   H     H_    0.789229 0.370066 0.236689 0.173112
H23   H     H_    0.537126 0.198986 0.482437 0.097339
H24   H     H_    0.688453 0.247427 0.222178 0.151741
H25   H     H_    0.723636 0.334320 0.153430 0.148218
H26   H     H_    0.560546 0.323221 0.255265 0.162410
H27   H     H_    0.655192 0.449371 0.259660 0.161485
H28   H     H_    0.705300 0.444968 0.374362 0.150455
H29   H     H_    0.634132 0.310650 0.373847 0.135601
H30   H     H_    0.310711 0.754795 0.775300 0.150939
H31   H     H_    0.210984 0.631333 0.761268 0.172785
H32   H     H_    0.276480 0.669128 0.844863 0.148510
H33   H     H_    0.346469 0.554369 0.739626 0.162470
H34   H     H_    0.468324 0.792270 0.466388 0.102624
H35   H     H_    0.440073 0.681038 0.743672 0.161611
H36   H     H_    0.367498 0.691420 0.623879 0.136879
H37   H     H_    0.295783 0.557272 0.624529 0.150721
H38   H     H_    0.438136 0.263018 0.360420 0.107134
H39   H     H_    0.563123 0.738252 0.638516 0.108230
H40   H     H_    0.697970 0.424625 0.494730 0.113170
H41   H     H_    0.302605 0.576043 0.504020 0.112868
H42   H     H_    0.869706 0.702932 0.622498 0.123822
N1    N     N_R   0.208390 0.438070 0.445820 -0.231743
N2    N     N_R   0.791610 0.561930 0.554180 -0.232144
O1    O     O_R   0.020090 0.662480 0.528530 -0.514372
O2    O     O_R   0.979910 0.337520 0.471470 -0.513848
O3    O     O_R   0.160710 0.620650 0.491980 -0.512823
O4    O     O_R   0.839290 0.379350 0.508020 -0.513591
O5    O     O_R   0.921540 0.523360 0.633990 -0.500190
O6    O     O_R   0.078460 0.476640 0.366010 -0.500131
O7    O     O_R   0.062170 0.481520 0.597440 -0.508760
O8    O     O_R   0.937830 0.518480 0.402560 -0.509138

loop_
_geom_bond_atom_site_label_1
_geom_bond_atom_site_label_2
_ccdc_geom_bond_type
C25   C31   A    
C40   C47   S    
C12   O2    A    
C26   C32   A    
C23   C58   A    
C14   C18   A    
C44   H6    S    
C6    C55   A    
C4    C8    A    
C17   O6    A    
C51   H25   S    
Cu2   O2    S    
C7    C8    A    
C39   C41   A    
C20   N1    A    
C29   C49   S    
C53   C54   S    
C15   C19   A    
Cu1   O1    S    
C56   H19   S    
Cu1   N2    S    
C28   C29   A    
C35   C37   A    
C24   C26   A    
C54   H30   S    
C3    C7    A    
C19   H42   S    
C53   H35   S    
C10   H34   S    
C52   H37   S    
C33   C36   A    
C31   H38   S    
C58   H17   S    
C21   N2    A    
C13   H15   S    
C45   C56   A    
C8    C9    A    
C22   C25   A    
C34   C57   A    
C15   H4    S    
C55   H21   S    
Cu2   N1    S    
C2    C34   A    
C40   C42   A    
Cu1   Cu2   S    
C48   H7    S    
C38   C40   A    
C27   C30   A    
C41   C43   A    
C49   H28   S    
C42   C44   A    
C16   O5    A    
Cu1   O8    S    
C53   H33   S    
C23   C56   A    
C46   H5    S    
C4    C6    A    
C12   O4    A    
C21   H40   S    
C18   H2    S    
C15   C26   A    
C20   H41   S    
C5    C45   A    
C10   C13   A    
C42   H9    S    
C2    C4    A    
C54   H32   S    
C16   C33   S    
C19   N2    A    
C47   C48   D    
C50   C51   S    
C9    C11   A    
C51   H22   S    
Cu2   O3    S    
C50   H27   S    
C1    O3    A    
C20   C22   A    
C1    C23   S    
C43   H10   S    
C22   C27   A    
C55   C57   A    
C21   C24   A    
C12   C34   S    
C36   H1    S    
C17   O8    A    
C47   H8    S    
C2    H16   S    
C52   C53   S    
C30   C52   S    
C33   C44   A    
C57   H18   S    
C24   C28   A    
C49   H29   S    
C3    C5    A    
C11   H14   S    
C9    H23   S    
C5    C11   A    
Cu1   O4    S    
C32   H39   S    
C7    C10   A    
C36   C38   A    
C54   H31   S    
C37   C39   A    
Cu2   O7    S    
C6    C13   A    
C30   C32   A    
C14   H3    S    
Cu1   O5    S    
C41   C48   S    
C52   H36   S    
C45   H20   S    
C18   N1    A    
C14   C25   A    
C43   C46   A    
Cu2   O6    S    
C50   H26   S    
C3    C58   A    
C29   C31   A    
C49   C50   S    
C37   H12   S    
C27   C28   A    
C39   H11   S    
C17   C35   S    
C35   C46   A    
C51   H24   S    
C16   O7    A    
C1    O1    A    
C38   H13   S    
