data_mof_unit_pretest_786.cif
_audit_creation_date              2012-12-10T17:02:59-0500
_audit_creation_method            fapswitch 2.2
_symmetry_space_group_name_H-M    P1
_symmetry_Int_Tables_number       1
_space_group_crystal_system       triclinic
_cell_length_a                    9.894352
_cell_length_b                    11.052509
_cell_length_c                    13.38194
_cell_angle_alpha                 95.911927
_cell_angle_beta                  81.818879
_cell_angle_gamma                 111.633312
_cell_volume                      1344.45830188

loop_
_atom_site_label
_atom_site_type_symbol
_atom_type_description
_atom_site_fract_x
_atom_site_fract_y
_atom_site_fract_z
_atom_type_partial_charge
C1    C     C_R   0.556280 0.745704 0.509560 0.737263
C2    C     C_R   0.418844 0.412895 0.964464 -0.077298
C3    C     C_R   0.461297 0.415938 0.858751 -0.117179
C4    C     C_R   0.528525 0.437463 0.030403 0.075697
C5    C     C_R   0.669930 0.442577 0.989156 0.000128
C6    C     C_R   0.696421 0.410371 0.886597 -0.273837
C7    C     C_R   0.591733 0.393068 0.822192 0.639685
C8    C     C_R   0.505087 0.467012 0.134461 -0.278800
C9    C     C_R   0.761303 0.513328 0.154483 0.506391
C10   C     C_R   0.369538 0.437861 0.794937 -0.087638
C11   C     C_2   0.586592 0.885998 0.520688 0.305259
C12   C     C_R   0.420814 0.475233 0.689084 0.823315
C13   C     C_2   0.481277 0.930242 0.507366 -0.221320
C14   C     C_2   0.408435 0.114199 0.490169 0.426941
C15   C     C_2   0.506792 0.069083 0.514491 -0.241091
C16   C     C_2   0.926545 0.497829 0.483629 0.666038
C17   C     C_2   0.079200 0.514495 0.505534 0.069084
C18   C     C_R   0.442308 0.254291 0.493474 0.723792
C19   C     C_R   0.576827 0.509885 0.308630 0.801273
C20   C     C_R   0.784152 0.480591 0.049890 -0.286668
C21   C     C_R   0.617243 0.499229 0.197460 -0.166913
C22   C     C_R   0.227122 0.428531 0.834799 -0.274959
C23   C     C_R   0.174971 0.394570 0.933864 -0.225447
C24   C     C_R   0.267838 0.382277 0.998332 0.514402
Cu1   Cu    Cu3+1 0.362000 0.479240 0.482530 0.983832
Cu2   Cu    Cu3+1 0.638000 0.520760 0.517470 1.054748
H1    H     H_    0.374227 0.862817 0.490228 0.200976
H2    H     H_    0.134260 0.596127 0.555632 0.090794
H3    H     H_    0.799326 0.400117 0.855731 0.172746
H4    H     H_    0.891278 0.487958 0.013274 0.126847
H5    H     H_    0.400389 0.470089 0.167309 0.211810
H6    H     H_    0.153380 0.441945 0.788107 0.186582
H7    H     H_    0.060587 0.374207 0.960164 0.145058
H8    H     H_    0.608909 0.136121 0.539595 0.197791
N1    N     N_2   0.845330 0.551960 0.543750 -0.020816
N2    N     N_2   0.154690 0.448120 0.456210 -0.012077
O1    O     O_R   0.426290 0.668220 0.490680 -0.627476
O2    O     O_R   0.659360 0.703290 0.520190 -0.557764
O3    O     O_R   0.326580 0.473880 0.629020 -0.590105
O4    O     O_R   0.559660 0.508940 0.658530 -0.515777
O5    O     O_R   0.340640 0.296710 0.479810 -0.522919
O6    O     O_R   0.573710 0.331780 0.509320 -0.598259
O7    O     O_R   0.440340 0.491060 0.341470 -0.618807
O8    O     O_R   0.673420 0.526120 0.370980 -0.493674
O9    O     O_3   0.873853 0.566183 0.216609 -0.533054
C25   C     C_3   0.010083 0.560173 0.173282 -0.226737
H9    H     H_    0.000539 0.458320 0.148908 0.163420
H10   H     H_    0.087171 0.594081 0.231636 0.204980
H11   H     H_    0.058134 0.627102 0.110446 0.137803
F1    F     F_    0.277820 0.031653 0.461081 -0.659277
O10   O     O_3   0.725585 0.971061 0.538199 -0.549776
C26   C     C_3   0.732762 0.987647 0.643481 -0.268985
H12   H     H_    0.708531 0.893430 0.677765 0.118821
H13   H     H_    0.657022 0.036008 0.681636 0.172884
H14   H     H_    0.845549 0.051589 0.657479 0.206382
O11   O     O_3   0.895381 0.461558 0.384771 -0.574610
C27   C     C_3   0.814963 0.326713 0.371088 -0.124802
H15   H     H_    0.803289 0.268869 0.437209 0.166205
H16   H     H_    0.868004 0.286810 0.304497 0.146315
H17   H     H_    0.706172 0.311291 0.348854 0.145682
O12   O     O_3   0.074603 0.325070 0.427494 -0.502081
C28   C     C_3   0.133385 0.298713 0.329452 -0.010745
H18   H     H_    0.236172 0.281017 0.328844 0.187293
H19   H     H_    0.149061 0.377638 0.278714 0.153876
H20   H     H_    0.054475 0.207161 0.298747 0.121365
O13   O     O_3   0.879874 0.578818 0.639495 -0.526840
C29   C     C_3   0.882995 0.705744 0.667783 -0.149509
H21   H     H_    0.943902 0.775206 0.607944 0.165787
H22   H     H_    0.940611 0.740580 0.736384 0.129456
H23   H     H_    0.770938 0.706567 0.687588 0.174601
O14   O     O_3   0.204676 0.322830 0.087925 -0.642506
C30   C     C_3   0.192918 0.190955 0.073774 -0.366161
H24   H     H_    0.127711 0.137819 0.140502 0.182450
H25   H     H_    0.302441 0.182347 0.066581 0.182970
H26   H     H_    0.134894 0.141458 0.006947 0.176328
F2    F     F_    0.612582 0.340392 0.727765 -0.653162

loop_
_geom_bond_atom_site_label_1
_geom_bond_atom_site_label_2
_ccdc_geom_bond_type
C12   O4    A    
C23   H7    S    
C2    C4    A    
C23   C24   A    
C16   O11   S    
C9    O9    S    
C7    F2    S    
C17   N2    D    
C14   C18   S    
C9    C20   A    
O12   C28   S    
N1    O13   S    
C26   H14   S    
C1    O1    A    
C19   O8    A    
C4    C8    A    
C29   H23   S    
C9    C21   A    
Cu1   O7    S    
C12   O3    A    
C13   C15   S    
C8    C21   A    
Cu2   O8    S    
O14   C30   S    
C3    C10   A    
C20   H4    S    
O9    C25   S    
Cu1   O3    S    
C11   C13   D    
C25   H11   S    
Cu2   O4    S    
C27   H15   S    
C6    C7    A    
C22   H6    S    
C1    O2    A    
C30   H26   S    
C10   C12   S    
C19   C21   S    
C19   O7    A    
C2    C3    A    
C3    C7    A    
C18   O6    A    
C16   N1    D    
C2    C24   A    
C5    C6    A    
C25   H10   S    
C27   H16   S    
C11   O10   S    
O11   C27   S    
C14   F1    S    
Cu1   N2    S    
O10   C26   S    
C16   C17   S    
Cu2   N1    S    
C6    H3    S    
O13   C29   S    
C26   H12   S    
Cu2   O6    S    
C30   H24   S    
C30   H25   S    
C18   O5    A    
Cu1   O5    S    
C24   O14   S    
C5    C20   A    
C25   H9    S    
C13   H1    S    
C27   H17   S    
C28   H19   S    
C1    C11   S    
C15   H8    S    
C28   H20   S    
Cu1   O1    S    
Cu1   Cu2   S    
C14   C15   D    
C8    H5    S    
C10   C22   A    
C22   C23   A    
Cu2   O2    S    
C28   H18   S    
C29   H21   S    
C17   H2    S    
C26   H13   S    
C4    C5    A    
C29   H22   S    
N2    O12   S    
