data_mof_unit_pretest_50.cif
_audit_creation_date              2012-12-10T19:09:32-0500
_audit_creation_method            fapswitch 2.2
_symmetry_space_group_name_H-M    P1
_symmetry_Int_Tables_number       1
_space_group_crystal_system       triclinic
_cell_length_a                    9.537964
_cell_length_b                    10.843437
_cell_length_c                    17.138154
_cell_angle_alpha                 89.102761
_cell_angle_beta                  94.900481
_cell_angle_gamma                 90.681674
_cell_volume                      1765.70680978

loop_
_atom_site_label
_atom_site_type_symbol
_atom_type_description
_atom_site_fract_x
_atom_site_fract_y
_atom_site_fract_z
_atom_type_partial_charge
C1    C     C_R   0.499524 0.262394 0.502209 0.800043
C2    C     C_R   0.651916 0.455594 0.785377 0.122197
C3    C     C_R   0.579841 0.510518 0.141465 -0.158036
C4    C     C_R   0.590266 0.505828 0.222715 -0.244244
C5    C     C_R   0.446638 0.515542 0.098653 0.386316
C6    C     C_R   0.468686 0.506726 0.263153 -0.027268
C7    C     C_R   0.336060 0.513129 0.220815 -0.220662
C8    C     C_R   0.325533 0.517967 0.139132 -0.198197
C9    C     C_R   0.625505 0.065681 0.519881 0.122547
C10   C     C_R   0.499044 0.129489 0.511316 -0.099938
C11   C     C_R   0.372327 0.062780 0.514076 -0.216151
C12   C     C_R   0.518706 0.496635 0.651333 0.787222
C13   C     C_R   0.373314 0.934125 0.513407 -0.213624
C14   C     C_R   0.500946 0.871131 0.509773 -0.100430
C15   C     C_R   0.626732 0.938692 0.519026 0.133133
C16   C     C_3   0.752850 0.938428 0.473032 -0.492319
C17   C     C_3   0.751738 0.078038 0.474672 -0.449833
C18   C     C_R   0.064378 0.537304 0.434946 0.257608
C19   C     C_R   0.082868 0.446069 0.559433 -0.081482
C20   C     C_R   0.933949 0.444957 0.558885 -0.095296
C21   C     C_R   0.917077 0.536574 0.434741 0.263916
C22   C     C_3   0.906638 0.658501 0.393917 -0.517331
C23   C     C_R   0.500656 0.737907 0.501502 0.804743
C24   C     C_3   0.066008 0.659862 0.394670 -0.499379
C25   C     C_R   0.481351 0.502487 0.349083 0.799610
C26   C     C_R   0.529489 0.494925 0.738258 -0.096032
C27   C     C_R   0.410826 0.532444 0.774964 -0.261450
C28   C     C_R   0.411669 0.532795 0.856028 -0.163096
C29   C     C_R   0.532295 0.495697 0.902641 0.330658
C30   C     C_R   0.650451 0.458439 0.867278 -0.178303
Cu1   Cu    Cu3+1 0.640670 0.499980 0.500000 0.935362
Cu2   Cu    Cu3+1 0.359330 0.500020 0.500000 0.940236
H1    H     H_    0.693895 0.501231 0.253733 0.154358
H2    H     H_    0.273658 0.884979 0.511669 0.160097
H3    H     H_    0.846299 0.899130 0.507457 0.196673
H4    H     H_    0.728726 0.901734 0.413093 0.199257
H5    H     H_    0.843489 0.118308 0.510244 0.195694
H6    H     H_    0.727888 0.121526 0.415897 0.203098
H7    H     H_    0.145114 0.403777 0.608114 0.143249
H8    H     H_    0.885345 0.399082 0.605732 0.134925
H9    H     H_    0.852117 0.652436 0.334143 0.192050
H10   H     H_    0.866599 0.729191 0.431438 0.215825
H11   H     H_    0.103513 0.654261 0.335223 0.190589
H12   H     H_    0.676366 0.510066 0.112502 0.149538
H13   H     H_    0.117251 0.732948 0.432237 0.211664
H14   H     H_    0.741139 0.431220 0.905511 0.153329
H15   H     H_    0.240528 0.514219 0.250661 0.151936
H16   H     H_    0.318407 0.562903 0.881840 0.157873
H17   H     H_    0.222662 0.522346 0.107193 0.137279
H18   H     H_    0.316357 0.562785 0.740805 0.171171
H19   H     H_    0.272230 0.109316 0.512371 0.165070
N1    N     N_2   0.541978 0.494860 0.985530 -0.265856
N2    N     N_2   0.430773 0.517636 0.015482 -0.261401
N3    N     N_R   0.147870 0.500930 0.499500 -0.185583
N4    N     N_R   0.851960 0.500890 0.499500 -0.182930
O1    O     O_R   0.618810 0.319640 0.500000 -0.582102
O2    O     O_R   0.381230 0.319680 0.499990 -0.583951
O3    O     O_R   0.631790 0.498830 0.613930 -0.596588
O4    O     O_R   0.394210 0.498870 0.613920 -0.584036
O5    O     O_R   0.618770 0.680320 0.500010 -0.574586
O6    O     O_R   0.381190 0.680360 0.500000 -0.584027
O7    O     O_R   0.605790 0.501130 0.386080 -0.584733
O8    O     O_R   0.368210 0.501170 0.386070 -0.583338
C31   C     C_3   0.781096 0.410495 0.748493 -0.381234
C32   C     C_3   0.898276 0.353765 0.803838 -0.887129
H20   H     H_    0.946843 0.424259 0.844333 0.252896
H21   H     H_    0.856824 0.275003 0.837498 0.261046
H22   H     H_    0.981847 0.318775 0.768890 0.242732
H23   H     H_    0.746510 0.338305 0.705491 0.206300
H24   H     H_    0.827948 0.490201 0.718218 0.220327

loop_
_geom_bond_atom_site_label_1
_geom_bond_atom_site_label_2
_ccdc_geom_bond_type
Cu1   O5    S    
C14   C23   S    
C5    C8    A    
C29   C30   A    
C31   H24   S    
Cu1   O1    S    
C18   C21   A    
C9    C10   A    
Cu1   Cu2   S    
C27   H18   S    
C23   O6    A    
C2    C30   A    
C32   H22   S    
C12   O3    A    
C31   C32   S    
C19   C20   A    
C9    C15   A    
C13   H2    S    
C2    C26   A    
C17   H5    S    
C13   C14   A    
C16   H4    S    
C11   C13   A    
Cu1   O7    S    
C9    C17   S    
C26   C27   A    
C22   H10   S    
C19   H7    S    
Cu2   O2    S    
C20   N4    A    
C18   C24   S    
C24   H13   S    
C19   N3    A    
Cu2   N3    S    
C28   C29   A    
C1    O1    A    
C2    C31   S    
Cu2   O6    S    
C6    C7    A    
C1    O2    A    
C25   O7    A    
C16   H3    S    
C12   C26   S    
C23   O5    A    
C20   H8    S    
C22   C24   S    
C3    H12   S    
C6    C25   S    
C11   H19   S    
C10   C11   A    
C18   N3    A    
C3    C4    A    
C22   H9    S    
C3    C5    A    
C7    C8    A    
C17   H6    S    
Cu1   O3    S    
C4    C6    A    
C32   H20   S    
C25   O8    A    
C5    N2    S    
C27   C28   A    
C21   N4    A    
C24   H11   S    
C14   C15   A    
C28   H16   S    
C4    H1    S    
Cu2   O4    S    
Cu1   N4    S    
C21   C22   S    
C31   H23   S    
C12   O4    A    
C8    H17   S    
C30   H14   S    
C1    C10   S    
C15   C16   S    
Cu2   O8    S    
N1    N2    D    
C16   C17   S    
C32   H21   S    
C29   N1    S    
C7    H15   S    
