data_mof_unit_pretest_1225.cif
_audit_creation_date              2012-12-10T19:27:34-0500
_audit_creation_method            fapswitch 2.2
_symmetry_space_group_name_H-M    P1
_symmetry_Int_Tables_number       1
_space_group_crystal_system       triclinic
_cell_length_a                    23.35432
_cell_length_b                    10.673351
_cell_length_c                    9.870823
_cell_angle_alpha                 90.283897
_cell_angle_beta                  90.139279
_cell_angle_gamma                 88.696112
_cell_volume                      2459.81483479

loop_
_atom_site_label
_atom_site_type_symbol
_atom_type_description
_atom_site_fract_x
_atom_site_fract_y
_atom_site_fract_z
_atom_type_partial_charge
C1    C     C_R   0.500873 0.257478 0.499546 0.881180
C2    C     C_R   0.698697 0.577813 0.605070 -0.254362
C3    C     C_R   0.246337 0.355065 0.521373 0.045130
C4    C     C_R   0.757961 0.592698 0.609768 0.015908
C5    C     C_R   0.209791 0.459924 0.499999 0.204573
C6    C     C_R   0.792161 0.533019 0.509704 0.197207
C7    C     C_3   0.510203 0.040450 0.625325 -0.284426
C8    C     C_3   0.487162 0.957041 0.373200 -0.241016
C9    C     C_3   0.549571 0.953314 0.539392 0.063158
C10   C     C_3   0.447648 0.044913 0.458199 0.107934
C11   C     C_3   0.497638 0.876668 0.500353 -0.104169
C12   C     C_R   0.498683 0.741933 0.500200 0.936446
C13   C     C_3   0.499977 0.121738 0.498045 -0.112798
C14   C     C_3   0.457908 0.962719 0.584534 -0.018573
C15   C     C_3   0.539214 0.034684 0.413514 -0.041349
C16   C     C_R   0.389845 0.499806 0.500359 0.940094
C17   C     C_R   0.610519 0.500292 0.500247 0.900635
C18   C     C_3   0.473042 0.405269 0.046485 0.192137
C19   C     C_3   0.526728 0.594745 0.953431 0.141899
C20   C     C_3   0.524512 0.400495 0.951660 0.046846
C21   C     C_3   0.475473 0.599633 0.048125 0.024710
C22   C     C_3   0.448340 0.505856 0.950461 -0.185797
C23   C     C_R   0.232372 0.579606 0.487612 -0.147446
C24   C     C_3   0.551702 0.494537 0.049313 -0.194688
C25   C     C_R   0.883076 0.571235 0.405333 0.560469
C26   C     C_R   0.120403 0.424345 0.613195 0.575587
C27   C     C_R   0.880780 0.477116 0.623981 0.578442
C28   C     C_R   0.120652 0.483463 0.379944 0.576246
C29   C     C_R   0.941049 0.470488 0.629277 -0.077968
C30   C     C_R   0.060409 0.495567 0.378081 -0.090546
C31   C     C_R   0.971238 0.497475 0.508919 -0.012038
C32   C     C_R   0.030824 0.475487 0.501213 -0.009538
C33   C     C_R   0.941852 0.546956 0.396014 -0.041888
C34   C     C_R   0.766659 0.463123 0.406677 -0.137626
C35   C     C_R   0.060767 0.434674 0.617407 -0.034559
C36   C     C_R   0.972022 0.431807 0.746525 -0.036999
C37   C     C_R   0.028882 0.534372 0.261361 -0.039616
C38   C     C_R   0.031195 0.411936 0.737738 -0.191555
C39   C     C_R   0.970817 0.565777 0.274179 -0.185980
C40   C     C_2   0.946191 0.423048 0.883284 0.996978
C41   C     C_2   0.052901 0.537235 0.122565 0.995989
C42   C     C_2   0.559655 0.294679 0.895339 0.905435
C43   C     C_2   0.439588 0.706514 0.100229 0.906621
C44   C     C_3   0.437138 0.297723 0.100077 -0.344340
C45   C     C_R   0.291307 0.597708 0.488757 -0.040688
C46   C     C_3   0.388869 0.259923 0.002349 -0.424711
C47   C     C_3   0.410506 0.204411 0.869094 -0.721411
C48   C     C_3   0.561357 0.704439 0.902648 -0.354758
C49   C     C_3   0.592966 0.767841 0.020321 -0.358190
C50   C     C_3   0.623254 0.884494 0.973520 -0.799188
C51   C     C_2   0.312037 0.728106 0.483608 0.917063
C52   C     C_2   0.684913 0.366495 0.294317 0.917490
C53   C     C_2   0.224301 0.226562 0.537355 0.946978
C54   C     C_2   0.782641 0.670485 0.719533 0.960771
C55   C     C_3   0.608056 0.900355 0.583442 -0.403415
C56   C     C_R   0.707700 0.449169 0.401122 -0.061402
C57   C     C_3   0.647393 0.005605 0.630009 -0.326558
C58   C     C_3   0.709958 0.962323 0.632792 -0.760684
C59   C     C_3   0.390483 0.103454 0.410582 -0.431573
C60   C     C_3   0.364249 0.032678 0.291709 -0.365404
C61   C     C_3   0.304759 0.085582 0.256040 -0.808537
C62   C     C_2   0.414267 0.918636 0.684516 0.948859
C63   C     C_2   0.582483 0.066873 0.308375 0.969092
C64   C     C_R   0.327928 0.491677 0.502539 -0.102796
C65   C     C_R   0.673141 0.507032 0.501953 -0.127129
C66   C     C_R   0.305299 0.373742 0.526103 -0.323062
H1    H     H_    0.405128 0.515848 0.904166 0.165991
H2    H     H_    0.479212 0.921472 0.270187 0.211812
H3    H     H_    0.943569 0.330900 0.061010 0.349191
H4    H     H_    0.057970 0.629151 0.945079 0.350961
H5    H     H_    0.630576 0.242362 0.791440 0.326882
H6    H     H_    0.365490 0.758811 0.189933 0.340083
H7    H     H_    0.437395 0.119277 0.888410 0.283412
H8    H     H_    0.373367 0.178428 0.805433 0.273368
H9    H     H_    0.435231 0.273834 0.812541 0.269466
H10   H     H_    0.362655 0.188354 0.050792 0.244106
H11   H     H_    0.359607 0.341116 0.982170 0.240858
H12   H     H_    0.595263 0.487635 0.094287 0.174287
H13   H     H_    0.465129 0.215389 0.123492 0.262085
H14   H     H_    0.416605 0.329854 0.195409 0.203329
H15   H     H_    0.655369 0.859012 0.895065 0.267544
H16   H     H_    0.591587 0.953407 0.932267 0.289466
H17   H     H_    0.645787 0.927879 0.060317 0.284946
H18   H     H_    0.562401 0.795025 0.101948 0.250955
H19   H     H_    0.625493 0.701740 0.063634 0.242519
H20   H     H_    0.593004 0.668336 0.827771 0.207530
H21   H     H_    0.532183 0.773298 0.852704 0.266631
H22   H     H_    0.291596 0.912453 0.497826 0.387154
H23   H     H_    0.054611 0.382912 0.827493 0.245437
H24   H     H_    0.690387 0.303761 0.101515 0.350219
H25   H     H_    0.162529 0.103141 0.494683 0.366649
H26   H     H_    0.774358 0.739575 0.909421 0.370964
H27   H     H_    0.715567 0.882579 0.703007 0.249505
H28   H     H_    0.724265 0.933268 0.529865 0.286282
H29   H     H_    0.736967 0.040202 0.668467 0.265656
H30   H     H_    0.643330 0.088390 0.562727 0.262043
H31   H     H_    0.634533 0.036226 0.733034 0.211154
H32   H     H_    0.602238 0.833770 0.667621 0.184359
H33   H     H_    0.627278 0.847238 0.497113 0.223348
H34   H     H_    0.947347 0.598137 0.185622 0.237177
H35   H     H_    0.273652 0.064083 0.336626 0.283716
H36   H     H_    0.305605 0.188910 0.243709 0.259174
H37   H     H_    0.289767 0.042450 0.160105 0.272817
H38   H     H_    0.392697 0.038495 0.202223 0.246518
H39   H     H_    0.360541 0.933011 0.318273 0.265186
H40   H     H_    0.360095 0.104398 0.495850 0.255144
H41   H     H_    0.397121 0.201671 0.379805 0.182496
H42   H     H_    0.396053 0.802548 0.837333 0.358015
H43   H     H_    0.599156 0.155926 0.135544 0.366448
H44   H     H_    0.202908 0.658869 0.476985 0.195584
H45   H     H_    0.793753 0.414628 0.333333 0.188941
H46   H     H_    0.334183 0.296357 0.547622 0.154191
H47   H     H_    0.672054 0.624630 0.680270 0.178739
H48   H     H_    0.519540 0.072288 0.728750 0.220487
N1    N     N_R   0.853480 0.532320 0.516046 -0.340949
N2    N     N_R   0.148846 0.449858 0.496296 -0.336671
N3    N     N_3   0.499960 0.500030 0.863290 -0.137314
N4    N     N_3   0.500040 0.499970 0.136710 -0.140775
O1    O     O_R   0.500000 0.313960 0.616610 -0.635279
O2    O     O_2   0.150061 0.393384 0.726228 -0.521611
O3    O     O_2   0.849456 0.423515 0.721613 -0.514796
O4    O     O_2   0.151593 0.511106 0.269328 -0.505051
O5    O     O_2   0.912788 0.504841 0.923605 -0.549701
O6    O     O_R   0.962791 0.324877 0.969132 -0.770257
O7    O     O_2   0.080785 0.447466 0.079081 -0.544948
O8    O     O_R   0.040459 0.639374 0.038490 -0.775089
O9    O     O_2   0.547076 0.187065 0.919904 -0.694488
O10   O     O_R   0.608481 0.320560 0.820102 -0.769814
O11   O     O_2   0.450811 0.813745 0.069397 -0.670742
O12   O     O_R   0.500000 0.686040 0.383390 -0.622621
O13   O     O_R   0.390352 0.681383 0.174127 -0.763495
O14   O     O_2   0.363029 0.748801 0.473372 -0.664853
O15   O     O_R   0.272644 0.828366 0.493787 -0.779662
O16   O     O_2   0.645824 0.296883 0.320141 -0.623961
O17   O     O_R   0.709633 0.364540 0.165398 -0.767283
O18   O     O_2   0.251884 0.148537 0.602137 -0.601874
O19   O     O_R   0.172563 0.193483 0.476851 -0.783401
O20   O     O_2   0.827584 0.724696 0.702083 -0.591410
O21   O     O_R   0.753747 0.683496 0.842974 -0.788170
O22   O     O_2   0.365238 0.960466 0.681554 -0.626205
O23   O     O_R   0.500030 0.313950 0.383350 -0.598740
O24   O     O_R   0.429868 0.829415 0.781151 -0.776308
O25   O     O_2   0.631436 0.024543 0.315545 -0.634365
O26   O     O_R   0.565979 0.141310 0.199025 -0.761229
O27   O     O_R   0.499970 0.686050 0.616650 -0.605197
O28   O     O_R   0.416140 0.499970 0.616650 -0.618140
O29   O     O_R   0.583860 0.500030 0.383350 -0.607993
O30   O     O_R   0.416170 0.499960 0.383400 -0.583344
O31   O     O_R   0.583830 0.500040 0.616600 -0.587980
O32   O     O_2   0.855152 0.629561 0.302686 -0.512884
Zn1   Zn    Zn3+2 0.499980 0.500010 0.655740 0.979971
Zn2   Zn    Zn3+2 0.500020 0.499990 0.344260 0.996715

loop_
_geom_bond_atom_site_label_1
_geom_bond_atom_site_label_2
_ccdc_geom_bond_type
C22   N3    S    
C34   C56   A    
C23   C45   A    
C27   C29   A    
C52   O16   D    
C2    C4    A    
C2    C65   A    
H42   O24   S    
C39   H34   S    
C38   H23   S    
C33   C39   A    
C12   O12   A    
O23   Zn2   S    
C53   O19   S    
C7    H48   S    
C17   O29   A    
C58   H27   S    
C26   O2    S    
H22   O15   S    
O31   Zn1   S    
C8    C10   S    
C2    H47   S    
C28   O4    S    
C45   C51   S    
C56   C65   A    
C14   C62   S    
C16   O28   A    
C1    O1    A    
C23   H44   S    
C20   C24   S    
C36   C40   S    
C28   N2    A    
C21   C43   S    
C7    C14   S    
C54   O21   S    
C22   H1    S    
C57   H30   S    
C5    C23   A    
C63   O26   S    
C31   C33   A    
C9    C55   S    
C18   N4    S    
C42   O10   S    
C4    C54   S    
H4    O8    S    
C59   C60   S    
H25   O19   S    
C21   C22   S    
C37   C41   S    
C34   H45   S    
C53   O18   D    
C62   O24   S    
C46   H10   S    
C20   N3    S    
C44   C46   S    
C50   H17   S    
O1    Zn1   S    
C40   O6    S    
C59   H40   S    
C32   C35   A    
C41   O7    D    
C44   H14   S    
C35   C38   A    
C47   H7    S    
C4    C6    A    
C10   C14   S    
C19   C48   S    
C43   O13   S    
H3    O6    S    
C59   H41   S    
C6    C34   A    
C30   C37   A    
C25   O32   S    
C64   C66   A    
C12   O27   A    
C61   H35   S    
C58   H29   S    
C21   N4    S    
C18   C44   S    
C31   C32   A    
C29   C36   A    
C43   O11   D    
C11   C12   S    
C57   H31   S    
C48   H21   S    
N3    Zn1   S    
C55   C57   S    
N4    Zn2   S    
C9    C11   S    
O27   Zn1   S    
C42   O9    D    
C24   H12   S    
C48   C49   S    
C8    H2    S    
C8    C15   S    
C13   C15   S    
C5    N2    S    
O12   Zn2   S    
C51   O15   S    
C48   H20   S    
H5    O10   S    
C3    C66   A    
C1    C13   S    
C50   H16   S    
H6    O13   S    
C49   H18   S    
C7    C9    S    
C40   O5    D    
C46   C47   S    
C15   C63   S    
C61   H37   S    
C18   C22   S    
C24   N4    S    
C41   O8    S    
C44   H13   S    
C17   O31   A    
O30   Zn2   S    
C47   H8    S    
C3    C5    A    
C10   C13   S    
C46   H11   S    
C20   C42   S    
C51   O14   D    
C45   C64   A    
C17   C65   S    
C16   O30   A    
C62   O22   D    
C25   N1    A    
C19   C24   S    
C9    C15   S    
C47   H9    S    
C28   C30   A    
C29   C31   A    
C30   C32   A    
H24   O17   S    
C3    C53   S    
C57   C58   S    
C54   O20   D    
C8    C11   S    
C55   H32   S    
C36   C38   A    
C11   C14   S    
O29   Zn2   S    
H43   O26   S    
C18   C20   S    
C58   H28   S    
C26   N2    A    
C6    N1    S    
C1    O23   A    
O28   Zn1   S    
C26   C35   A    
C7    C13   S    
C19   N3    S    
C37   C39   A    
C49   C50   S    
C55   H33   S    
C27   O3    S    
C52   O17   S    
C63   O25   D    
C60   C61   S    
C16   C64   S    
C49   H19   S    
C66   H46   S    
C60   H38   S    
H26   O21   S    
C10   C59   S    
C61   H36   S    
C60   H39   S    
C52   C56   S    
C50   H15   S    
C25   C33   A    
C19   C21   S    
C27   N1    A    
