data_mof_unit_pretest_572.cif
_audit_creation_date              2012-12-10T17:30:26-0500
_audit_creation_method            fapswitch 2.2
_symmetry_space_group_name_H-M    P1
_symmetry_Int_Tables_number       1
_space_group_crystal_system       triclinic
_cell_length_a                    11.975784
_cell_length_b                    12.845889
_cell_length_c                    15.010457
_cell_angle_alpha                 90.123043
_cell_angle_beta                  86.214504
_cell_angle_gamma                 93.941718
_cell_volume                      2298.70724065

loop_
_atom_site_label
_atom_site_type_symbol
_atom_type_description
_atom_site_fract_x
_atom_site_fract_y
_atom_site_fract_z
_atom_type_partial_charge
C1    C     C_R   0.522674 0.700516 0.497782 0.919251
C2    C     C_R   0.363648 0.136688 0.476563 -0.298584
C3    C     C_R   0.446817 0.867084 0.475073 -0.250455
C4    C     C_R   0.553184 0.132916 0.524926 -0.250453
C5    C     C_R   0.450549 0.973787 0.485452 0.003390
C6    C     C_R   0.549452 0.026213 0.514547 0.003394
C7    C     C_R   0.952778 0.394165 0.424549 -0.345280
C8    C     C_R   0.047222 0.605834 0.575452 -0.345283
C9    C     C_R   0.836829 0.405326 0.430726 0.019686
C10   C     C_R   0.163171 0.594674 0.569275 0.019682
C11   C     C_R   0.859295 0.547010 0.531090 -0.054024
C12   C     C_R   0.477326 0.299484 0.502218 0.919253
C13   C     C_R   0.140705 0.452990 0.468910 -0.054024
C14   C     C_R   0.976417 0.538813 0.527007 0.098304
C15   C     C_R   0.023583 0.461186 0.472994 0.098300
C16   C     C_R   0.500220 0.500166 0.673431 0.897487
C17   C     C_R   0.499780 0.499834 0.326569 0.897486
C18   C     C_R   0.600497 0.490812 0.179541 -0.256709
C19   C     C_R   0.399503 0.509189 0.820459 -0.256709
C20   C     C_R   0.499581 0.499642 0.230656 -0.075356
C21   C     C_R   0.500419 0.500359 0.769344 -0.075357
C22   C     C_R   0.398763 0.508390 0.190153 -0.255501
C23   C     C_R   0.297946 0.517750 0.964251 -0.216568
C24   C     C_R   0.601237 0.491611 0.809847 -0.255500
C25   C     C_R   0.398177 0.508609 0.098009 0.118286
C26   C     C_R   0.601824 0.491392 0.901991 0.118286
C27   C     C_R   0.499897 0.499875 0.046350 0.061997
C28   C     C_R   0.500104 0.500126 0.953650 0.061997
C29   C     C_R   0.601418 0.490902 0.087376 0.117619
C30   C     C_R   0.398582 0.509099 0.912624 0.117620
C31   C     C_R   0.297742 0.517493 0.056819 -0.214325
C32   C     C_R   0.702258 0.482508 0.943181 -0.214324
C33   C     C_3   0.816416 0.044019 0.487440 0.076032
C34   C     C_R   0.702054 0.482251 0.035749 -0.216568
C35   C     C_3   0.914365 0.114127 0.517464 -0.821199
C36   C     C_3   0.183595 0.955980 0.512583 0.076021
C37   C     C_3   0.085647 0.885861 0.482574 -0.821205
C38   C     C_R   0.462631 0.187946 0.503143 -0.136239
C39   C     C_R   0.537369 0.812054 0.496856 -0.136237
C40   C     C_R   0.643660 0.971240 0.531101 0.489812
C41   C     C_R   0.356340 0.028760 0.468902 0.489824
C42   C     C_R   0.636351 0.863312 0.523439 -0.298578
H1    H     H_    0.678458 0.483882 0.211265 0.163035
H2    H     H_    0.780310 0.475336 0.066933 0.145645
H3    H     H_    0.628206 0.174095 0.547506 0.210564
H4    H     H_    0.371795 0.825906 0.452493 0.210566
H5    H     H_    0.293625 0.180081 0.459304 0.169508
H6    H     H_    0.706373 0.819918 0.540701 0.169508
H7    H     H_    0.178653 0.394185 0.427437 0.122756
H8    H     H_    0.821347 0.605815 0.572563 0.122757
H9    H     H_    0.217808 0.646686 0.606324 0.133784
H10   H     H_    0.782191 0.353313 0.393676 0.133782
H11   H     H_    0.777398 0.085786 0.433617 0.135076
H12   H     H_    0.321542 0.516119 0.788734 0.163035
H13   H     H_    0.848948 0.970594 0.460023 0.146559
H14   H     H_    0.954110 0.076029 0.572430 0.258827
H15   H     H_    0.977718 0.129081 0.460717 0.207808
H16   H     H_    0.884326 0.189780 0.541549 0.259970
H17   H     H_    0.151060 0.029405 0.539998 0.146567
H18   H     H_    0.222627 0.914222 0.566404 0.135082
H19   H     H_    0.115690 0.810208 0.458490 0.259970
H20   H     H_    0.022307 0.870907 0.539329 0.207807
H21   H     H_    0.045887 0.923949 0.427612 0.258829
H22   H     H_    0.986572 0.333612 0.382565 0.146955
H23   H     H_    0.013427 0.666387 0.617437 0.146955
H24   H     H_    0.320779 0.515184 0.230119 0.163807
H25   H     H_    0.679221 0.484816 0.769881 0.163806
H26   H     H_    0.219348 0.524234 0.096125 0.146724
H27   H     H_    0.780652 0.475768 0.903875 0.146724
H28   H     H_    0.219690 0.524666 0.933067 0.145645
N1    N     N_R   0.207800 0.519350 0.516680 -0.101458
N2    N     N_R   0.792200 0.480650 0.483320 -0.101459
O1    O     O_R   0.421700 0.658830 0.504450 -0.632492
O2    O     O_3   0.260499 0.978165 0.438630 -0.615356
O3    O     O_R   0.578300 0.341170 0.495550 -0.632493
O4    O     O_R   0.609310 0.646410 0.493750 -0.625490
O5    O     O_R   0.390690 0.353590 0.506250 -0.625490
O6    O     O_R   0.406180 0.506230 0.637500 -0.628520
O7    O     O_R   0.593820 0.493770 0.362500 -0.628521
O8    O     O_R   0.593800 0.493820 0.626800 -0.627843
O9    O     O_R   0.406200 0.506180 0.373200 -0.627844
O10   O     O_3   0.739496 0.021834 0.561385 -0.615351
Zn1   Zn    Zn3+2 0.374730 0.508290 0.507150 0.942512
Zn2   Zn    Zn3+2 0.625270 0.491710 0.492850 0.942512

loop_
_geom_bond_atom_site_label_1
_geom_bond_atom_site_label_2
_ccdc_geom_bond_type
C25   C31   A    
C26   C32   A    
C16   C21   S    
C27   C29   A    
C9    N2    A    
O8    Zn2   S    
C36   H17   S    
O4    Zn2   S    
C37   H20   S    
C35   H16   S    
C36   C37   S    
C19   C21   A    
C24   C26   A    
O7    Zn2   S    
C11   C14   A    
O3    Zn2   S    
O5    Zn1   S    
C2    C41   A    
C17   O7    A    
C17   C20   S    
C18   C20   A    
C22   H24   S    
C24   H25   S    
C37   H21   S    
C41   O2    S    
O6    Zn1   S    
C22   C25   A    
C33   O10   S    
C16   O6    A    
C10   N1    A    
C40   C42   A    
C3    C39   A    
C8    H23   S    
C23   H28   S    
C9    H10   S    
C10   H9    S    
O9    Zn1   S    
C39   C42   A    
N1    Zn1   S    
C4    H3    S    
C33   H11   S    
C31   H26   S    
C23   C30   A    
C40   O10   S    
C34   H2    S    
C4    C6    A    
C11   N2    A    
C13   N1    A    
C3    C5    A    
C29   C34   A    
C16   O8    A    
C23   C31   A    
C2    C38   A    
C12   O5    A    
C33   H13   S    
C18   C29   A    
C42   H6    S    
N2    Zn2   S    
C36   O2    S    
C13   H7    S    
C19   H12   S    
C20   C22   A    
C13   C15   A    
C6    C40   A    
C12   O3    A    
C7    C9    A    
C5    C41   A    
C8    C14   A    
C35   H14   S    
C1    O4    A    
C4    C38   A    
C36   H18   S    
C37   H19   S    
C32   H27   S    
C2    H5    S    
C25   C27   A    
C3    H4    S    
C26   C28   A    
C35   H15   S    
C1    O1    A    
C28   C30   A    
C11   H8    S    
C18   H1    S    
C5    C6    A    
C7    C15   A    
C33   C35   S    
C17   O9    A    
C12   C38   S    
C7    H22   S    
C1    C39   S    
C8    C10   A    
C21   C24   A    
C27   C28   A    
C14   C15   A    
C19   C30   A    
O1    Zn1   S    
C32   C34   A    
