data_mof_unit_pretest_1366.cif
_audit_creation_date              2013-03-05T16:16:47-0500
_audit_creation_method            fapswitch 2.2
_symmetry_space_group_name_H-M    P1
_symmetry_Int_Tables_number       1
_space_group_crystal_system       triclinic
_cell_length_a                    24.672382
_cell_length_b                    24.585641
_cell_length_c                    27.792904
_cell_angle_alpha                 90.007703
_cell_angle_beta                  90.014228
_cell_angle_gamma                 90.023176
_cell_volume                      16858.7934876

loop_
_atom_site_label
_atom_site_type_symbol
_atom_site_description
_atom_site_fract_x
_atom_site_fract_y
_atom_site_fract_z
_atom_type_partial_charge
Zn1   Zn    Zn3+2 0.000000 0.564980 0.710170 1.082762
Zn2   Zn    Zn3+2 0.000000 0.435020 0.289830 1.079180
Zn3   Zn    Zn3+2 0.564980 0.000000 0.710170 1.079869
Zn4   Zn    Zn3+2 0.435020 0.000000 0.289830 1.082166
Zn5   Zn    Zn3+2 0.000000 0.435020 0.710170 1.080327
Zn6   Zn    Zn3+2 1.000000 0.564980 0.289830 1.081906
Zn7   Zn    Zn3+2 0.435020 0.000000 0.710170 1.080313
Zn8   Zn    Zn3+2 0.564980 0.000000 0.289830 1.081849
Zn9   Zn    Zn3+2 0.500000 0.064980 0.210170 1.082647
Zn10  Zn    Zn3+2 0.500000 0.935020 0.789830 1.080308
Zn11  Zn    Zn3+2 0.064980 0.500000 0.210170 1.082265
Zn12  Zn    Zn3+2 0.935020 0.500000 0.789830 1.081243
Zn13  Zn    Zn3+2 0.500000 0.935020 0.210170 1.078983
Zn14  Zn    Zn3+2 0.500000 0.064980 0.789830 1.081287
Zn15  Zn    Zn3+2 0.935020 0.500000 0.210170 1.079775
Zn16  Zn    Zn3+2 0.064980 0.500000 0.789830 1.082766
C1    C     C_R   0.764640 0.721188 0.741363 -0.216208
C2    C     C_R   0.230838 0.273109 0.251086 -0.199807
C3    C     C_R   0.726772 0.230699 0.749909 -0.196801
C4    C     C_R   0.269147 0.773075 0.247070 -0.206546
C5    C     C_R   0.228493 0.270997 0.752544 -0.195637
C6    C     C_R   0.775532 0.732923 0.243228 -0.208306
C7    C     C_R   0.270471 0.772307 0.751511 -0.195800
C8    C     C_R   0.733226 0.223848 0.245640 -0.208387
C9    C     C_R   0.226530 0.730204 0.247488 -0.196505
C10   C     C_R   0.770225 0.272619 0.750714 -0.206363
C11   C     C_R   0.274811 0.231659 0.252350 -0.199937
C12   C     C_R   0.722631 0.764808 0.740959 -0.200645
C13   C     C_R   0.777014 0.265432 0.245173 -0.201217
C14   C     C_R   0.227830 0.729472 0.751434 -0.208153
C15   C     C_R   0.732591 0.775529 0.244406 -0.200647
C16   C     C_R   0.271087 0.228299 0.752707 -0.213573
O1    O     O_3   0.000000 0.500000 0.750000 -0.563752
O2    O     O_3   1.000000 0.500000 0.250000 -0.564307
O3    O     O_3   0.500000 0.000000 0.750000 -0.564098
O4    O     O_3   0.500000 0.000000 0.250000 -0.563365
O5    O     O_R   0.954530 0.500000 0.856260 -0.611840
O6    O     O_R   0.045470 0.500000 0.143740 -0.609313
O7    O     O_R   0.500000 0.045470 0.856260 -0.612124
O8    O     O_R   0.500000 0.954530 0.143740 -0.611142
O9    O     O_R   0.045470 0.500000 0.856260 -0.609309
O10   O     O_R   0.954530 0.500000 0.143740 -0.608949
O11   O     O_R   0.500000 0.954530 0.856260 -0.605884
O12   O     O_R   0.500000 0.045470 0.143740 -0.611908
O13   O     O_R   0.454530 0.000000 0.356260 -0.607242
O14   O     O_R   0.545470 0.000000 0.643740 -0.605541
O15   O     O_R   0.000000 0.545470 0.356260 -0.609156
O16   O     O_R   1.000000 0.454530 0.643740 -0.613837
O17   O     O_R   0.545470 0.000000 0.356260 -0.614384
O18   O     O_R   0.454530 0.000000 0.643740 -0.612732
O19   O     O_R   1.000000 0.454530 0.356260 -0.610072
O20   O     O_R   0.000000 0.545470 0.643740 -0.608671
O21   O     O_R   0.109480 0.563990 0.777850 -0.598702
O22   O     O_R   0.890520 0.436010 0.222150 -0.584428
O23   O     O_R   0.563990 0.890520 0.777850 -0.598108
O24   O     O_R   0.436010 0.109480 0.222150 -0.584439
O25   O     O_R   0.890520 0.436010 0.777850 -0.601346
O26   O     O_R   0.109480 0.563990 0.222150 -0.582322
O27   O     O_R   0.436010 0.109480 0.777850 -0.599929
O28   O     O_R   0.563990 0.890520 0.222150 -0.590327
O29   O     O_R   0.890520 0.563990 0.222150 -0.594040
O30   O     O_R   0.109480 0.436010 0.777850 -0.582601
O31   O     O_R   0.436010 0.890520 0.222150 -0.596732
O32   O     O_R   0.563990 0.109480 0.777850 -0.579316
O33   O     O_R   0.109480 0.436010 0.222150 -0.596580
O34   O     O_R   0.890520 0.563990 0.777850 -0.583633
O35   O     O_R   0.563990 0.109480 0.222150 -0.601039
O36   O     O_R   0.436010 0.890520 0.777850 -0.585291
O37   O     O_R   0.609480 0.063990 0.277850 -0.598301
O38   O     O_R   0.390520 0.936010 0.722150 -0.580244
O39   O     O_R   0.063990 0.390520 0.277850 -0.598749
O40   O     O_R   0.936010 0.609480 0.722150 -0.585161
O41   O     O_R   0.390520 0.936010 0.277850 -0.599434
O42   O     O_R   0.609480 0.063990 0.722150 -0.586487
O43   O     O_R   0.936010 0.609480 0.277850 -0.600386
O44   O     O_R   0.063990 0.390520 0.722150 -0.581448
O45   O     O_R   0.390520 0.063990 0.722150 -0.599403
O46   O     O_R   0.609480 0.936010 0.277850 -0.575414
O47   O     O_R   0.936010 0.390520 0.722150 -0.600017
O48   O     O_R   0.063990 0.609480 0.277850 -0.583135
O49   O     O_R   0.609480 0.936010 0.722150 -0.593715
O50   O     O_R   0.390520 0.063990 0.277850 -0.584252
O51   O     O_R   0.063990 0.609480 0.722150 -0.599579
O52   O     O_R   0.936010 0.390520 0.277850 -0.582214
C17   C     C_1   0.999997 0.499995 0.569018 -0.081635
C18   C     C_1   0.000004 0.500006 0.430982 -0.081717
C19   C     C_1   0.499988 0.999995 0.569040 -0.079782
C20   C     C_1   0.500012 1.000000 0.430960 -0.080725
C21   C     C_1   0.499995 0.999994 0.069017 -0.084522
C22   C     C_1   0.499997 0.000006 0.930982 -0.082054
C23   C     C_1   0.999988 0.500004 0.069041 -0.079160
C24   C     C_1   0.000015 0.499999 0.930960 -0.081433
C25   C     C_1   0.999999 0.499997 0.525499 0.036964
C26   C     C_1   0.000003 0.500004 0.474501 0.037213
C27   C     C_1   0.499995 0.999994 0.525509 0.037340
C28   C     C_1   0.500006 0.999997 0.474491 0.036965
C29   C     C_1   0.499994 0.999996 0.025499 0.035357
C30   C     C_1   0.499995 0.000003 0.974501 0.036041
C31   C     C_1   0.999996 0.500004 0.025509 0.037176
C32   C     C_1   0.000009 0.500001 0.974492 0.036786
C33   C     C_R   0.000005 0.499998 0.879097 0.812256
C34   C     C_R   0.999995 0.500003 0.120903 0.811523
C35   C     C_R   0.499999 0.000003 0.879140 0.813354
C36   C     C_R   0.499997 0.999997 0.120860 0.812004
C37   C     C_R   0.500004 0.000002 0.379097 0.812023
C38   C     C_R   0.499995 0.999997 0.620903 0.809962
C39   C     C_R   0.000003 0.500003 0.379140 0.813530
C40   C     C_R   0.999997 0.499997 0.620860 0.813676
C41   C     C_R   0.105081 0.605218 0.750057 0.920023
C42   C     C_R   0.895010 0.394534 0.249854 0.925687
C43   C     C_R   0.605012 0.894444 0.749645 0.894011
C44   C     C_R   0.395301 0.105524 0.250328 0.946070
C45   C     C_R   0.894926 0.394811 0.750091 0.926683
C46   C     C_R   0.104975 0.605208 0.249893 0.942816
C47   C     C_R   0.394915 0.105213 0.750172 0.930031
C48   C     C_R   0.604794 0.894418 0.250343 0.925531
C49   C     C_R   0.895032 0.605412 0.249754 0.910631
C50   C     C_R   0.105001 0.394596 0.750259 0.935202
C51   C     C_R   0.394690 0.894894 0.249786 0.908828
C52   C     C_R   0.605097 0.105276 0.750012 0.931169
C53   C     C_R   0.105404 0.394998 0.250366 0.913245
C54   C     C_R   0.894554 0.604823 0.749507 0.940349
C55   C     C_R   0.605445 0.104858 0.249475 0.938594
C56   C     C_R   0.394824 0.894857 0.750089 0.932140
C57   C     C_R   0.776744 0.694067 0.785416 0.365298
C58   C     C_R   0.242151 0.327003 0.235252 0.375528
C59   C     C_R   0.690169 0.225794 0.789175 0.343323
C60   C     C_R   0.322953 0.759994 0.232471 0.362065
C61   C     C_R   0.222820 0.307339 0.792122 0.349002
C62   C     C_R   0.761805 0.678517 0.230382 0.356902
C63   C     C_R   0.305794 0.778461 0.791646 0.344720
C64   C     C_R   0.678703 0.239435 0.235801 0.365432
C65   C     C_R   0.217736 0.696918 0.206267 0.350924
C66   C     C_R   0.757358 0.328153 0.759884 0.366643
C67   C     C_R   0.307140 0.222926 0.210889 0.360008
C68   C     C_R   0.670947 0.755617 0.762350 0.362286
C69   C     C_R   0.782919 0.301496 0.205323 0.348780
C70   C     C_R   0.241212 0.674615 0.763127 0.369281
C71   C     C_R   0.695307 0.781341 0.205726 0.372975
C72   C     C_R   0.326061 0.242351 0.762100 0.371636
C73   C     C_R   0.284301 0.199635 0.294279 0.344860
C74   C     C_R   0.735125 0.817418 0.722518 0.336183
C75   C     C_R   0.194392 0.721824 0.289357 0.340184
C76   C     C_R   0.825331 0.257722 0.742184 0.366740
C77   C     C_R   0.725786 0.808356 0.286150 0.339923
C78   C     C_R   0.257424 0.172964 0.743005 0.381004
C79   C     C_R   0.811267 0.271596 0.285946 0.348207
C80   C     C_R   0.173188 0.742732 0.739512 0.371086
C81   C     C_R   0.722396 0.194209 0.710371 0.342661
C82   C     C_R   0.257091 0.827342 0.261905 0.366019
C83   C     C_R   0.796662 0.709391 0.699755 0.373321
C84   C     C_R   0.177461 0.259906 0.266780 0.350889
C85   C     C_R   0.276718 0.806973 0.710956 0.344115
C86   C     C_R   0.745283 0.168325 0.255653 0.365779
C87   C     C_R   0.192731 0.275470 0.712571 0.344901
C88   C     C_R   0.829568 0.744618 0.258462 0.380224
C89   C     C_R   0.815209 0.652684 0.786288 0.173276
C90   C     C_R   0.200847 0.365709 0.233553 0.169695
C91   C     C_R   0.650688 0.185128 0.788880 0.175728
C92   C     C_R   0.362332 0.800643 0.230266 0.167489
C93   C     C_R   0.183254 0.347948 0.790579 0.171664
C94   C     C_R   0.801820 0.638510 0.228914 0.162631
C95   C     C_R   0.347214 0.817075 0.790182 0.168471
C96   C     C_R   0.637970 0.199916 0.234079 0.168506
C97   C     C_R   0.179330 0.655335 0.207914 0.174332
C98   C     C_R   0.798804 0.366521 0.763168 0.175087
C99   C     C_R   0.347794 0.183660 0.211191 0.174144
C100  C     C_R   0.634881 0.798884 0.768057 0.168296
C101  C     C_R   0.819534 0.344727 0.208226 0.166999
C102  C     C_R   0.200355 0.635560 0.765877 0.169570
C103  C     C_R   0.650279 0.814928 0.211032 0.172167
C104  C     C_R   0.365261 0.201516 0.764844 0.166487
C105  C     C_R   0.322578 0.157725 0.292923 0.177782
C106  C     C_R   0.695497 0.858023 0.722707 0.165160
C107  C     C_R   0.153934 0.682202 0.289389 0.176831
C108  C     C_R   0.864956 0.298261 0.738549 0.168444
C109  C     C_R   0.686327 0.849130 0.286879 0.165722
C110  C     C_R   0.298455 0.134114 0.739197 0.170322
C111  C     C_R   0.850662 0.312458 0.286584 0.167325
C112  C     C_R   0.134561 0.701436 0.735809 0.170925
C113  C     C_R   0.683223 0.153268 0.710842 0.172098
C114  C     C_R   0.298998 0.865310 0.265854 0.175243
C115  C     C_R   0.841891 0.675637 0.704513 0.177841
C116  C     C_R   0.138143 0.300662 0.269785 0.165026
C117  C     C_R   0.315931 0.847830 0.711405 0.171992
C118  C     C_R   0.703314 0.129974 0.257689 0.173541
C119  C     C_R   0.151433 0.314247 0.712901 0.164379
C120  C     C_R   0.866535 0.702032 0.264293 0.173300
C121  C     C_R   0.850349 0.645057 0.746842 -0.397629
C122  C     C_R   0.148597 0.353311 0.251320 -0.404769
C123  C     C_R   0.646972 0.148228 0.749976 -0.388389
C124  C     C_R   0.351597 0.853080 0.248770 -0.407411
C125  C     C_R   0.146979 0.351714 0.751211 -0.388926
C126  C     C_R   0.853869 0.649021 0.248026 -0.407896
C127  C     C_R   0.352232 0.852710 0.750518 -0.389445
C128  C     C_R   0.649375 0.145573 0.247132 -0.401962
C129  C     C_R   0.146648 0.648031 0.249119 -0.388051
C130  C     C_R   0.852415 0.352664 0.750420 -0.405612
C131  C     C_R   0.354646 0.149383 0.251493 -0.389626
C132  C     C_R   0.645825 0.850173 0.747159 -0.404845
C133  C     C_R   0.854222 0.350423 0.248422 -0.392298
C134  C     C_R   0.147173 0.647841 0.750483 -0.407024
C135  C     C_R   0.647242 0.852074 0.249762 -0.398057
C136  C     C_R   0.352493 0.147487 0.751185 -0.406518
O53   O     O_3   0.748579 0.703670 0.827822 -0.544112
C137  C     C_3   0.758304 0.756441 0.846117 0.155008
H1    H     H_    0.718638 0.777552 0.849111 0.192191
H2    H     H_    0.785241 0.782093 0.823443 0.078324
C138  C     C_3   0.782753 0.751898 0.896311 -0.305842
H3    H     H_    0.757701 0.724017 0.918640 0.261233
H4    H     H_    0.824219 0.734688 0.893449 0.241155
C139  C     C_3   0.785265 0.807518 0.920573 -0.972391
H5    H     H_    0.806049 0.837447 0.896952 0.267851
H6    H     H_    0.808154 0.804341 0.954830 0.276143
H7    H     H_    0.743650 0.822220 0.928542 0.282269
O54   O     O_3   0.291384 0.341718 0.214907 -0.543254
C140  C     C_3   0.333598 0.344924 0.249058 0.154045
H8    H     H_    0.366846 0.317871 0.236532 0.198745
H9    H     H_    0.322214 0.331798 0.285916 0.075454
C141  C     C_3   0.354684 0.403293 0.250564 -0.304349
H10   H     H_    0.361833 0.418094 0.213282 0.271071
H11   H     H_    0.323677 0.429733 0.267604 0.239855
C142  C     C_3   0.407533 0.407077 0.278783 -0.947117
H12   H     H_    0.401799 0.391168 0.315830 0.264478
H13   H     H_    0.420609 0.450215 0.280846 0.274534
H14   H     H_    0.439744 0.383234 0.260458 0.285468
O55   O     O_3   0.685399 0.265668 0.824167 -0.551289
C143  C     C_3   0.727889 0.263969 0.858002 0.162221
H15   H     H_    0.734823 0.306506 0.870148 0.213254
H16   H     H_    0.766958 0.249200 0.843241 0.081541
C144  C     C_3   0.710912 0.229682 0.901039 -0.328132
H17   H     H_    0.669058 0.240767 0.912173 0.287924
H18   H     H_    0.711530 0.186070 0.890660 0.230069
C145  C     C_3   0.748943 0.238564 0.943325 -0.951690
H19   H     H_    0.791586 0.231023 0.932523 0.263317
H20   H     H_    0.737619 0.209771 0.972157 0.281867
H21   H     H_    0.744977 0.280832 0.957125 0.288793
O56   O     O_3   0.337242 0.709857 0.213206 -0.551913
C146  C     C_3   0.335118 0.667072 0.247067 0.161465
H22   H     H_    0.306058 0.636176 0.233285 0.202758
H23   H     H_    0.321501 0.679391 0.283592 0.073713
C147  C     C_3   0.391065 0.640750 0.250328 -0.297003
H24   H     H_    0.408087 0.635306 0.213582 0.274455
H25   H     H_    0.418513 0.668027 0.270847 0.230537
C148  C     C_3   0.388268 0.585291 0.274839 -0.951713
H26   H     H_    0.368502 0.588847 0.310584 0.265178
H27   H     H_    0.429893 0.569079 0.279717 0.271474
H28   H     H_    0.364940 0.556237 0.252217 0.287365
O57   O     O_3   0.260884 0.311395 0.828920 -0.548815
C149  C     C_3   0.259566 0.267118 0.861221 0.186444
H29   H     H_    0.296409 0.271296 0.884521 0.200468
H30   H     H_    0.263233 0.227030 0.842960 0.102278
C150  C     C_3   0.209187 0.268440 0.893965 -0.379167
H31   H     H_    0.205918 0.309064 0.911938 0.280395
H32   H     H_    0.171918 0.261205 0.871919 0.212842
C151  C     C_3   0.213347 0.224402 0.932513 -0.929647
H33   H     H_    0.215118 0.183192 0.915080 0.262750
H34   H     H_    0.176951 0.226564 0.956764 0.274158
H35   H     H_    0.250885 0.230555 0.954864 0.266926
O58   O     O_3   0.711670 0.664548 0.211374 -0.544906
C152  C     C_3   0.670989 0.661107 0.246944 0.159671
H36   H     H_    0.632446 0.673502 0.229331 0.219039
H37   H     H_    0.677055 0.689185 0.277818 0.080541
C153  C     C_3   0.665181 0.602456 0.264517 -0.339343
H38   H     H_    0.668113 0.573986 0.233536 0.286813
H39   H     H_    0.698582 0.593275 0.290026 0.220166
C154  C     C_3   0.610781 0.593623 0.289458 -0.938735
H40   H     H_    0.605692 0.622956 0.319504 0.264434
H41   H     H_    0.608816 0.551605 0.303971 0.273123
H42   H     H_    0.577063 0.599013 0.263348 0.281452
O59   O     O_3   0.307578 0.741373 0.829271 -0.552281
C155  C     C_3   0.261627 0.744347 0.859212 0.170104
H43   H     H_    0.255426 0.703048 0.874610 0.209797
H44   H     H_    0.223663 0.755159 0.840225 0.085724
C156  C     C_3   0.271687 0.784273 0.900035 -0.333735
H45   H     H_    0.311200 0.775186 0.917544 0.280408
H46   H     H_    0.272987 0.826230 0.885302 0.227741
C157  C     C_3   0.226705 0.780339 0.937205 -0.976231
H47   H     H_    0.186362 0.784840 0.919941 0.266649
H48   H     H_    0.232054 0.813542 0.963681 0.283987
H49   H     H_    0.228624 0.740326 0.955825 0.288197
O60   O     O_3   0.663982 0.291735 0.221611 -0.548492
C158  C     C_3   0.674628 0.331812 0.256916 0.162336
H50   H     H_    0.703401 0.361652 0.241149 0.201154
H51   H     H_    0.692619 0.315885 0.290747 0.074739
C159  C     C_3   0.622346 0.362055 0.268798 -0.309197
H52   H     H_    0.600379 0.372284 0.235053 0.270094
H53   H     H_    0.596030 0.335335 0.290967 0.225650
C160  C     C_3   0.634390 0.414589 0.296116 -0.949301
H54   H     H_    0.659482 0.405993 0.328415 0.264668
H55   H     H_    0.595843 0.433810 0.307633 0.270087
H56   H     H_    0.656501 0.443597 0.272508 0.289119
O61   O     O_3   0.251826 0.697263 0.166558 -0.552284
C161  C     C_3   0.248510 0.745741 0.139701 0.168083
H57   H     H_    0.290416 0.756181 0.128161 0.210628
H58   H     H_    0.232719 0.781262 0.159819 0.079700
C162  C     C_3   0.213818 0.736239 0.095265 -0.321379
H59   H     H_    0.226567 0.698010 0.077063 0.275858
H60   H     H_    0.170777 0.732139 0.106342 0.229997
C163  C     C_3   0.219588 0.783443 0.060307 -0.979910
H61   H     H_    0.214581 0.823000 0.079041 0.267772
H62   H     H_    0.187822 0.779872 0.032327 0.283245
H63   H     H_    0.260344 0.782173 0.043237 0.287908
O62   O     O_3   0.705891 0.345978 0.772679 -0.552530
C164  C     C_3   0.667599 0.340786 0.735235 0.170493
H64   H     H_    0.638747 0.307889 0.744989 0.192592
H65   H     H_    0.685458 0.331060 0.699588 0.072054
C165  C     C_3   0.635821 0.394019 0.731393 -0.298832
H66   H     H_    0.625598 0.409193 0.768024 0.268661
H67   H     H_    0.661427 0.425041 0.713375 0.227428
C166  C     C_3   0.583254 0.386375 0.703261 -0.950386
H68   H     H_    0.591707 0.368264 0.667431 0.264605
H69   H     H_    0.563217 0.426408 0.698217 0.269614
H70   H     H_    0.555220 0.359340 0.723449 0.288595
O63   O     O_3   0.302439 0.255189 0.170091 -0.537134
C167  C     C_3   0.257415 0.239523 0.141550 0.173220
H71   H     H_    0.225207 0.272281 0.144447 0.159062
H72   H     H_    0.237694 0.199878 0.153270 0.047204
C168  C     C_3   0.277193 0.233374 0.088994 -0.309442
H73   H     H_    0.321791 0.226253 0.088754 0.288523
H74   H     H_    0.257669 0.196713 0.071963 0.173565
C169  C     C_3   0.264414 0.284000 0.057888 -0.776281
H75   H     H_    0.220001 0.286282 0.050988 0.241278
H76   H     H_    0.285554 0.280838 0.022446 0.250182
H77   H     H_    0.278345 0.322267 0.076441 0.305245
O64   O     O_3   0.657888 0.708149 0.786968 -0.548463
C170  C     C_3   0.653473 0.662063 0.756919 0.160858
H78   H     H_    0.687139 0.633783 0.766308 0.194458
H79   H     H_    0.655912 0.671293 0.717692 0.069067
C171  C     C_3   0.599421 0.633723 0.767875 -0.282918
H80   H     H_    0.590924 0.635368 0.807254 0.278010
H81   H     H_    0.566168 0.655590 0.748921 0.220620
C172  C     C_3   0.600028 0.574085 0.752486 -0.928159
H82   H     H_    0.613720 0.570170 0.714503 0.258157
H83   H     H_    0.558463 0.556845 0.755858 0.272585
H84   H     H_    0.627719 0.550317 0.776196 0.294771
O65   O     O_3   0.747025 0.302617 0.166713 -0.550516
C173  C     C_3   0.747142 0.254081 0.139660 0.167839
H85   H     H_    0.704473 0.245490 0.129105 0.199141
H86   H     H_    0.762056 0.217996 0.159338 0.088748
C174  C     C_3   0.780726 0.261208 0.094173 -0.328793
H87   H     H_    0.762889 0.293952 0.071563 0.261603
H88   H     H_    0.822779 0.272901 0.104095 0.240742
C175  C     C_3   0.781805 0.208079 0.065943 -0.980485
H89   H     H_    0.798897 0.174923 0.088375 0.265551
H90   H     H_    0.807501 0.213007 0.033521 0.283760
H91   H     H_    0.740063 0.196724 0.055109 0.275701
O66   O     O_3   0.292375 0.658490 0.778538 -0.548957
C176  C     C_3   0.332898 0.664844 0.743074 0.165355
H92   H     H_    0.363869 0.693448 0.757448 0.200623
H93   H     H_    0.318135 0.681233 0.708218 0.073265
C177  C     C_3   0.360295 0.610000 0.734473 -0.306244
H94   H     H_    0.369327 0.590128 0.769541 0.270343
H95   H     H_    0.332286 0.583309 0.713910 0.227376
C178  C     C_3   0.413190 0.616952 0.706691 -0.956558
H96   H     H_    0.405952 0.639766 0.672783 0.264825
H97   H     H_    0.430187 0.576368 0.697814 0.271916
H98   H     H_    0.443234 0.639435 0.728959 0.282330
O67   O     O_3   0.696050 0.748950 0.164823 -0.548664
C179  C     C_3   0.742719 0.757111 0.136388 0.151595
H99   H     H_    0.771164 0.722843 0.142817 0.179085
H100  H     H_    0.764098 0.796130 0.143856 0.076233
C180  C     C_3   0.725275 0.755956 0.083566 -0.268487
H101  H     H_    0.694786 0.723184 0.077974 0.275710
H102  H     H_    0.705988 0.795423 0.074243 0.229454
C181  C     C_3   0.772985 0.745463 0.049990 -0.943325
H103  H     H_    0.804332 0.777495 0.054425 0.258267
H104  H     H_    0.758328 0.745620 0.012240 0.281664
H105  H     H_    0.791086 0.704946 0.057564 0.288937
O68   O     O_3   0.342148 0.294658 0.774639 -0.545945
C182  C     C_3   0.335542 0.332417 0.736697 0.159969
H106  H     H_    0.304744 0.362942 0.748292 0.191740
H107  H     H_    0.321715 0.314080 0.702005 0.075563
C183  C     C_3   0.389522 0.362100 0.728464 -0.297221
H108  H     H_    0.406835 0.375399 0.763677 0.266969
H109  H     H_    0.418778 0.333686 0.711036 0.228456
C184  C     C_3   0.381942 0.412144 0.696638 -0.947816
H110  H     H_    0.362443 0.400471 0.661957 0.264684
H111  H     H_    0.422176 0.430978 0.688971 0.269160
H112  H     H_    0.356125 0.442756 0.715431 0.284159
O69   O     O_3   0.250591 0.200849 0.334206 -0.553174
C185  C     C_3   0.251516 0.251121 0.358600 0.169853
H113  H     H_    0.208823 0.264988 0.362372 0.208762
H114  H     H_    0.274423 0.283846 0.340082 0.069594
C186  C     C_3   0.275382 0.242678 0.408533 -0.312786
H115  H     H_    0.260347 0.203817 0.424167 0.276595
H116  H     H_    0.320216 0.240252 0.405535 0.223214
C187  C     C_3   0.259826 0.289251 0.441851 -0.956692
H117  H     H_    0.264935 0.329197 0.423761 0.264701
H118  H     H_    0.286788 0.288170 0.473528 0.275606
H119  H     H_    0.216920 0.284635 0.453598 0.293563
O70   O     O_3   0.781863 0.828232 0.696263 -0.557225
C188  C     C_3   0.828657 0.831676 0.725397 0.186409
H120  H     H_    0.864048 0.825312 0.701105 0.217898
H121  H     H_    0.831122 0.799398 0.753133 0.091914
C189  C     C_3   0.833896 0.887861 0.748651 -0.369038
H122  H     H_    0.829348 0.920010 0.720751 0.285988
H123  H     H_    0.801435 0.892892 0.776079 0.216537
C190  C     C_3   0.889113 0.894065 0.772844 -0.923981
H124  H     H_    0.895527 0.860811 0.799386 0.263406
H125  H     H_    0.891179 0.933808 0.791842 0.272562
H126  H     H_    0.921945 0.892626 0.745373 0.283086
O71   O     O_3   0.194736 0.757568 0.327949 -0.557703
C191  C     C_3   0.242544 0.754018 0.355442 0.165125
H127  H     H_    0.252526 0.796038 0.367367 0.213598
H128  H     H_    0.278352 0.738646 0.335494 0.077248
C192  C     C_3   0.232519 0.718589 0.399438 -0.318834
H129  H     H_    0.192293 0.728302 0.415356 0.282640
H130  H     H_    0.232612 0.675207 0.388332 0.224947
C193  C     C_3   0.276178 0.728089 0.437141 -0.972519
H131  H     H_    0.317171 0.726905 0.420695 0.266888
H132  H     H_    0.273397 0.695761 0.464787 0.282565
H133  H     H_    0.269994 0.768488 0.454301 0.288628
O72   O     O_3   0.841889 0.205064 0.730958 -0.549134
C194  C     C_3   0.829879 0.166667 0.767327 0.165899
H134  H     H_    0.798626 0.138303 0.753224 0.192843
H135  H     H_    0.814653 0.184801 0.801380 0.073919
C195  C     C_3   0.880662 0.133355 0.778166 -0.304321
H136  H     H_    0.900963 0.121669 0.743955 0.269688
H137  H     H_    0.909244 0.158554 0.799563 0.223056
C196  C     C_3   0.866520 0.081684 0.805942 -0.954445
H138  H     H_    0.842750 0.091784 0.838685 0.264176
H139  H     H_    0.904295 0.060475 0.816771 0.270338
H140  H     H_    0.842316 0.053802 0.782858 0.286170
O73   O     O_3   0.761903 0.806891 0.324415 -0.548705
C197  C     C_3   0.754078 0.760305 0.353167 0.159508
H141  H     H_    0.792795 0.752562 0.372465 0.205420
H142  H     H_    0.745121 0.722985 0.332133 0.091996
C198  C     C_3   0.709679 0.770464 0.390199 -0.331263
H143  H     H_    0.720305 0.806631 0.412329 0.277372
H144  H     H_    0.670766 0.778354 0.371435 0.232205
C199  C     C_3   0.702621 0.721275 0.422671 -0.971927
H145  H     H_    0.693431 0.684490 0.400952 0.264947
H146  H     H_    0.668150 0.728998 0.447270 0.279958
H147  H     H_    0.740121 0.714234 0.443945 0.281193
O74   O     O_3   0.205312 0.155902 0.731324 -0.544390
C200  C     C_3   0.167221 0.165537 0.768352 0.161080
H148  H     H_    0.137668 0.196345 0.755141 0.195195
H149  H     H_    0.185334 0.180657 0.802619 0.076374
C201  C     C_3   0.136109 0.112870 0.778198 -0.305959
H150  H     H_    0.123933 0.093589 0.743581 0.269186
H151  H     H_    0.162989 0.084121 0.797883 0.225221
C202  C     C_3   0.085161 0.123842 0.807806 -0.941247
H152  H     H_    0.095635 0.146196 0.841310 0.263804
H153  H     H_    0.065574 0.084583 0.817484 0.269317
H154  H     H_    0.055799 0.148429 0.786470 0.288891
O75   O     O_3   0.813375 0.233209 0.322566 -0.547788
C203  C     C_3   0.768503 0.236723 0.353730 0.160746
H155  H     H_    0.763240 0.195992 0.370360 0.203307
H156  H     H_    0.729877 0.246235 0.335603 0.092351
C204  C     C_3   0.779553 0.277939 0.393701 -0.333393
H157  H     H_    0.817992 0.267419 0.412372 0.278566
H158  H     H_    0.783421 0.319097 0.377917 0.233859
C205  C     C_3   0.733392 0.278275 0.429876 -0.968138
H159  H     H_    0.694460 0.288604 0.412035 0.267102
H160  H     H_    0.741928 0.309376 0.458010 0.282956
H161  H     H_    0.729894 0.237601 0.447231 0.278433
O76   O     O_3   0.156788 0.794192 0.724733 -0.547946
C206  C     C_3   0.162723 0.834432 0.760664 0.169133
H162  H     H_    0.195983 0.862561 0.749425 0.193686
H163  H     H_    0.172555 0.817935 0.797150 0.070484
C207  C     C_3   0.109869 0.867341 0.763261 -0.293079
H164  H     H_    0.094323 0.875451 0.726197 0.271448
H165  H     H_    0.078711 0.843114 0.783061 0.222221
C208  C     C_3   0.118550 0.921895 0.788391 -0.932450
H166  H     H_    0.137571 0.915615 0.824333 0.261551
H167  H     H_    0.078684 0.942644 0.793133 0.268720
H168  H     H_    0.145250 0.948635 0.766088 0.291679
O77   O     O_3   0.761604 0.190998 0.674607 -0.551728
C209  C     C_3   0.761977 0.237012 0.644301 0.157961
H169  H     H_    0.805023 0.248981 0.638828 0.203669
H170  H     H_    0.740417 0.272894 0.659086 0.079147
C210  C     C_3   0.737624 0.221809 0.595877 -0.306066
H171  H     H_    0.758624 0.185409 0.581175 0.271230
H172  H     H_    0.694139 0.211786 0.600827 0.242273
C211  C     C_3   0.743003 0.268707 0.560433 -0.966994
H173  H     H_    0.729031 0.307392 0.576881 0.263640
H174  H     H_    0.717382 0.260000 0.528768 0.279945
H175  H     H_    0.785940 0.273232 0.548941 0.288545
O78   O     O_3   0.207120 0.843588 0.280297 -0.552750
C212  C     C_3   0.163422 0.836948 0.247913 0.176135
H176  H     H_    0.133281 0.809669 0.265344 0.210126
H177  H     H_    0.174540 0.818815 0.212733 0.072362
C213  C     C_3   0.136404 0.892010 0.239432 -0.324332
H178  H     H_    0.133028 0.914552 0.274008 0.272655
H179  H     H_    0.161889 0.916272 0.214442 0.221509
C214  C     C_3   0.079705 0.885026 0.218255 -0.939195
H180  H     H_    0.081112 0.858900 0.185663 0.264159
H181  H     H_    0.062986 0.925415 0.208326 0.267730
H182  H     H_    0.052318 0.866055 0.245251 0.289028
O79   O     O_3   0.791372 0.736205 0.655898 -0.554522
C215  C     C_3   0.738655 0.733369 0.636144 0.171553
H183  H     H_    0.721777 0.775241 0.635028 0.204993
H184  H     H_    0.710238 0.706906 0.656385 0.075177
C216  C     C_3   0.742457 0.712826 0.584495 -0.313417
H185  H     H_    0.775984 0.733916 0.565279 0.269390
H186  H     H_    0.751276 0.668544 0.584872 0.225581
C217  C     C_3   0.689642 0.723048 0.557484 -0.960566
H187  H     H_    0.654529 0.706969 0.577980 0.263497
H188  H     H_    0.691368 0.701893 0.522451 0.274872
H189  H     H_    0.683990 0.767382 0.551204 0.289205
O80   O     O_3   0.163471 0.209541 0.285982 -0.551438
C218  C     C_3   0.169013 0.166415 0.252816 0.168591
H190  H     H_    0.202628 0.139803 0.265122 0.194420
H191  H     H_    0.177699 0.179662 0.215399 0.069888
C219  C     C_3   0.117088 0.132606 0.253139 -0.298039
H192  H     H_    0.103750 0.125576 0.290885 0.273087
H193  H     H_    0.084698 0.155310 0.234070 0.225753
C220  C     C_3   0.125887 0.077578 0.228946 -0.942397
H194  H     H_    0.142122 0.083225 0.192004 0.260468
H195  H     H_    0.086792 0.055350 0.226840 0.270654
H196  H     H_    0.154911 0.052763 0.250242 0.294651
O81   O     O_3   0.239091 0.808598 0.673879 -0.549872
C221  C     C_3   0.242831 0.763142 0.643221 0.161474
H197  H     H_    0.201275 0.754941 0.629492 0.211020
H198  H     H_    0.256554 0.725328 0.661200 0.080190
C222  C     C_3   0.279836 0.776297 0.600990 -0.323753
H199  H     H_    0.269905 0.817283 0.586536 0.284961
H200  H     H_    0.322527 0.776402 0.613604 0.225390
C223  C     C_3   0.273261 0.734516 0.561101 -0.970449
H201  H     H_    0.276610 0.692533 0.575529 0.266412
H202  H     H_    0.305781 0.740983 0.534242 0.282714
H203  H     H_    0.233086 0.739539 0.543478 0.289572
O82   O     O_3   0.796159 0.150697 0.270454 -0.548710
C224  C     C_3   0.836102 0.154920 0.234363 0.168219
H204  H     H_    0.862475 0.190309 0.242646 0.185330
H205  H     H_    0.819586 0.159938 0.197467 0.072546
C225  C     C_3   0.871157 0.103595 0.235887 -0.285993
H206  H     H_    0.879820 0.092344 0.273945 0.271740
H207  H     H_    0.848671 0.069498 0.218972 0.224774
C226  C     C_3   0.925044 0.111892 0.209959 -0.954074
H208  H     H_    0.918085 0.126919 0.172774 0.263132
H209  H     H_    0.947254 0.072643 0.208254 0.269066
H210  H     H_    0.950424 0.141691 0.229885 0.289401
O83   O     O_3   0.190887 0.236785 0.676205 -0.547121
C227  C     C_3   0.234964 0.241359 0.644233 0.168488
H211  H     H_    0.236549 0.202728 0.623352 0.205558
H212  H     H_    0.274664 0.245030 0.662632 0.093056
C228  C     C_3   0.226884 0.288555 0.609276 -0.350209
H213  H     H_    0.186255 0.285391 0.592130 0.286801
H214  H     H_    0.229649 0.327731 0.629098 0.218774
C229  C     C_3   0.270157 0.287395 0.570445 -0.968313
H215  H     H_    0.311278 0.287145 0.586740 0.265772
H216  H     H_    0.265947 0.324169 0.547652 0.281778
H217  H     H_    0.265029 0.250266 0.548044 0.283279
O84   O     O_3   0.846589 0.795216 0.275281 -0.546830
C230  C     C_3   0.839994 0.837877 0.241711 0.174497
H218  H     H_    0.809375 0.866527 0.256419 0.206387
H219  H     H_    0.826326 0.824403 0.205491 0.064846
C231  C     C_3   0.893633 0.868651 0.236958 -0.314759
H220  H     H_    0.914026 0.871274 0.272585 0.274664
H221  H     H_    0.920674 0.846033 0.212089 0.215827
C232  C     C_3   0.884791 0.926354 0.218157 -0.935036
H222  H     H_    0.860139 0.925686 0.184737 0.262764
H223  H     H_    0.924524 0.945624 0.210359 0.266506
H224  H     H_    0.863586 0.951265 0.245733 0.293094
N1    N     N_R   0.819305 0.620109 0.829020 0.270113
O85   O     O_R   0.861783 0.623521 0.856366 -0.386542
O86   O     O_R   0.776987 0.593541 0.844416 -0.287161
N2    N     N_R   0.213781 0.418548 0.214776 0.261617
O87   O     O_R   0.214221 0.460676 0.243394 -0.394567
O88   O     O_R   0.232095 0.423653 0.171268 -0.304958
N3    N     N_R   0.614756 0.181425 0.829551 0.256230
O89   O     O_R   0.617399 0.139760 0.858176 -0.407449
O90   O     O_R   0.584265 0.222599 0.841102 -0.282171
N4    N     N_R   0.413809 0.787217 0.209447 0.269928
O91   O     O_R   0.456414 0.782505 0.236668 -0.368891
O92   O     O_R   0.416257 0.770938 0.164897 -0.301577
N5    N     N_R   0.179993 0.384947 0.830475 0.263201
O93   O     O_R   0.139231 0.382386 0.860034 -0.398819
O94   O     O_R   0.220418 0.417330 0.839971 -0.271732
N6    N     N_R   0.788367 0.587079 0.207633 0.264355
O95   O     O_R   0.784143 0.543819 0.234294 -0.386551
O96   O     O_R   0.771993 0.585187 0.163074 -0.301085
N7    N     N_R   0.383877 0.819786 0.830215 0.264620
O97   O     O_R   0.381975 0.860789 0.859703 -0.392235
O98   O     O_R   0.414333 0.778196 0.840648 -0.278836
N8    N     N_R   0.584697 0.216266 0.219308 0.264050
O99   O     O_R   0.544424 0.214068 0.249500 -0.386646
O100  O     O_R   0.577794 0.240548 0.178144 -0.298765
N9    N     N_R   0.173627 0.620937 0.166473 0.262838
O101  O     O_R   0.130015 0.623363 0.140298 -0.399500
O102  O     O_R   0.214341 0.591576 0.151912 -0.283497
N10   N     N_R   0.785104 0.420192 0.779218 0.267921
O103  O     O_R   0.784480 0.460521 0.748912 -0.393335
O104  O     O_R   0.765942 0.427326 0.822391 -0.307601
N11   N     N_R   0.380797 0.177997 0.168962 0.256397
O105  O     O_R   0.376003 0.135156 0.141841 -0.402544
O106  O     O_R   0.410319 0.218722 0.154342 -0.297540
N12   N     N_R   0.587099 0.789689 0.796206 0.272099
O107  O     O_R   0.540853 0.781273 0.775050 -0.361141
O108  O     O_R   0.591599 0.780212 0.842143 -0.312996
N13   N     N_R   0.820863 0.382946 0.169238 0.270800
O109  O     O_R   0.860675 0.382108 0.138645 -0.387303
O110  O     O_R   0.778965 0.413666 0.160794 -0.279120
N14   N     N_R   0.214332 0.582669 0.783760 0.268911
O111  O     O_R   0.214894 0.540998 0.754934 -0.383241
O112  O     O_R   0.234636 0.577577 0.826735 -0.298042
N15   N     N_R   0.607253 0.809552 0.176787 0.279939
O113  O     O_R   0.604665 0.842310 0.140130 -0.356674
O114  O     O_R   0.577865 0.765531 0.176727 -0.296597
N16   N     N_R   0.418457 0.216272 0.781169 0.266233
O115  O     O_R   0.459692 0.213277 0.752105 -0.384055
O116  O     O_R   0.424426 0.240915 0.822279 -0.297880
N17   N     N_R   0.328718 0.124021 0.334812 0.263932
O117  O     O_R   0.373535 0.125248 0.359408 -0.391811
O118  O     O_R   0.287708 0.096208 0.351060 -0.285300
N18   N     N_R   0.706832 0.907292 0.696766 0.270430
O119  O     O_R   0.718287 0.951789 0.720324 -0.371213
O120  O     O_R   0.712853 0.905987 0.650513 -0.309532
N19   N     N_R   0.120765 0.676729 0.331560 0.259925
O121  O     O_R   0.124437 0.633454 0.358229 -0.400260
O122  O     O_R   0.091189 0.717376 0.346084 -0.284020
N20   N     N_R   0.918576 0.282830 0.723971 0.267220
O123  O     O_R   0.958965 0.287119 0.753867 -0.384997
O124  O     O_R   0.925952 0.258217 0.683006 -0.296577
N21   N     N_R   0.685786 0.886223 0.326777 0.265735
O125  O     O_R   0.645936 0.885449 0.357382 -0.392970
O126  O     O_R   0.728701 0.915063 0.336489 -0.279733
N22   N     N_R   0.283800 0.079970 0.724888 0.265574
O127  O     O_R   0.287912 0.039882 0.755241 -0.391823
O128  O     O_R   0.259254 0.071836 0.684096 -0.291915
N23   N     N_R   0.886519 0.314994 0.327221 0.261355
O129  O     O_R   0.883640 0.355590 0.357102 -0.399976
O130  O     O_R   0.916923 0.273422 0.337868 -0.275180
N24   N     N_R   0.081788 0.715401 0.717910 0.267247
O131  O     O_R   0.039976 0.714033 0.746420 -0.381371
O132  O     O_R   0.076849 0.737609 0.675632 -0.302841
N25   N     N_R   0.680356 0.117168 0.670293 0.262429
O133  O     O_R   0.639597 0.119941 0.640856 -0.393215
O134  O     O_R   0.721665 0.086584 0.659467 -0.278919
N26   N     N_R   0.286776 0.916985 0.287154 0.270692
O135  O     O_R   0.283152 0.960192 0.260369 -0.381022
O136  O     O_R   0.271045 0.919342 0.331840 -0.309153
N27   N     N_R   0.879535 0.673189 0.665280 0.274670
O137  O     O_R   0.880367 0.631482 0.636773 -0.376198
O138  O     O_R   0.909022 0.715589 0.654966 -0.294777
N28   N     N_R   0.087365 0.287456 0.292089 0.271819
O139  O     O_R   0.043820 0.282604 0.266145 -0.367196
O140  O     O_R   0.086566 0.271277 0.336790 -0.306606
N29   N     N_R   0.318406 0.884136 0.671036 0.261098
O141  O     O_R   0.359074 0.881848 0.641374 -0.401106
O142  O     O_R   0.276761 0.914298 0.660309 -0.279358
N30   N     N_R   0.716754 0.074386 0.268546 0.258321
O143  O     O_R   0.704834 0.035846 0.238134 -0.402644
O144  O     O_R   0.745724 0.062690 0.306354 -0.293495
N31   N     N_R   0.114137 0.315044 0.673184 0.262761
O145  O     O_R   0.115696 0.354531 0.642168 -0.397631
O146  O     O_R   0.083769 0.272788 0.664601 -0.273957
N32   N     N_R   0.917593 0.714032 0.286557 0.271395
O147  O     O_R   0.961519 0.716011 0.260733 -0.373532
O148  O     O_R   0.918819 0.731657 0.330724 -0.303938

loop_
_geom_bond_atom_site_label_1
_geom_bond_atom_site_label_2
_geom_bond_distance
_ccdc_geom_bond_type
C169  H76   1.117419 S    
C206  H162  1.117566 S    
Zn4   O4    1.948485 S    
N28   O139  1.299202 A    
O41   C51   1.280897 A    
C99   N11   1.435415 S    
C232  H222  1.110235 S    
C142  H12   1.110552 S    
O43   C49   1.281191 A    
C227  C228  1.526575 S    
C75   C107  1.394472 A    
N15   O113  1.300334 A    
C83   O79   1.391989 S    
O78   C212  1.413655 S    
C211  H174  1.104301 S    
O65   C173  1.410343 S    
C142  H14   1.111351 S    
Zn6   O43   1.949780 S    
Zn13  O28   1.949778 S    
N1    O85   1.297138 A    
O74   C200  1.413856 S    
C210  C211  1.522413 S    
Zn14  O27   1.949780 S    
O60   C158  1.414935 S    
C185  H113  1.112255 S    
C66   O62   1.389816 S    
C14   C70   1.426184 A    
O48   C46   1.279744 A    
C189  H123  1.112743 S    
N25   O134  1.302055 A    
C229  H215  1.110955 S    
C98   N10   1.433426 S    
N27   O138  1.302946 A    
C169  H77   1.126344 S    
O37   C55   1.281270 A    
C149  H30   1.112238 S    
O59   C155  1.408432 S    
C151  H35   1.125216 S    
C208  H168  1.118199 S    
N22   O127  1.301379 A    
N6    O96   1.303384 A    
O73   C197  1.409885 S    
C192  C193  1.520564 S    
Zn3   O42   1.946702 S    
C179  H99   1.111183 S    
C184  H112  1.115999 S    
O56   C146  1.412485 S    
C82   O78   1.393386 S    
C226  H208  1.110918 S    
C120  N32   1.433912 S    
C225  H206  1.114000 S    
C46   C129  1.471467 S    
C147  H25   1.110371 S    
O34   C54   1.280018 A    
C71   C103  1.392356 A    
O64   C170  1.411637 S    
C9    C65   1.424351 A    
C165  C166  1.525782 S    
C213  H178  1.112420 S    
Zn2   O2    1.943745 S    
C149  C150  1.541045 S    
C58   C90   1.395384 A    
C148  H26   1.110268 S    
C6    C62   1.425072 A    
C1    C83   1.430432 A    
C145  H20   1.105140 S    
C117  C127  1.413399 A    
C2    C84   1.424748 A    
C115  C121  1.411748 A    
C117  N29   1.435119 S    
C143  H15   1.112050 S    
O13   C37   1.288916 A    
Zn4   O41   1.946703 S    
N4    O92   1.302623 A    
C218  H191  1.110679 S    
C61   O57   1.391869 S    
C147  C148  1.525841 S    
C171  H80   1.115128 S    
N3    O89   1.298747 A    
Zn15  O22   1.946869 S    
C104  N16   1.435038 S    
N14   O111  1.300554 A    
Zn6   O15   1.907636 S    
C220  H195  1.109952 S    
C137  H1    1.111083 S    
C111  N23   1.435820 S    
C219  H192  1.113039 S    
O77   C209  1.410539 S    
Zn12  O34   1.947492 S    
O44   C50   1.282058 A    
C118  N30   1.438495 S    
C167  H71   1.134511 S    
C145  H21   1.112024 S    
C98   C130  1.411289 A    
C208  H167  1.116013 S    
C112  N24   1.435528 S    
C222  C223  1.519880 S    
Zn6   O48   1.949195 S    
O55   C143  1.408777 S    
Zn13  O31   1.949197 S    
Zn14  O32   1.949195 S    
C177  H94   1.112839 S    
C156  C157  1.519455 S    
C217  H187  1.109643 S    
Zn8   O37   1.946867 S    
C214  H181  1.110250 S    
O54   C140  1.411135 S    
C14   C80   1.426092 A    
C171  H81   1.113488 S    
C193  H133  1.112333 S    
C70   O66   1.390769 S    
C67   O63   1.388742 S    
N2    O87   1.305866 A    
N19   O122  1.301800 A    
C72   O68   1.390037 S    
C7    C85   1.421538 A    
O69   C185  1.409803 S    
C232  H224  1.112009 S    
C55   C128  1.476544 S    
C172  H84   1.114758 S    
Zn2   O39   1.949862 S    
C53   C122  1.479076 S    
C163  H61   1.110023 S    
C54   C121  1.474539 S    
C152  H37   1.111275 S    
C188  H120  1.114948 S    
C200  C201  1.529752 S    
O21   C41   1.279116 A    
C190  H125  1.111741 S    
C87   O83   1.388480 S    
C159  C160  1.527165 S    
O23   C43   1.283952 A    
Zn15  O10   1.908115 S    
N10   O103  1.301155 A    
O35   C55   1.278853 A    
O27   C47   1.276825 A    
C62   O58   1.387922 S    
C215  C216  1.524584 S    
C97   N9    1.435659 S    
O42   C52   1.281228 A    
N21   O125  1.300369 A    
C185  H114  1.109727 S    
Zn3   O14   1.907884 S    
C84   O80   1.391809 S    
O32   C52   1.279994 A    
C203  H155  1.110554 S    
Zn5   O44   1.949778 S    
C87   C119  1.395709 A    
C159  H53   1.110285 S    
C161  H57   1.112528 S    
C155  C156  1.520465 S    
C57   O53   1.388599 S    
O66   C176  1.412757 S    
C11   C73   1.425817 A    
C144  C145  1.519398 S    
C57   C89   1.391816 A    
N9    O101  1.300101 A    
C77   O73   1.387777 S    
C199  H146  1.107774 S    
C202  H153  1.112322 S    
N23   O129  1.300286 A    
N32   O147  1.300885 A    
C15   C77   1.423216 A    
C79   C111  1.397679 A    
C139  H5    1.111472 S    
C216  H185  1.112783 S    
C223  H202  1.107480 S    
C197  H141  1.111914 S    
C148  H28   1.111836 S    
C21   C29   1.209511 T    
O67   C179  1.410996 S    
Zn12  O1    1.948485 S    
O45   C47   1.282627 A    
C60   O56   1.389493 S    
N30   O144  1.302917 A    
C186  H116  1.110941 S    
N8    O100  1.301711 A    
C168  H74   1.126008 S    
C196  H138  1.110885 S    
C116  N28   1.435033 S    
C27   C28   1.417936 S    
C154  H41   1.110091 S    
C194  H134  1.110777 S    
C212  C213  1.527493 S    
O68   C182  1.414442 S    
C198  H143  1.112313 S    
C201  H150  1.113651 S    
C110  N22   1.435383 S    
C206  H163  1.118780 S    
O57   C149  1.411479 S    
C167  C168  1.547551 S    
C92   N4    1.434367 S    
C41   C134  1.475085 S    
C226  H209  1.110903 S    
C227  H212  1.108482 S    
C90   C122  1.413740 A    
C231  H220  1.112430 S    
C154  H42   1.111760 S    
C115  N27   1.433798 S    
C190  H124  1.112592 S    
C177  C178  1.526093 S    
O22   C42   1.282659 A    
C50   C125  1.478456 S    
C183  H108  1.116571 S    
C8    C13   1.487166 S    
C17   C25   1.209508 T    
C199  H147  1.111519 S    
C31   C32   1.417936 S    
C187  H117  1.110507 S    
C164  H65   1.110473 S    
C151  H34   1.124184 S    
Zn3   O49   1.947493 S    
Zn9   O4    1.943745 S    
C194  H135  1.111674 S    
C205  H159  1.110401 S    
Zn5   O47   1.949197 S    
Zn11  O26   1.946702 S    
C163  H63   1.112398 S    
Zn7   O45   1.947512 S    
C204  C205  1.519409 S    
C101  N13   1.434714 S    
C62   C94   1.394504 A    
C224  H204  1.110316 S    
C158  C159  1.525371 S    
C162  H60   1.110267 S    
O24   C44   1.277457 A    
C141  H10   1.112346 S    
N13   O110  1.301786 A    
N26   O136  1.302576 A    
C160  H54   1.110685 S    
C195  H137  1.110908 S    
Zn4   O13   1.907884 S    
C174  H88   1.111198 S    
Zn5   O16   1.907636 S    
Zn1   O40   1.949864 S    
C102  C134  1.412783 A    
O76   C206  1.413161 S    
C93   C125  1.416447 A    
C203  C204  1.527938 S    
Zn8   O46   1.947514 S    
C230  C231  1.529906 S    
C51   C124  1.478894 S    
C231  C232  1.527618 S    
C52   C123  1.477043 S    
C69   O65   1.391420 S    
C170  H79   1.115275 S    
C200  H149  1.115574 S    
C209  H169  1.112429 S    
C155  H43   1.112449 S    
O25   C45   1.277853 A    
C140  H8    1.112220 S    
C157  H49   1.112658 S    
N3    O90   1.301692 A    
C183  C184  1.526930 S    
C75   O71   1.386545 S    
Zn9   O35   1.949011 S    
C223  H201  1.110480 S    
O61   C161  1.408791 S    
C10   C66   1.424850 A    
O38   C56   1.279893 A    
C43   C132  1.484696 S    
C195  C196  1.526935 S    
O31   C51   1.281126 A    
C217  H188  1.104636 S    
C139  H7    1.111001 S    
Zn3   O3    1.948484 S    
C180  H101  1.112929 S    
C182  C183  1.535616 S    
N18   O119  1.305681 A    
C76   C108  1.399523 A    
C205  H161  1.113649 S    
C66   C98   1.393900 A    
C212  H176  1.112379 S    
C5    C87   1.422819 A    
C7    C63   1.423381 A    
C146  H23   1.111430 S    
Zn9   O24   1.949864 S    
N20   O124  1.302132 A    
Zn10  O23   1.949862 S    
C181  H105  1.111945 S    
C5    C61   1.424024 A    
C193  H131  1.110368 S    
C74   O70   1.390338 S    
N20   O123  1.301543 A    
Zn12  O25   1.946703 S    
O19   C39   1.286111 A    
C178  H97   1.110246 S    
C196  H140  1.112430 S    
C173  H86   1.105369 S    
O47   C45   1.281435 A    
C180  C181  1.524377 S    
C116  C122  1.416110 A    
O28   C48   1.279143 A    
C179  H100  1.114030 S    
C106  N18   1.437142 S    
C198  C199  1.519066 S    
N4    O91   1.300196 A    
C138  H4    1.110139 S    
C95   N7    1.435282 S    
C229  H217  1.112044 S    
O39   C53   1.280604 A    
O46   C48   1.281825 A    
Zn7   O18   1.908115 S    
C108  C130  1.412024 A    
O58   C152  1.411481 S    
C209  C210  1.520290 S    
C150  C151  1.526734 S    
C218  H190  1.110519 S    
C96   C128  1.412889 A    
C83   C115  1.397167 A    
C114  N26   1.433740 S    
C176  C177  1.527372 S    
C173  C174  1.521838 S    
C86   O82   1.390291 S    
C11   C67   1.417981 A    
C158  H50   1.110867 S    
C166  H69   1.110485 S    
C221  H197  1.112228 S    
N25   O133  1.298065 A    
C2    C58   1.423791 A    
C229  H216  1.108920 S    
C20   C37   1.441429 S    
C207  C208  1.527114 S    
C187  H119  1.113636 S    
O14   C38   1.288915 A    
C90   N2    1.435860 S    
C3    C81   1.422550 A    
N22   O128  1.300605 A    
C169  H75   1.113825 S    
C216  C217  1.524667 S    
C192  H130  1.110319 S    
C184  H111  1.115785 S    
C72   C104  1.396382 A    
N7    O97   1.299979 A    
C107  N19   1.435958 S    
C175  H89   1.109639 S    
C155  H44   1.107460 S    
C224  C225  1.530702 S    
C228  H213  1.112508 S    
O26   C46   1.278170 A    
C67   C99   1.392433 A    
C157  H47   1.110451 S    
C23   C31   1.209856 T    
O79   C215  1.413346 S    
Zn16  O9    1.908115 S    
C213  C214  1.527141 S    
C119  C125  1.412158 A    
N29   O142  1.301906 A    
C64   O60   1.393284 S    
C20   C28   1.209856 T    
C152  H36   1.112134 S    
C141  C142  1.524237 S    
C105  C131  1.412243 A    
C181  H104  1.109669 S    
Zn2   O52   1.949013 S    
C156  H45   1.112226 S    
C191  C192  1.521610 S    
C4    C82   1.427854 A    
Zn7   O38   1.946869 S    
C143  H16   1.108930 S    
N24   O131  1.301371 A    
N31   O145  1.298927 A    
C82   C114  1.397011 A    
C165  H66   1.113260 S    
C140  C141  1.526782 S    
C60   C92   1.394912 A    
C176  H92   1.112372 S    
C114  C124  1.414415 A    
C172  H82   1.112657 S    
C146  H22   1.112254 S    
N14   O112  1.301150 A    
C16   C72   1.423593 A    
C112  C134  1.414138 A    
C220  H194  1.110902 S    
C137  H2    1.112015 S    
N5    O94   1.302875 A    
C16   C78   1.427115 A    
C4    C9    1.488538 S    
C196  H139  1.109672 S    
C76   O72   1.393086 S    
C182  H106  1.115781 S    
C138  C139  1.525825 S    
C215  H183  1.111059 S    
C167  H72   1.136946 S    
O84   C230  1.413270 S    
Zn8   O4    1.948030 S    
Zn12  O5    1.907884 S    
C104  C136  1.416807 A    
C3    C10   1.486985 S    
C181  H103  1.110412 S    
C107  C129  1.410769 A    
Zn13  O8    1.907636 S    
Zn14  O7    1.907636 S    
C160  H56   1.112091 S    
C111  C133  1.415682 A    
C8    C86   1.424683 A    
C171  C172  1.527381 S    
C177  H95   1.110910 S    
N28   O140  1.304683 A    
C45   C130  1.474140 S    
C109  C135  1.413839 A    
O33   C53   1.281384 A    
C17   C40   1.440854 S    
Zn15  O2    1.948034 S    
C222  H199  1.112231 S    
C219  C220  1.526309 S    
C172  H83   1.113463 S    
C68   O64   1.390651 S    
O63   C167  1.418004 S    
C80   C112  1.395992 A    
C59   O55   1.385859 S    
C232  H223  1.110042 S    
Zn7   O3    1.948034 S    
C141  H11   1.110238 S    
C211  H173  1.110231 S    
C163  H62   1.107391 S    
C29   C30   1.417380 S    
C88   C120  1.398251 A    
C81   O77   1.389429 S    
C217  H189  1.112705 S    
O29   C49   1.279735 A    
O75   C203  1.408490 S    
C91   C123  1.414272 A    
N7    O98   1.301858 A    
C92   C124  1.413089 A    
C161  C162  1.520435 S    
N10   O104  1.301655 A    
C207  H164  1.117111 S    
C143  C144  1.522161 S    
O17   C37   1.288995 A    
C185  C186  1.521682 S    
C149  H29   1.120619 S    
O53   C137  1.413821 S    
C81   C113  1.395233 A    
Zn6   O2    1.943498 S    
C91   N3    1.439591 S    
N6    O95   1.300500 A    
C203  H156  1.103030 S    
Zn11  O6    1.907884 S    
N11   O105  1.300454 A    
C64   C96   1.398367 A    
C65   C97   1.394432 A    
C152  C153  1.529203 S    
C86   C118  1.401326 A    
C8    C64   1.425311 A    
C138  H3    1.112215 S    
C175  H91   1.108539 S    
C95   C127  1.413634 A    
C154  H40   1.110477 S    
C103  N15   1.431640 S    
C47   C136  1.475581 S    
C142  H13   1.109889 S    
C147  H24   1.112453 S    
C80   O76   1.390543 S    
C144  H18   1.110424 S    
C189  H122  1.113034 S    
N32   O148  1.302036 A    
C24   C33   1.441432 S    
C139  H6    1.109631 S    
C148  H27   1.110051 S    
O72   C194  1.414506 S    
C210  H172  1.109309 S    
C145  H19   1.109826 S    
C88   O84   1.393444 S    
C48   C135  1.477076 S    
C222  H200  1.110007 S    
C186  H115  1.113170 S    
C218  C219  1.526899 S    
C118  C128  1.415770 A    
O80   C218  1.411569 S    
C100  C132  1.414318 A    
C230  H219  1.111987 S    
C12   C68   1.425059 A    
C79   O75   1.389079 S    
O70   C188  1.412505 S    
C13   C79   1.421516 A    
C220  H196  1.111559 S    
C93   N5    1.436392 S    
O7    C35   1.286119 A    
C188  C189  1.530394 S    
Zn1   O51   1.949011 S    
C13   C69   1.426284 A    
C207  H165  1.117391 S    
C106  C132  1.414653 A    
C165  H67   1.109714 S    
C201  C202  1.526656 S    
C170  H78   1.114382 S    
C231  H221  1.110174 S    
C113  C123  1.413766 A    
N16   O115  1.301309 A    
O16   C40   1.286125 A    
C61   C93   1.397273 A    
C230  H218  1.111062 S    
O9    C33   1.288975 A    
C214  H182  1.112282 S    
N12   O108  1.302540 A    
C103  C135  1.413558 A    
Zn1   O20   1.907511 S    
O11   C35   1.286105 A    
C22   C35   1.440851 S    
O30   C50   1.279290 A    
Zn2   O19   1.907511 S    
Zn1   O1    1.943745 S    
C101  C133  1.414035 A    
C168  H73   1.114266 S    
C5    C16   1.485693 S    
C63   O59   1.388221 S    
C153  H39   1.110216 S    
C164  H64   1.110876 S    
O18   C38   1.288994 A    
C205  H160  1.113592 S    
Zn10  O36   1.949013 S    
Zn8   O17   1.908115 S    
C211  H175  1.112085 S    
O50   C44   1.281364 A    
C70   C102  1.393991 A    
C204  H158  1.107053 S    
N29   O141  1.299987 A    
C190  H126  1.113835 S    
O5    C33   1.288939 A    
C166  H68   1.110632 S    
C25   C26   1.417383 S    
C110  C136  1.412804 A    
C158  H51   1.111070 S    
C200  H148  1.113795 S    
C162  H59   1.112842 S    
O71   C191  1.407992 S    
C189  C190  1.526651 S    
O36   C56   1.280235 A    
C213  H179  1.110678 S    
N13   O109  1.299490 A    
O12   C36   1.286110 A    
C78   O74   1.390607 S    
N27   O137  1.295916 A    
C74   C106  1.397632 A    
C6    C88   1.427827 A    
C174  H87   1.112168 S    
C94   N6    1.434647 S    
N21   O126  1.302273 A    
C78   C110  1.396114 A    
C197  H142  1.110007 S    
C42   C133  1.479700 S    
C119  N31   1.437041 S    
C156  H46   1.110340 S    
C96   N8    1.434531 S    
C191  H128  1.109596 S    
C4    C60   1.425118 A    
C97   C129  1.412218 A    
C153  C154  1.526228 S    
C159  H52   1.111977 S    
C209  H170  1.109270 S    
C102  N14   1.434363 S    
O81   C221  1.408327 S    
N9    O102  1.301767 A    
Zn16  O21   1.946867 S    
C202  H154  1.114495 S    
C109  N21   1.435683 S    
C49   C126  1.477885 S    
C18   C26   1.209511 T    
C160  H55   1.109395 S    
N16   O116  1.301482 A    
C178  H96   1.111189 S    
Zn5   O1    1.943502 S    
N30   O143  1.303130 A    
C182  H107  1.117546 S    
N18   O120  1.294505 A    
C71   O67   1.388032 S    
O83   C227  1.409013 S    
O51   C41   1.280667 A    
C63   C95   1.395186 A    
C84   C116  1.397445 A    
C18   C39   1.440859 S    
C44   C131  1.473354 S    
C193  H132  1.107679 S    
C186  C187  1.521901 S    
N8    O99   1.301821 A    
C168  C169  1.548062 S    
C85   O81   1.387421 S    
C176  H93   1.110666 S    
C73   C105  1.398494 A    
C180  H102  1.111524 S    
C9    C75   1.423246 A    
Zn16  O30   1.947514 S    
C10   C76   1.428077 A    
O10   C34   1.288986 A    
N1    O86   1.303692 A    
C89   C121  1.410440 A    
C65   O61   1.387794 S    
C198  H144  1.109624 S    
Zn15  O29   1.947512 S    
C206  C207  1.536632 S    
C100  N12   1.432911 S    
C6    C15   1.490538 S    
C7    C14   1.488286 S    
O49   C43   1.280850 A    
C226  H210  1.111251 S    
C227  H211  1.113669 S    
C214  H180  1.110944 S    
Zn13  O4    1.943502 S    
N23   O130  1.302100 A    
C219  H193  1.109656 S    
C89   N1    1.436090 S    
Zn14  O3    1.943498 S    
C150  H32   1.118994 S    
N12   O107  1.299955 A    
C153  H38   1.111980 S    
C68   C100  1.396185 A    
C210  H171  1.112054 S    
O52   C42   1.279896 A    
C204  H157  1.111562 S    
C19   C27   1.209856 T    
C188  H121  1.108081 S    
C221  H198  1.108565 S    
C150  H31   1.119607 S    
Zn16  O1    1.948030 S    
O8    C36   1.286120 A    
N19   O121  1.299939 A    
C192  H129  1.112713 S    
C164  C165  1.529640 S    
C73   O69   1.387267 S    
C151  H33   1.123882 S    
C94   C126  1.413287 A    
C208  H166  1.114357 S    
C194  C195  1.527110 S    
C216  H186  1.110368 S    
C225  C226  1.526037 S    
N11   O106  1.303008 A    
C184  H110  1.114642 S    
Zn10  O3    1.943745 S    
C225  H207  1.109485 S    
O62   C164  1.411126 S    
C175  H90   1.108537 S    
O15   C39   1.286116 A    
C224  H205  1.110256 S    
C21   C36   1.440865 S    
C162  C163  1.520316 S    
C157  H48   1.106767 S    
C221  C222  1.521914 S    
C12   C74   1.425022 A    
C23   C34   1.441418 S    
C15   C71   1.421961 A    
C59   C91   1.395616 A    
C187  H118  1.103641 S    
N26   O135  1.300338 A    
C24   C32   1.209861 T    
C195  H136  1.112556 S    
C174  C175  1.523901 S    
C191  H127  1.112414 S    
N31   O146  1.302613 A    
C199  H145  1.110539 S    
Zn9   O12   1.907511 S    
C99   C131  1.411996 A    
O40   C54   1.279725 A    
Zn10  O11   1.907511 S    
C1    C12   1.491760 S    
C69   C101  1.396942 A    
Zn11  O2    1.948484 S    
C2    C11   1.489189 S    
C170  C171  1.534991 S    
N24   O132  1.301453 A    
N17   O117  1.300188 A    
N2    O88   1.297060 A    
C140  H9    1.110209 S    
C58   O54   1.387835 S    
C105  N17   1.437082 S    
N15   O114  1.302465 A    
C108  N20   1.434866 S    
C202  H152  1.111571 S    
O6    C34   1.288920 A    
C161  H58   1.107862 S    
C137  C138  1.523830 S    
C1    C57   1.425841 A    
N5    O93   1.300274 A    
C19   C38   1.441426 S    
C85   C117  1.394419 A    
C223  H203  1.112456 S    
C56   C127  1.475560 S    
C3    C59   1.421781 A    
C212  H177  1.109127 S    
C183  H109  1.115419 S    
C201  H151  1.113121 S    
C146  C147  1.527419 S    
C179  C180  1.530014 S    
C228  H214  1.111576 S    
C113  N25   1.436112 S    
C120  C126  1.414253 A    
C178  H98   1.112382 S    
Zn4   O50   1.947492 S    
O82   C224  1.410184 S    
O20   C40   1.286102 A    
N17   O118  1.301929 A    
C173  H85   1.112914 S    
C166  H70   1.111256 S    
C77   C109  1.397822 A    
C144  H17   1.112107 S    
C215  H184  1.109619 S    
C22   C30   1.209508 T    
Zn11  O33   1.947493 S    
C228  C229  1.518550 S    
C197  C198  1.523939 S    
