data_mof_unit_pretest_342.cif
_audit_creation_date              2012-12-11T15:39:24-0500
_audit_creation_method            fapswitch 2.2
_symmetry_space_group_name_H-M    P1
_symmetry_Int_Tables_number       1
_space_group_crystal_system       triclinic
_cell_length_a                    17.26254
_cell_length_b                    24.237144
_cell_length_c                    14.879082
_cell_angle_alpha                 89.964525
_cell_angle_beta                  125.439252
_cell_angle_gamma                 89.945412
_cell_volume                      5071.9590845

loop_
_atom_site_label
_atom_site_type_symbol
_atom_type_description
_atom_site_fract_x
_atom_site_fract_y
_atom_site_fract_z
_atom_type_partial_charge
C1    C     C_R   0.351661 0.347896 0.908507 -0.139784
C2    C     C_R   0.433158 0.500067 0.631186 0.049642
C3    C     C_R   0.188669 0.863027 0.000013 0.040138
C4    C     C_R   0.948429 0.000038 0.274014 0.040381
C5    C     C_R   0.933149 0.000062 0.631182 0.049644
C6    C     C_R   0.174031 0.501023 0.723322 0.072307
C7    C     C_R   0.802293 0.500751 0.368492 0.081669
C8    C     C_R   0.674025 0.001014 0.723315 0.072336
C9    C     C_R   0.302286 0.000744 0.368507 0.081713
C10   C     C_R   0.021258 0.552746 0.623803 0.167224
C11   C     C_R   0.927321 0.552452 0.534147 0.162870
C12   C     C_R   0.521204 0.052712 0.623935 0.167320
C13   C     C_R   0.690517 0.375849 0.092280 -0.126014
C14   C     C_R   0.427264 0.052420 0.534287 0.162953
C15   C     C_R   0.071164 0.502995 0.667448 0.033138
C16   C     C_R   0.881269 0.502506 0.485257 0.031739
C17   C     C_R   0.571156 0.002963 0.667465 0.033092
C18   C     C_R   0.381248 0.002479 0.485288 0.031691
C19   C     C_R   0.018026 0.453970 0.637989 -0.198974
C20   C     C_R   0.922892 0.453658 0.546254 -0.203541
C21   C     C_R   0.518045 0.953923 0.637924 -0.198976
C22   C     C_R   0.422909 0.953613 0.546203 -0.203552
C23   C     C_3   0.939283 0.602974 0.485406 -0.525624
C24   C     C_R   0.851665 0.847895 0.908506 -0.139783
C25   C     C_3   0.042030 0.603218 0.582824 -0.524036
C26   C     C_3   0.439150 0.103037 0.485716 -0.525707
C27   C     C_3   0.541907 0.103277 0.583126 -0.524115
C28   C     C_R   0.291763 0.768958 0.900091 -0.173338
C29   C     C_R   0.843247 0.685457 0.100034 -0.168414
C30   C     C_R   0.791771 0.268962 0.900092 -0.173330
C31   C     C_R   0.343240 0.185465 0.100054 -0.168401
C32   C     C_R   0.743890 0.314766 0.900165 -0.168348
C33   C     C_R   0.390733 0.231432 0.100084 -0.171936
C34   C     C_R   0.243878 0.814760 0.900159 -0.168348
C35   C     C_R   0.190519 0.875851 0.092278 -0.126011
C36   C     C_R   0.890741 0.731424 0.100065 -0.171939
C37   C     C_R   0.762632 0.333648 0.000011 0.144277
C38   C     C_R   0.358129 0.257899 0.000162 0.142448
C39   C     C_R   0.262627 0.833648 0.000002 0.144278
C40   C     C_R   0.858122 0.757900 0.000150 0.142450
C41   C     C_R   0.443763 0.652313 0.091415 -0.139573
C42   C     C_R   0.598282 0.624104 0.907830 -0.125250
C43   C     C_R   0.943757 0.152309 0.091415 -0.139573
C44   C     C_R   0.098284 0.124106 0.907832 -0.125257
C45   C     C_R   0.843704 0.314626 0.099835 -0.168188
C46   C     C_R   0.382969 0.684620 0.999978 0.051512
C47   C     C_R   0.291087 0.231452 0.900308 -0.173233
C48   C     C_R   0.343703 0.814631 0.099822 -0.168188
C49   C     C_R   0.791055 0.731466 0.900295 -0.173236
C50   C     C_R   0.391684 0.768847 0.099855 -0.173017
C51   C     C_R   0.743585 0.685512 0.900365 -0.168663
C52   C     C_R   0.891680 0.268842 0.099867 -0.173019
C53   C     C_R   0.243612 0.185500 0.900379 -0.168667
C54   C     C_R   0.359155 0.742488 0.999973 0.142704
C55   C     C_R   0.762435 0.666421 0.000185 0.143892
C56   C     C_R   0.859153 0.242486 0.999978 0.142705
C57   C     C_R   0.688657 0.636894 0.000137 0.040310
C58   C     C_R   0.262442 0.166420 0.000200 0.143893
C59   C     C_R   0.390143 0.550081 0.462664 -0.173766
C60   C     C_R   0.392008 0.550048 0.370932 -0.168233
C61   C     C_R   0.890065 0.050061 0.462611 -0.173772
C62   C     C_R   0.891940 0.050030 0.370884 -0.168255
C63   C     C_R   0.404042 0.500098 0.332945 0.144273
C64   C     C_R   0.399172 0.500113 0.515526 0.142501
C65   C     C_R   0.904043 0.000084 0.332949 0.144279
C66   C     C_R   0.899164 0.000097 0.515522 0.142510
C67   C     C_R   0.391902 0.450184 0.370954 -0.168257
C68   C     C_R   0.882961 0.184616 0.999978 0.051509
C69   C     C_R   0.390010 0.450165 0.462667 -0.172910
C70   C     C_R   0.891972 0.950165 0.371008 -0.168243
C71   C     C_R   0.890080 0.950145 0.462717 -0.172909
C72   C     C_R   0.479856 0.453866 0.248373 -0.125969
C73   C     C_R   0.449896 0.454280 0.695487 -0.140360
C74   C     C_R   0.979857 0.953864 0.248370 -0.125965
C75   C     C_R   0.949886 0.954277 0.695487 -0.140372
C76   C     C_R   0.232411 0.546534 0.753409 -0.145810
C77   C     C_R   0.753107 0.546026 0.304275 -0.159407
C78   C     C_R   0.732401 0.046530 0.753395 -0.145796
C79   C     C_R   0.188659 0.136894 0.000142 0.040309
C80   C     C_R   0.253106 0.046023 0.304288 -0.159421
C81   C     C_R   0.479870 0.546162 0.248335 -0.126139
C82   C     C_R   0.449910 0.545790 0.695506 -0.140795
C83   C     C_R   0.979871 0.046160 0.248340 -0.126145
C84   C     C_R   0.949909 0.045787 0.695501 -0.140782
C85   C     C_R   0.230412 0.454335 0.748760 -0.123853
C86   C     C_R   0.755393 0.454598 0.304936 -0.137774
C87   C     C_R   0.730416 0.954330 0.748762 -0.123837
C88   C     C_R   0.255385 0.954595 0.304937 -0.137763
C89   C     C_R   0.352661 0.652499 0.908542 -0.144285
C90   C     C_R   0.448427 0.500043 0.274011 0.040381
C91   C     C_R   0.690501 0.624080 0.092409 -0.125992
C92   C     C_R   0.852654 0.152497 0.908542 -0.144288
C93   C     C_R   0.190500 0.124080 0.092412 -0.125974
C94   C     C_R   0.443418 0.347755 0.091555 -0.140425
C95   C     C_R   0.598223 0.375807 0.907736 -0.125380
C96   C     C_R   0.943419 0.847754 0.091553 -0.140421
C97   C     C_R   0.098223 0.875811 0.907734 -0.125380
C98   C     C_R   0.381986 0.315716 0.000071 0.049750
C99   C     C_R   0.688669 0.363023 0.000016 0.040138
C100  C     C_R   0.881988 0.815715 0.000067 0.049752
H1    H     H_    0.313904 0.334257 0.823979 0.084096
H2    H     H_    0.090716 0.595312 0.558077 0.200679
H3    H     H_    0.398495 0.138797 0.485174 0.189143
H4    H     H_    0.590582 0.095487 0.558324 0.200632
H5    H     H_    0.268750 0.751706 0.821324 0.106069
H6    H     H_    0.864081 0.669106 0.178719 0.107587
H7    H     H_    0.768756 0.251711 0.821316 0.106065
H8    H     H_    0.364061 0.169123 0.178741 0.107568
H9    H     H_    0.685970 0.331086 0.821493 0.107920
H10   H     H_    0.446288 0.248746 0.178843 0.106523
H11   H     H_    0.185952 0.831074 0.821489 0.107917
H12   H     H_    0.748715 0.370895 0.177895 0.093096
H13   H     H_    0.946314 0.748728 0.178819 0.106534
H14   H     H_    0.864416 0.330827 0.178511 0.107856
H15   H     H_    0.268114 0.248770 0.821537 0.105711
H16   H     H_    0.364418 0.830835 0.178492 0.107862
H17   H     H_    0.768060 0.748794 0.821529 0.105713
H18   H     H_    0.447506 0.751519 0.178607 0.105649
H19   H     H_    0.685871 0.669206 0.821703 0.107574
H20   H     H_    0.947498 0.251512 0.178624 0.105645
H21   H     H_    0.185912 0.169183 0.821716 0.107577
H22   H     H_    0.391141 0.589473 0.497266 0.105625
H23   H     H_    0.813917 0.834255 0.823979 0.084091
H24   H     H_    0.394276 0.589394 0.338334 0.107641
H25   H     H_    0.890990 0.089451 0.497167 0.105637
H26   H     H_    0.894150 0.089376 0.338241 0.107655
H27   H     H_    0.394094 0.410833 0.338376 0.108042
H28   H     H_    0.390876 0.410770 0.497249 0.105985
H29   H     H_    0.894227 0.910813 0.338481 0.108029
H30   H     H_    0.891016 0.910748 0.497342 0.105973
H31   H     H_    0.490812 0.665987 0.175878 0.083418
H32   H     H_    0.570914 0.629116 0.822240 0.092695
H33   H     H_    0.990806 0.165982 0.175880 0.083420
H34   H     H_    0.248718 0.870897 0.177892 0.093095
H35   H     H_    0.070920 0.129119 0.822242 0.092698
H36   H     H_    0.469508 0.411066 0.258442 0.093019
H37   H     H_    0.431289 0.412066 0.667973 0.084032
H38   H     H_    0.969508 0.911062 0.258428 0.093014
H39   H     H_    0.931268 0.912063 0.667979 0.084034
H40   H     H_    0.214130 0.589204 0.750763 0.111017
H41   H     H_    0.758446 0.587800 0.332487 0.101597
H42   H     H_    0.714118 0.089199 0.750749 0.110998
H43   H     H_    0.258440 0.087795 0.332501 0.101599
H44   H     H_    0.469540 0.588981 0.258348 0.092718
H45   H     H_    0.930362 0.595064 0.406248 0.200409
H46   H     H_    0.431314 0.588050 0.667987 0.083791
H47   H     H_    0.969544 0.088977 0.258365 0.092723
H48   H     H_    0.931324 0.088047 0.667978 0.083791
H49   H     H_    0.208653 0.411704 0.737248 0.093068
H50   H     H_    0.765607 0.412508 0.333792 0.084307
H51   H     H_    0.708670 0.911698 0.737267 0.093050
H52   H     H_    0.265582 0.912504 0.333781 0.084297
H53   H     H_    0.315655 0.666399 0.824173 0.084367
H54   H     H_    0.748624 0.628992 0.178066 0.092113
H55   H     H_    0.815643 0.166397 0.824172 0.084374
H56   H     H_    0.060639 0.639386 0.637756 0.191280
H57   H     H_    0.248622 0.128991 0.178070 0.092103
H58   H     H_    0.490488 0.333913 0.175988 0.084197
H59   H     H_    0.570796 0.370789 0.822151 0.092845
H60   H     H_    0.990486 0.833910 0.175985 0.084194
H61   H     H_    0.070796 0.870797 0.822149 0.092846
H62   H     H_    0.052007 0.414909 0.675436 0.127370
H63   H     H_    0.887189 0.414353 0.516389 0.124632
H64   H     H_    0.552045 0.914855 0.675285 0.127356
H65   H     H_    0.387239 0.914302 0.516277 0.124625
H66   H     H_    0.430228 0.095249 0.406524 0.200363
H67   H     H_    0.560484 0.139378 0.638194 0.191346
H68   H     H_    0.898671 0.638799 0.484723 0.189096
N1    N     N_R   0.394180 0.396910 0.943210 -0.037271
N2    N     N_R   0.474350 0.471570 0.793850 -0.037124
N3    N     N_R   0.025650 0.971570 0.206150 -0.039909
N4    N     N_R   0.974350 0.971570 0.793850 -0.037124
N5    N     N_R   0.319480 0.528420 0.793810 -0.040448
N6    N     N_R   0.680520 0.528420 0.206190 -0.037808
N7    N     N_R   0.819480 0.028420 0.793810 -0.040449
N8    N     N_R   0.180520 0.028420 0.206190 -0.037809
N9    N     N_R   0.525640 0.528390 0.206120 -0.039789
N10   N     N_R   0.474360 0.528390 0.793880 -0.036968
N11   N     N_R   0.025640 0.028390 0.206120 -0.039789
N12   N     N_R   0.605820 0.396910 0.056790 -0.039932
N13   N     N_R   0.974360 0.028390 0.793880 -0.036969
N14   N     N_R   0.319490 0.471590 0.793840 -0.040523
N15   N     N_R   0.680510 0.471590 0.206160 -0.038308
N16   N     N_R   0.819490 0.971590 0.793840 -0.040524
N17   N     N_R   0.180510 0.971590 0.206160 -0.038310
N18   N     N_R   0.394130 0.603080 0.943110 -0.037121
N19   N     N_R   0.605870 0.603080 0.056890 -0.039375
N20   N     N_R   0.894130 0.103080 0.943110 -0.037122
N21   N     N_R   0.105870 0.103080 0.056890 -0.039377
N22   N     N_R   0.450990 0.396900 0.056840 -0.037299
N23   N     N_R   0.894180 0.896910 0.943210 -0.037272
N24   N     N_R   0.549010 0.396900 0.943160 -0.039887
N25   N     N_R   0.950990 0.896900 0.056840 -0.037299
N26   N     N_R   0.049010 0.896900 0.943160 -0.039888
N27   N     N_R   0.105820 0.896910 0.056790 -0.039933
N28   N     N_R   0.450950 0.603070 0.056740 -0.036854
N29   N     N_R   0.549050 0.603070 0.943260 -0.039583
N30   N     N_R   0.950950 0.103070 0.056740 -0.036855
N31   N     N_R   0.049050 0.103070 0.943260 -0.039584
N32   N     N_R   0.525650 0.471570 0.206150 -0.039908
Ni1   Ni    Ni4+2 0.434860 0.434850 0.869700 0.210280
Ni2   Ni    Ni4+2 0.565140 0.434850 0.130300 0.210081
Ni3   Ni    Ni4+2 0.934860 0.934850 0.869700 0.210281
Ni4   Ni    Ni4+2 0.065140 0.934850 0.130300 0.210080
Ni5   Ni    Ni4+2 0.565130 0.565140 0.130240 0.209195
Ni6   Ni    Ni4+2 0.434870 0.565140 0.869760 0.209150
Ni7   Ni    Ni4+2 0.065130 0.065140 0.130240 0.209194
Ni8   Ni    Ni4+2 0.934870 0.065140 0.869760 0.209154

loop_
_geom_bond_atom_site_label_1
_geom_bond_atom_site_label_2
_ccdc_geom_bond_type
C13   C99   A    
C77   N6    A    
C53   C58   A    
C30   H7    S    
N14   Ni1   S    
C89   N18   A    
C14   C18   A    
C19   C20   A    
C47   C53   A    
C38   C98   S    
N23   N25   A    
N8    N17   A    
C46   C89   A    
C58   C79   S    
C15   C19   A    
C74   H38   S    
C29   C36   A    
C59   C64   A    
C50   C54   A    
C6    C85   A    
N19   N29   A    
C60   C63   A    
C95   H59   S    
N1    N22   A    
C31   C58   A    
N18   N28   A    
C84   N13   A    
C79   C93   A    
C13   H12   S    
N12   Ni2   S    
C10   C15   A    
C78   H42   S    
C9    C88   A    
C4    C65   S    
C95   C99   A    
C25   H2    S    
C72   H36   S    
C7    C86   A    
C24   C100  A    
C61   C66   A    
C40   C49   A    
C96   C100  A    
C27   H4    S    
N28   Ni5   S    
C23   H45   S    
C42   C57   A    
C43   H33   S    
C31   H8    S    
C11   C23   S    
N3    Ni4   S    
C60   H24   S    
N2    Ni1   S    
C6    C15   S    
C22   H65   S    
N4    N13   A    
C81   H44   S    
N20   Ni8   S    
C69   H28   S    
C43   C68   A    
C49   C51   A    
N9    N32   A    
C42   H32   S    
C12   C17   A    
N6    Ni5   S    
C51   H19   S    
C41   C46   A    
C31   C33   A    
N5    Ni6   S    
N20   N30   A    
C43   N30   A    
C18   C22   A    
C4    C74   A    
C35   N27   A    
C7    C77   A    
N21   N31   A    
C59   H22   S    
C48   C50   A    
N26   N27   A    
C28   C34   A    
C59   C60   A    
C94   H58   S    
C21   H64   S    
C87   H51   S    
C21   C22   A    
C25   H56   S    
C8    C78   A    
C34   H11   S    
C88   H52   S    
N3    N11   A    
N29   Ni6   S    
N23   Ni3   S    
N7    Ni8   S    
C36   H13   S    
C45   H14   S    
C35   H34   S    
C82   H46   S    
C2    C64   S    
C63   C67   A    
C84   H48   S    
N11   Ni7   S    
C44   H35   S    
C32   H9    S    
N18   Ni6   S    
C12   C27   S    
C52   C56   A    
C34   C39   A    
C36   C40   A    
N13   Ni8   S    
C80   N8    A    
C91   H54   S    
N12   N24   A    
C87   N16   A    
C41   H31   S    
C5    C84   A    
C28   C54   A    
N22   Ni2   S    
N27   Ni4   S    
C29   C55   A    
C45   C52   A    
C32   C37   A    
C20   H63   S    
C30   C56   A    
C24   H23   S    
C17   C21   A    
C67   C69   A    
C9    C80   A    
C97   N26   A    
C5    C75   A    
N4    Ni3   S    
C47   H15   S    
C94   N22   A    
C67   H27   S    
C26   H3    S    
C72   N32   A    
C72   C90   A    
C11   C16   A    
C3    C97   A    
C89   H53   S    
C66   C71   A    
C3    C35   A    
C28   H5    S    
N24   Ni1   S    
C80   H43   S    
C46   C54   S    
C38   C47   A    
C16   C20   A    
C64   C69   A    
C14   C26   S    
C93   H57   S    
N25   Ni4   S    
C74   N3    A    
C70   C71   A    
C2    C73   A    
C95   N24   A    
C83   H47   S    
C81   C90   A    
C52   H20   S    
C10   C25   S    
C88   N17   A    
C96   H60   S    
C12   C14   A    
N5    N14   A    
C97   H61   S    
C55   C57   S    
C26   C27   S    
C78   N7    A    
C49   H17   S    
C29   H6    S    
C2    C82   A    
C76   H40   S    
C37   C45   A    
C1    H1    S    
N1    Ni1   S    
C37   C99   S    
N8    Ni7   S    
C62   H26   S    
C44   C79   A    
C91   N19   A    
C76   N5    A    
C57   C91   A    
C62   C65   A    
N30   Ni7   S    
C50   H18   S    
N15   Ni2   S    
C85   N14   A    
C7    C16   S    
C8    C17   S    
C5    C66   S    
C1    C98   A    
C40   C100  S    
C42   N29   A    
N19   Ni5   S    
C92   N20   A    
C6    C76   A    
C93   N21   A    
C77   H41   S    
C41   N28   A    
C13   N12   A    
C83   N11   A    
C33   C38   A    
C48   H16   S    
C8    C87   A    
C56   C68   S    
C86   H50   S    
C81   N9    A    
C75   H39   S    
C71   H30   S    
C30   C32   A    
C86   N15   A    
C4    C83   A    
C73   H37   S    
N21   Ni7   S    
N26   Ni3   S    
N10   Ni6   S    
C63   C90   S    
C1    N1    A    
N31   Ni8   S    
C68   C92   A    
N9    Ni5   S    
C24   N23   A    
C51   C55   A    
C70   H29   S    
C61   C62   A    
C85   H49   S    
C10   C11   A    
C53   H21   S    
C23   H68   S    
C96   N25   A    
C9    C18   S    
C23   C25   S    
C44   N31   A    
N32   Ni2   S    
C92   H55   S    
C26   H66   S    
N17   Ni4   S    
C75   N4    A    
N16   Ni3   S    
C94   C98   A    
C39   C48   A    
C61   H25   S    
C33   H10   S    
C73   N2    A    
N6    N15   A    
C82   N10   A    
C19   H62   S    
C3    C39   S    
C65   C70   A    
C27   H67   S    
N7    N16   A    
N2    N10   A    
