data_mof_unit_pretest_125.cif
_audit_creation_date              2012-12-11T15:59:36-0500
_audit_creation_method            fapswitch 2.2
_symmetry_space_group_name_H-M    P1
_symmetry_Int_Tables_number       1
_space_group_crystal_system       triclinic
_cell_length_a                    10.696047
_cell_length_b                    10.771391
_cell_length_c                    17.085396
_cell_angle_alpha                 99.543665
_cell_angle_beta                  99.805235
_cell_angle_gamma                 60.986301
_cell_volume                      1688.3296731

loop_
_atom_site_label
_atom_site_type_symbol
_atom_type_description
_atom_site_fract_x
_atom_site_fract_y
_atom_site_fract_z
_atom_type_partial_charge
C1    C     C_R   0.355333 0.771581 0.399362 0.541671
C2    C     C_R   0.844922 0.209953 0.195277 0.004805
C3    C     C_R   0.859914 0.216428 0.279286 0.013641
C4    C     C_R   0.781708 0.471000 0.285374 -0.148312
C5    C     C_R   0.779314 0.463649 0.204127 0.028317
C6    C     C_R   0.856919 0.081672 0.151131 -0.069543
C7    C     C_R   0.905909 0.958397 0.188778 -0.125452
C8    C     C_R   0.938247 0.961609 0.271203 -0.127756
C9    C     C_R   0.913270 0.089895 0.316504 -0.096224
C10   C     C_R   0.820234 0.349770 0.323646 -0.022483
C11   C     C_R   0.347564 0.835744 0.162841 0.033968
C12   C     C_R   0.369636 0.346913 0.357425 0.555599
C13   C     C_R   0.431337 0.881569 0.223357 0.025458
C14   C     C_R   0.424721 0.872621 0.303908 0.006371
C15   C     C_R   0.280560 0.749437 0.259495 -0.146536
C16   C     C_R   0.282436 0.761665 0.181623 -0.139335
C17   C     C_R   0.521465 0.935492 0.207578 -0.053537
C18   C     C_R   0.601180 0.976665 0.268820 -0.075782
C19   C     C_R   0.595708 0.964731 0.347222 -0.082689
C20   C     C_R   0.501672 0.922226 0.365087 -0.104415
C21   C     C_R   0.344587 0.810166 0.321001 0.008610
C22   C     C_R   0.283073 0.266841 0.793627 0.003950
C23   C     C_R   0.775170 0.378125 0.403084 0.540994
C24   C     C_R   0.380387 0.148949 0.744165 -0.023574
C25   C     C_R   0.381725 0.168115 0.664657 0.017460
C26   C     C_R   0.209314 0.418272 0.686435 -0.147507
C27   C     C_R   0.190177 0.399697 0.761780 0.243571
C28   C     C_R   0.481453 0.013329 0.770846 -0.105321
C29   C     C_R   0.579248 0.906101 0.721916 -0.117662
C30   C     C_R   0.573471 0.925233 0.643183 -0.070933
C31   C     C_R   0.467336 0.050185 0.613198 -0.062058
C32   C     C_R   0.308857 0.306769 0.640172 -0.043471
C33   C     C_1   0.845079 0.329952 0.705716 -0.048340
C34   C     C_R   0.381008 0.715196 0.631584 0.570248
C35   C     C_1   0.891602 0.294860 0.772270 -0.040733
C36   C     C_1   0.357988 0.764905 0.713765 -0.042531
C37   C     C_1   0.325444 0.811769 0.780653 -0.050734
C38   C     C_R   0.889560 0.309332 0.086524 0.577503
C39   C     C_R   0.319400 0.299510 0.120041 0.564043
C40   C     C_R   0.296161 0.892603 0.085991 0.572446
C41   C     C_R   0.941925 0.274314 0.854592 0.539037
C42   C     C_R   0.277187 0.251463 0.877381 0.555172
C43   C     C_R   0.280872 0.881105 0.857695 0.548572
C44   C     C_R   0.364153 0.343240 0.579549 0.540100
C45   C     C_R   0.777114 0.379051 0.629173 0.542059
C46   C     C_1   0.343170 0.337093 0.274055 -0.032863
C47   C     C_1   0.332148 0.326610 0.203277 -0.038758
C48   C     C_R   0.821605 0.330949 0.158821 -0.018747
Cr1   Cr    Cr6+3 0.608100 0.610860 0.522250 0.983609
Cr2   Cr    Cr6+3 0.288890 0.599990 0.488420 1.011439
Cr3   Cr    Cr6+3 0.603040 0.289190 0.489390 0.996763
Cr4   Cr    Cr6+3 0.053960 0.052250 0.967380 1.012480
Cr5   Cr    Cr6+3 0.059890 0.373160 0.992710 1.068459
Cr6   Cr    Cr6+3 0.373370 0.061690 0.991710 0.980665
H1    H     H_    0.745733 0.575697 0.318188 0.174208
H2    H     H_    0.667519 0.018082 0.255042 0.142662
H3    H     H_    0.660508 0.993879 0.394715 0.129379
H4    H     H_    0.491635 0.928199 0.427364 0.114707
H5    H     H_    0.155480 0.524058 0.666733 0.136432
H6    H     H_    0.493201 0.984086 0.829148 0.176629
H7    H     H_    0.655902 0.805208 0.744474 0.104447
H8    H     H_    0.646488 0.840186 0.604233 0.121737
H9    H     H_    0.456816 0.056250 0.549818 0.112488
H10   H     H_    0.825532 0.075675 0.087631 0.141342
H11   H     H_    0.917751 0.860382 0.153981 0.139189
H12   H     H_    0.976784 0.865843 0.300409 0.142074
H13   H     H_    0.937535 0.088939 0.380597 0.126737
H14   H     H_    0.229027 0.690088 0.271255 0.148224
H15   H     H_    0.545287 0.935832 0.149213 0.167031
H16   H     H_    0.224519 0.720442 0.135975 0.142861
O1    O     O_R   0.749810 0.499790 0.438040 -0.524072
O2    O     O_R   0.298970 0.468800 0.557390 -0.518221
O3    O     O_R   0.489400 0.255930 0.561910 -0.521536
O4    O     O_R   0.723890 0.306050 0.584610 -0.488695
O5    O     O_3   0.500010 0.500010 0.500020 -0.256935
O6    O     O_R   0.171100 0.914680 0.053100 -0.510894
O7    O     O_R   0.941680 0.184840 0.050710 -0.514655
O8    O     O_R   0.922080 0.403420 0.072610 -0.469902
O9    O     O_R   0.196880 0.369150 0.083850 -0.488637
O10   O     O_R   0.411730 0.181020 0.091530 -0.528711
O11   O     O_R   0.365010 0.944360 0.063320 -0.527153
O12   O     O_R   0.477660 0.726260 0.439290 -0.509752
O13   O     O_R   0.159380 0.906670 0.876210 -0.512547
O14   O     O_R   0.930820 0.177420 0.886730 -0.488119
O15   O     O_R   0.910360 0.395420 0.895720 -0.499404
O16   O     O_R   0.186010 0.361730 0.919870 -0.434271
O17   O     O_R   0.400000 0.173010 0.914630 -0.532003
O18   O     O_R   0.354140 0.936940 0.899340 -0.539030
O19   O     O_3   0.162410 0.162370 0.983930 -0.298055
O20   O     O_R   0.260150 0.743000 0.412270 -0.525247
O21   O     O_R   0.297740 0.466550 0.394720 -0.499085
O22   O     O_R   0.488080 0.253500 0.386430 -0.528224
O23   O     O_R   0.722670 0.303800 0.421940 -0.503873
O24   O     O_R   0.751130 0.502220 0.613520 -0.540123
O25   O     O_R   0.478890 0.728510 0.601960 -0.500258
O26   O     O_R   0.261470 0.745430 0.587750 -0.512478
O27   O     O_3   0.102724 0.516242 0.811379 -0.524153
C49   C     C_3   0.970177 0.611081 0.771969 -0.020844
H17   H     H_    0.883222 0.629707 0.807005 0.159447
H18   H     H_    0.943571 0.569537 0.710831 0.130158
C50   C     C_3   0.967554 0.753591 0.770509 -0.362807
H19   H     H_    0.961185 0.808853 0.831771 0.178669
H20   H     H_    0.066041 0.737526 0.747771 0.171792
H21   H     H_    0.873142 0.822399 0.731215 0.099656
C51   C     C_2   0.738625 0.595744 0.168213 0.588140
O28   O     O_2   0.789004 0.674689 0.199441 -0.557881
O29   O     O_R   0.651196 0.623913 0.095692 -0.689381
H22   H     H_    0.641695 0.709637 0.073093 0.327223

loop_
_geom_bond_atom_site_label_1
_geom_bond_atom_site_label_2
_ccdc_geom_bond_type
C25   C31   A    
C1    C21   S    
C1    O20   A    
C43   O13   A    
C12   O21   A    
C19   C20   A    
Cr3   O4    S    
O27   C49   S    
C7    C8    A    
C5    C51   S    
C19   H3    S    
C26   C32   A    
C51   O29   S    
C28   C29   A    
C26   C27   A    
C50   H19   S    
C43   O18   A    
C14   C21   A    
C36   C37   T    
Cr5   O9    S    
Cr3   O5    S    
C30   C31   A    
C15   C16   A    
C33   C45   S    
C14   C20   A    
C18   C19   A    
C6    H10   S    
Cr4   O14   S    
Cr2   O2    S    
C17   H15   S    
Cr3   O3    S    
Cr2   O20   S    
C8    C9    A    
C22   C42   S    
O29   H22   S    
Cr1   O5    S    
Cr5   O16   S    
C42   O16   A    
Cr1   O24   S    
C26   H5    S    
C38   C48   S    
C18   H2    S    
C25   C32   A    
C50   H20   S    
C13   C14   A    
Cr4   O19   S    
C2    C6    A    
C45   O24   A    
Cr6   O10   S    
C28   H6    S    
C5    C48   A    
C29   H7    S    
C23   O1    A    
C16   H16   S    
C34   O25   A    
Cr6   O19   S    
C12   C46   S    
C38   O8    A    
C2    C48   A    
C1    O12   A    
C41   O14   A    
C8    H12   S    
Cr1   O25   S    
C23   O23   A    
C45   O4    A    
C39   O9    A    
Cr1   O12   S    
C37   C43   S    
Cr4   O13   S    
C9    H13   S    
C29   C30   A    
C3    C9    A    
C31   H9    S    
Cr3   O22   S    
C7    H11   S    
C11   C16   A    
C17   C18   A    
C32   C44   S    
C24   C25   A    
Cr3   O23   S    
C50   H21   S    
C49   H18   S    
C22   C27   A    
C30   H8    S    
C4    H1    S    
Cr5   O19   S    
C22   C24   A    
C4    C10   A    
Cr4   O7    S    
C39   C47   S    
C44   O3    A    
C46   C47   T    
C27   O27   S    
C40   O11   A    
C12   O22   A    
C24   C28   A    
C34   O26   A    
C4    C5    A    
Cr4   O6    S    
C6    C7    A    
C38   O7    A    
C10   C23   S    
C49   C50   S    
C41   O15   A    
C51   O28   D    
C13   C17   A    
C39   O10   A    
C2    C3    A    
C3    C10   A    
Cr2   O5    S    
Cr6   O18   S    
C11   C13   A    
Cr2   O26   S    
Cr6   O17   S    
C15   H14   S    
C33   C35   T    
C44   O2    A    
C34   C36   S    
C11   C40   S    
C35   C41   S    
Cr5   O8    S    
C40   O6    A    
Cr2   O21   S    
C15   C21   A    
C49   H17   S    
Cr1   O1    S    
Cr5   O15   S    
C42   O17   A    
C20   H4    S    
Cr6   O11   S    
