data_mof_unit_pretest_1811.cif
_audit_creation_date              2012-10-26T17:52:04-0400
_audit_creation_method            fapswitch 2.2
_symmetry_space_group_name_H-M    P1
_symmetry_Int_Tables_number       1
_space_group_crystal_system       triclinic
_cell_length_a                    30.240507
_cell_length_b                    30.262404
_cell_length_c                    29.359506
_cell_angle_alpha                 90.084241
_cell_angle_beta                  90.003935
_cell_angle_gamma                 89.846569
_cell_volume                      26868.2394

loop_
_atom_site_label
_atom_site_type_symbol
_atom_type_description
_atom_site_fract_x
_atom_site_fract_y
_atom_site_fract_z
_atom_type_partial_charge
C1    C     C_R   0.500055 0.914597 0.000018 0.559803
C2    C     C_R   0.273755 0.528468 0.081246 0.307270
C3    C     C_R   0.999973 0.499974 0.915395 0.544298
C4    C     C_R   0.000004 0.499943 0.584615 0.539138
C5    C     C_R   0.499974 0.000024 0.584606 0.542119
C6    C     C_R   0.000001 0.500002 0.415385 0.538659
C7    C     C_R   0.500038 0.999971 0.415394 0.542770
C8    C     C_1   0.500008 0.999987 0.135888 0.033254
C9    C     C_1   0.000190 0.500097 0.135879 0.031277
C10   C     C_1   0.499989 0.999893 0.864111 0.035518
C11   C     C_1   0.999966 0.499925 0.864122 0.029051
C12   C     C_1   0.000009 0.499920 0.635887 0.026943
C13   C     C_R   0.424955 0.271442 0.033474 0.308647
C14   C     C_1   0.499981 0.000058 0.635878 0.033194
C15   C     C_1   0.000012 0.500024 0.364113 0.026855
C16   C     C_1   0.500059 0.999918 0.364121 0.034801
C17   C     C_1   0.500022 0.999959 0.178371 0.035856
C18   C     C_1   0.000173 0.500107 0.178362 0.032802
C19   C     C_1   0.499991 0.999913 0.821628 0.037380
C20   C     C_1   0.999972 0.499912 0.821639 0.028657
C21   C     C_1   0.000004 0.499915 0.678371 0.027411
C22   C     C_1   0.499992 0.000042 0.678361 0.035820
C23   C     C_1   0.000041 0.500047 0.321629 0.028596
C24   C     C_R   0.728048 0.443686 0.062000 0.306811
C25   C     C_1   0.500062 0.999907 0.321639 0.037022
C26   C     C_1   0.500040 0.999930 0.228761 0.068569
C27   C     C_1   0.000129 0.500094 0.228752 0.063805
C28   C     C_1   0.499996 0.999957 0.771238 0.068944
C29   C     C_1   0.999983 0.499910 0.771249 0.059698
C30   C     C_1   0.999993 0.499912 0.728761 0.059335
C31   C     C_1   0.499997 0.999999 0.728751 0.068526
C32   C     C_1   0.000088 0.500074 0.271239 0.062231
C33   C     C_1   0.500053 0.999914 0.271249 0.068883
C34   C     C_R   0.483233 0.658526 0.962418 0.229665
C35   C     C_R   0.489047 0.727429 0.917694 0.306703
C36   C     C_R   0.341911 0.466550 0.972504 0.223691
C37   C     C_R   0.530262 0.342678 0.972220 0.227353
C38   C     C_R   0.657908 0.534300 0.977310 0.213220
C39   C     C_R   0.517268 0.658468 0.037614 0.231317
C40   C     C_R   0.657330 0.470415 0.028388 0.227527
C41   C     C_R   0.465000 0.342181 0.021562 0.216760
C42   C     C_R   0.341625 0.520608 0.034569 0.222983
C43   C     C_R   0.966469 0.157721 0.476489 0.215306
C44   C     C_R   0.841597 0.982697 0.462474 0.236388
C45   C     C_R   0.036850 0.842247 0.481336 0.224460
C46   C     C_R   0.728694 0.574009 0.964367 0.306306
C47   C     C_R   0.156918 0.032904 0.476256 0.222618
C48   C     C_R   0.032984 0.157693 0.523818 0.231826
C49   C     C_R   0.157775 0.963609 0.519145 0.224743
C50   C     C_R   0.966612 0.843122 0.522712 0.217713
C51   C     C_R   0.841476 0.017067 0.537548 0.231648
C52   C     C_R   0.500150 0.635184 0.000041 0.017888
C53   C     C_R   0.364591 0.496292 0.001251 0.018995
C54   C     C_R   0.498611 0.365079 0.998681 0.021930
C55   C     C_R   0.634949 0.501380 0.001160 0.019662
C56   C     C_R   0.999789 0.134802 0.500127 0.020702
C57   C     C_R   0.557989 0.271867 0.939478 0.307161
C58   C     C_R   0.864840 0.999931 0.500000 0.024108
C59   C     C_R   0.001201 0.865262 0.500722 0.021723
C60   C     C_R   0.134762 0.998861 0.499117 0.022407
C61   C     C_R   0.510512 0.704450 0.040483 0.001171
C62   C     C_R   0.296250 0.512919 0.042047 0.000818
C63   C     C_R   0.461508 0.295816 0.016500 0.000837
C64   C     C_R   0.703822 0.472879 0.033396 -0.001019
C65   C     C_R   0.490235 0.704412 0.959536 0.000250
C66   C     C_R   0.704279 0.537950 0.982327 -0.001212
C67   C     C_R   0.527995 0.296171 0.967232 -0.000028
C68   C     C_R   0.271098 0.427968 0.953655 0.309094
C69   C     C_R   0.295606 0.460461 0.977831 0.002180
C70   C     C_R   0.036365 0.203945 0.518811 -0.000693
C71   C     C_R   0.795565 0.010104 0.540467 0.003176
C72   C     C_R   0.968504 0.796683 0.528203 -0.000667
C73   C     C_R   0.204267 0.960808 0.514416 -0.000820
C74   C     C_R   0.963346 0.204132 0.480982 -0.000502
C75   C     C_R   0.203405 0.030967 0.470888 0.000139
C76   C     C_R   0.039480 0.795739 0.485911 -0.001136
C77   C     C_R   0.795621 0.989516 0.459575 0.000946
C78   C     C_R   0.500389 0.727757 0.000010 -0.091333
C79   C     C_R   0.075040 0.227729 0.530913 0.306598
C80   C     C_R   0.272699 0.486574 0.010502 -0.093202
C81   C     C_R   0.495183 0.272764 0.992153 -0.092491
C82   C     C_R   0.727288 0.504992 0.007629 -0.093165
C83   C     C_R   0.999933 0.227250 0.499795 -0.093241
C84   C     C_R   0.772257 0.999788 0.500026 -0.089378
C85   C     C_R   0.003641 0.772988 0.506907 -0.094218
C86   C     C_R   0.227065 0.996247 0.492831 -0.093842
C87   C     C_R   0.772497 0.011455 0.582312 0.308480
C88   C     C_R   0.936117 0.772784 0.553075 0.305531
C89   C     C_R   0.085628 0.499917 0.001229 0.556631
C90   C     C_R   0.229035 0.923413 0.529014 0.306786
C91   C     C_R   0.924862 0.228304 0.468571 0.305805
C92   C     C_R   0.227401 0.062947 0.445566 0.309824
C93   C     C_R   0.077064 0.770907 0.471779 0.306381
C94   C     C_R   0.772534 0.988088 0.417742 0.306844
C95   C     C_R   0.509422 0.773914 0.082663 0.272494
C96   C     C_R   0.227397 0.526167 0.083417 0.272896
C97   C     C_R   0.427424 0.225236 0.036409 0.271544
C98   C     C_R   0.774115 0.441325 0.058912 0.273999
C99   C     C_R   0.491467 0.773721 0.917341 0.273110
C100  C     C_R   0.499924 0.085495 0.999853 0.556732
C101  C     C_R   0.774934 0.571513 0.961627 0.272444
C102  C     C_R   0.560190 0.225817 0.942611 0.273713
C103  C     C_R   0.224619 0.429826 0.953308 0.271812
C104  C     C_R   0.074177 0.274080 0.532382 0.269604
C105  C     C_R   0.726181 0.008946 0.582688 0.273766
C106  C     C_R   0.934792 0.726618 0.550850 0.271621
C107  C     C_R   0.275235 0.925935 0.532310 0.267968
C108  C     C_R   0.926012 0.274647 0.466890 0.272030
C109  C     C_R   0.273570 0.064403 0.448004 0.273365
C110  C     C_R   0.074536 0.724726 0.468447 0.267647
C111  C     C_R   0.914537 0.500072 0.000150 0.557630
C112  C     C_R   0.726199 0.990540 0.417383 0.274115
C113  C     C_R   0.508647 0.797593 0.041115 -0.000081
C114  C     C_R   0.203038 0.511781 0.044965 -0.000791
C115  C     C_R   0.465134 0.202826 0.020071 -0.003462
C116  C     C_R   0.797716 0.473256 0.033944 -0.003057
C117  C     C_R   0.492110 0.797503 0.958891 -0.000337
C118  C     C_R   0.797309 0.534278 0.978983 -0.003371
C119  C     C_R   0.527562 0.202297 0.966708 -0.002800
C120  C     C_R   0.202258 0.463405 0.977675 -0.001274
C121  C     C_R   0.035274 0.297104 0.520456 -0.004638
C122  C     C_R   0.000054 0.414480 0.499956 0.553217
C123  C     C_R   0.702432 0.008122 0.541146 0.000202
C124  C     C_R   0.969507 0.702847 0.530057 -0.003893
C125  C     C_R   0.297299 0.964578 0.518461 -0.004111
C126  C     C_R   0.964990 0.297344 0.478857 -0.004378
C127  C     C_R   0.297291 0.030042 0.469345 -0.004022
C128  C     C_R   0.035678 0.702708 0.481820 -0.005003
C129  C     C_R   0.702459 0.991387 0.458933 0.000467
C130  C     C_R   0.500392 0.774306 0.000007 -0.057627
C131  C     C_R   0.225912 0.487098 0.011198 -0.060440
C132  C     C_R   0.495856 0.226018 0.992716 -0.062716
C133  C     C_R   0.585388 0.999947 0.500005 0.558654
C134  C     C_R   0.774049 0.504293 0.007120 -0.063313
C135  C     C_R   0.000068 0.273827 0.499687 -0.063666
C136  C     C_R   0.725694 0.999760 0.500035 -0.056385
C137  C     C_R   0.003018 0.726251 0.506519 -0.063997
C138  C     C_R   0.273817 0.996872 0.493282 -0.062886
C139  C     C_R   0.514672 0.843769 0.038958 0.090966
C140  C     C_R   0.156892 0.519118 0.039883 0.086541
C141  C     C_R   0.472230 0.157455 0.027945 0.099695
C142  C     C_R   0.844272 0.476616 0.035919 0.096554
C143  C     C_R   0.485887 0.843683 0.961041 0.090516
C144  C     C_R   0.999965 0.585539 0.500164 0.554515
C145  C     C_R   0.842705 0.526991 0.971327 0.099118
C146  C     C_R   0.524197 0.155762 0.964618 0.097256
C147  C     C_R   0.156882 0.472469 0.971570 0.099629
C148  C     C_R   0.030640 0.343017 0.526859 0.100711
C149  C     C_R   0.656224 0.014262 0.538993 0.091339
C150  C     C_R   0.973075 0.656346 0.533047 0.098587
C151  C     C_R   0.342655 0.971244 0.526700 0.100340
C152  C     C_R   0.969768 0.343208 0.472537 0.101554
C153  C     C_R   0.343819 0.026477 0.466521 0.098239
C154  C     C_R   0.029123 0.657343 0.473566 0.099717
C155  C     C_R   0.414487 0.000035 0.499839 0.554991
C156  C     C_R   0.656274 0.985306 0.461099 0.090782
C157  C     C_R   0.500196 0.866548 0.000012 0.000688
C158  C     C_R   0.134155 0.498596 0.003573 -0.006523
C159  C     C_R   0.499496 0.133697 0.998024 -0.005387
C160  C     C_R   0.866369 0.500490 0.001928 -0.004944
C161  C     C_R   0.000171 0.366228 0.499782 -0.009129
C162  C     C_R   0.633433 0.999824 0.500037 0.000717
C163  C     C_R   0.000097 0.633829 0.501723 -0.007990
C164  C     C_R   0.366225 0.999898 0.498231 -0.006424
C165  C     C_R   0.413261 0.499386 0.000047 0.615028
C166  C     C_R   0.511852 0.727601 0.082311 0.306634
C167  C     C_R   0.499394 0.413484 0.999871 0.627165
C168  C     C_R   0.586526 0.500584 0.000086 0.625305
C169  C     C_R   0.500031 0.586655 0.000023 0.612781
C170  C     C_R   0.913355 0.000006 0.499998 0.624073
C171  C     C_R   0.000793 0.913557 0.500019 0.630473
C172  C     C_R   0.086452 0.999308 0.499943 0.632860
C173  C     C_R   0.999939 0.086497 0.500042 0.626758
C174  C     C_R   0.500001 0.000015 0.084615 0.543176
C175  C     C_R   0.000147 0.500034 0.084606 0.541012
C176  C     C_R   0.499996 0.999914 0.915384 0.544523
Cl1   Cl    Cl    0.446424 0.631726 0.924264 -0.404674
Cl2   Cl    Cl    0.868709 0.945775 0.424527 -0.390325
Cl3   Cl    Cl    0.073755 0.872860 0.446465 -0.417218
Cl4   Cl    Cl    0.125449 0.081165 0.463889 -0.397382
Cl5   Cl    Cl    0.066893 0.127979 0.562651 -0.399590
Cl6   Cl    Cl    0.127270 0.927452 0.554927 -0.415581
Cl7   Cl    Cl    0.917908 0.874517 0.533594 -0.421103
Cl8   Cl    Cl    0.868289 0.054069 0.575495 -0.402158
Cl9   Cl    Cl    0.507802 0.699448 0.135127 -0.304489
Cl10  Cl    Cl    0.302801 0.542623 0.131712 -0.300899
Cl11  Cl    Cl    0.372528 0.296166 0.043402 -0.296678
Cl12  Cl    Cl    0.371589 0.442369 0.926594 -0.409633
Cl13  Cl    Cl    0.703910 0.413821 0.107558 -0.312836
Cl14  Cl    Cl    0.493297 0.699074 0.864913 -0.301017
Cl15  Cl    Cl    0.703962 0.626061 0.952804 -0.312836
Cl16  Cl    Cl    0.589305 0.295860 0.894876 -0.313314
Cl17  Cl    Cl    0.296211 0.379905 0.930421 -0.293928
Cl18  Cl    Cl    0.127373 0.201487 0.535939 -0.285643
Cl19  Cl    Cl    0.800832 0.007530 0.635094 -0.302626
Cl20  Cl    Cl    0.900200 0.797803 0.593364 -0.308334
Cl21  Cl    Cl    0.204940 0.870411 0.535783 -0.271825
Cl22  Cl    Cl    0.872345 0.202769 0.463248 -0.315760
Cl23  Cl    Cl    0.576804 0.373841 0.954097 -0.390613
Cl24  Cl    Cl    0.202611 0.098143 0.404551 -0.307438
Cl25  Cl    Cl    0.130216 0.794885 0.465555 -0.270961
Cl26  Cl    Cl    0.800805 0.991996 0.364935 -0.308084
Cl27  Cl    Cl    0.496829 0.800050 0.135177 -0.394487
Cl28  Cl    Cl    0.202610 0.530643 0.137938 -0.387354
Cl29  Cl    Cl    0.378884 0.195755 0.051163 -0.372922
Cl30  Cl    Cl    0.799610 0.392262 0.078942 -0.370953
Cl31  Cl    Cl    0.504191 0.799659 0.864873 -0.386240
Cl32  Cl    Cl    0.804464 0.619656 0.945730 -0.377463
Cl33  Cl    Cl    0.609730 0.200187 0.923866 -0.369666
Cl34  Cl    Cl    0.627897 0.566187 0.936914 -0.406129
Cl35  Cl    Cl    0.195372 0.383854 0.931116 -0.370853
Cl36  Cl    Cl    0.124937 0.302480 0.539522 -0.370177
Cl37  Cl    Cl    0.700202 0.996340 0.635192 -0.385720
Cl38  Cl    Cl    0.884403 0.700819 0.566172 -0.375112
Cl39  Cl    Cl    0.305272 0.876845 0.544183 -0.368079
Cl40  Cl    Cl    0.875440 0.303572 0.459444 -0.377064
Cl41  Cl    Cl    0.299372 0.114624 0.432219 -0.364594
Cl42  Cl    Cl    0.123785 0.694646 0.457177 -0.367088
Cl43  Cl    Cl    0.700119 0.003059 0.364870 -0.391879
Cl44  Cl    Cl    0.554029 0.631371 0.075658 -0.405672
Cl45  Cl    Cl    0.626290 0.424125 0.047353 -0.388806
Cl46  Cl    Cl    0.431875 0.372359 0.060844 -0.417225
Cl47  Cl    Cl    0.368345 0.567382 0.058670 -0.416840
Cl48  Cl    Cl    0.931727 0.127537 0.438893 -0.410769
Cu1   Cu    Cu3+1 0.544460 0.000000 0.000000 1.131750
Cu2   Cu    Cu3+1 0.500000 0.500000 0.957520 1.285179
Cu3   Cu    Cu3+1 0.000000 1.000000 0.542480 1.268433
Cu4   Cu    Cu3+1 0.000000 0.000000 0.457520 1.267911
Cu5   Cu    Cu3+1 1.000000 0.544460 0.000000 1.119049
Cu6   Cu    Cu3+1 0.455540 0.000000 0.000000 1.121436
Cu7   Cu    Cu3+1 1.000000 0.455540 0.000000 1.131875
Cu8   Cu    Cu3+1 0.044460 0.500000 0.500000 1.141248
Cu9   Cu    Cu3+1 0.500000 0.044460 0.500000 1.125333
Cu10  Cu    Cu3+1 0.955540 0.500000 0.500000 1.130462
Cu11  Cu    Cu3+1 0.500000 0.955540 0.500000 1.136029
Cu12  Cu    Cu3+1 0.500000 0.500000 0.042480 1.282172
I1    I     I_    0.552375 0.879355 0.089352 -0.115138
I2    I     I_    0.620603 0.052059 0.589441 -0.115171
I3    I     I_    0.951043 0.620543 0.592160 -0.128773
I4    I     I_    0.373674 0.948946 0.588494 -0.129102
I5    I     I_    0.942614 0.375771 0.413707 -0.120670
I6    I     I_    0.379883 0.047815 0.407272 -0.129876
I7    I     I_    0.052143 0.626265 0.412016 -0.126758
I8    I     I_    0.620781 0.947495 0.410716 -0.114676
I9    I     I_    0.122109 0.568859 0.078711 -0.113829
I10   I     I_    0.452731 0.126348 0.090604 -0.129979
I11   I     I_    0.881276 0.459162 0.095976 -0.138683
I12   I     I_    0.448146 0.879162 0.910552 -0.127448
I13   I     I_    0.874086 0.545004 0.908307 -0.133161
I14   I     I_    0.542885 0.118826 0.904843 -0.131579
I15   I     I_    0.124734 0.461576 0.907007 -0.144041
I16   I     I_    0.058173 0.375419 0.585608 -0.126155
O1    O     O_R   0.537560 0.935150 0.000030 -0.482285
O2    O     O_R   0.564850 0.037560 0.500030 -0.483549
O3    O     O_R   0.962440 0.564850 0.500030 -0.480967
O4    O     O_R   0.435150 0.962440 0.500030 -0.477462
O5    O     O_R   0.962440 0.435150 0.499970 -0.479748
O6    O     O_R   0.435150 0.037560 0.499970 -0.480587
O7    O     O_R   0.037560 0.564850 0.499970 -0.477536
O8    O     O_R   0.564850 0.962440 0.499970 -0.482847
O9    O     O_R   0.537550 0.000020 0.061980 -0.480328
O10   O     O_R   0.999980 0.537550 0.061980 -0.482206
O11   O     O_R   0.462450 0.999980 0.061980 -0.478973
O12   O     O_R   0.064850 0.537560 0.000030 -0.483466
O13   O     O_R   0.000020 0.462450 0.061980 -0.478326
O14   O     O_R   0.462450 0.000020 0.938020 -0.482829
O15   O     O_R   0.000020 0.537550 0.938020 -0.479098
O16   O     O_R   0.537550 0.999980 0.938020 -0.475212
O17   O     O_R   0.999980 0.462450 0.938020 -0.478223
O18   O     O_R   0.037550 0.500020 0.561980 -0.479428
O19   O     O_R   0.499980 0.037550 0.561980 -0.482511
O20   O     O_R   0.962450 0.499980 0.561980 -0.479316
O21   O     O_R   0.500020 0.962450 0.561980 -0.475996
O22   O     O_R   0.962450 0.500020 0.438020 -0.480992
O23   O     O_R   0.462440 0.064850 0.000030 -0.479608
O24   O     O_R   0.500020 0.037550 0.438020 -0.477889
O25   O     O_R   0.037550 0.499980 0.438020 -0.477378
O26   O     O_R   0.499980 0.962450 0.438020 -0.480047
O27   O     O_R   0.435100 0.500020 0.035870 -0.470172
O28   O     O_R   0.499980 0.435100 0.035870 -0.462190
O29   O     O_R   0.564900 0.499980 0.035870 -0.480343
O30   O     O_R   0.500020 0.564900 0.035870 -0.465759
O31   O     O_R   0.564900 0.500020 0.964130 -0.460208
O32   O     O_R   0.500020 0.435100 0.964130 -0.479223
O33   O     O_R   0.435100 0.499980 0.964130 -0.465324
O34   O     O_R   0.935150 0.462440 0.000030 -0.479719
O35   O     O_R   0.499980 0.564900 0.964130 -0.463104
O36   O     O_R   0.935100 0.000020 0.535870 -0.464738
O37   O     O_R   0.999980 0.935100 0.535870 -0.479503
O38   O     O_R   0.064900 0.999980 0.535870 -0.465953
O39   O     O_R   0.000020 0.064900 0.535870 -0.471648
O40   O     O_R   0.064900 0.000020 0.464130 -0.482593
O41   O     O_R   0.000020 0.935100 0.464130 -0.469290
O42   O     O_R   0.935100 0.999980 0.464130 -0.463177
O43   O     O_R   0.999980 0.064900 0.464130 -0.467569
O44   O     O_R   0.462440 0.935150 0.999970 -0.484784
O45   O     O_R   0.935150 0.537560 0.999970 -0.479489
O46   O     O_R   0.537560 0.064850 0.999970 -0.479357
O47   O     O_R   0.064850 0.462440 0.999970 -0.478575
O48   O     O_R   0.037560 0.435150 0.500030 -0.478191

loop_
_geom_bond_atom_site_label_1
_geom_bond_atom_site_label_2
_ccdc_geom_bond_type
C4    O20   A    
C115  C141  A    
Cu6   O23   S    
C139  I1    S    
Cu12  O27   S    
C88   Cl20  S    
Cu2   O33   S    
C54   C167  S    
C122  C161  S    
Cu5   O10   S    
C150  C163  A    
C49   C60   A    
C24   C98   A    
C50   C59   A    
C44   C77   A    
C57   C67   A    
C90   C107  A    
C175  O10   A    
C92   C109  A    
Cu3   O38   S    
C105  C123  A    
Cu4   O42   S    
C61   C166  A    
C50   C72   A    
C36   C53   A    
C109  C127  A    
C38   C55   A    
C68   Cl17  S    
C112  C129  A    
C4    C12   S    
C93   Cl25  S    
C74   C83   A    
Cu1   O16   S    
C176  O14   A    
C93   C110  A    
C10   C176  S    
C96   C114  A    
C51   C71   A    
C55   C168  S    
Cu10  O22   S    
C59   C171  S    
C39   C61   A    
C144  O3    A    
C11   C20   T    
C148  I16   S    
C100  O23   A    
C124  C137  A    
C57   Cl16  S    
C155  O6    A    
C99   Cl31  S    
C36   Cl12  S    
C82   C134  A    
C111  C160  S    
C57   C102  A    
C66   C82   A    
C154  C163  A    
C75   C86   A    
Cu3   Cu4   S    
C13   C63   A    
C40   C55   A    
Cu8   Cu10  S    
C121  C135  A    
C79   Cl18  S    
C116  C142  A    
C171  O37   A    
C35   Cl14  S    
C49   C73   A    
C5    O21   A    
C41   C63   A    
C44   Cl2   S    
C95   C166  A    
C89   O47   A    
Cu5   O12   S    
C16   C25   T    
C154  I7    S    
C45   C59   A    
C1    O44   A    
C70   C79   A    
C8    C17   T    
C48   C70   A    
Cu11  O4    S    
C129  C156  A    
C146  C159  A    
C125  C138  A    
Cu1   Cu6   S    
C40   Cl45  S    
C2    C96   A    
C87   Cl19  S    
C172  O38   A    
C13   C97   A    
C3    C11   S    
C176  O16   A    
C107  Cl39  S    
C139  C157  A    
Cu1   O1    S    
C150  I3    S    
C106  C124  A    
C98   Cl30  S    
C34   Cl1   S    
C149  C162  A    
C108  C126  A    
C76   C85   A    
C102  C119  A    
C110  C128  A    
C13   Cl11  S    
C167  O28   A    
C68   C103  A    
Cu1   O9    S    
C46   Cl15  S    
C72   C85   A    
C119  C146  A    
C151  I4    S    
C47   Cl4   S    
Cu3   O39   S    
C101  C118  A    
C62   C80   A    
C73   C90   A    
C42   C53   A    
C8    C174  S    
C168  O29   A    
C95   Cl27  S    
C77   C94   A    
Cu2   Cu12  S    
C143  I12   S    
C165  O33   A    
C156  I8    S    
C140  C158  A    
C126  C152  A    
C141  C159  A    
C133  O8    A    
Cu11  O8    S    
Cu8   O7    S    
C113  C139  A    
Cu7   O34   S    
C114  C140  A    
C42   C62   A    
C152  C161  A    
C118  C134  A    
C96   Cl28  S    
C115  C132  A    
C106  Cl38  S    
C46   C101  A    
C113  C130  A    
Cu12  O30   S    
C107  C125  A    
C7    O24   A    
C103  Cl35  S    
C172  O40   A    
C77   C84   A    
Cu9   O24   S    
Cu1   O46   S    
C29   C30   T    
C99   C117  A    
C155  O4    A    
C122  O5    A    
C87   C105  A    
C38   Cl34  S    
C19   C28   S    
Cu9   O2    S    
C67   C81   A    
C97   C115  A    
C104  Cl36  S    
Cu6   O14   S    
Cu12  O28   S    
C118  C145  A    
C168  O31   A    
Cu9   O6    S    
C128  C154  A    
C3    O17   A    
C14   C22   T    
C78   C130  A    
C47   C75   A    
C152  I5    S    
C100  C159  S    
C133  O2    A    
C37   C67   A    
C94   C112  A    
C111  O34   A    
C9    C175  S    
C6    O22   A    
C109  Cl41  S    
C9    C18   T    
C142  I11   S    
C92   Cl24  S    
C147  C158  A    
C25   C33   S    
C120  C131  A    
C114  C131  A    
C103  C120  A    
C133  C162  S    
Cu5   O15   S    
C90   Cl21  S    
C173  O43   A    
C147  I15   S    
C45   C76   A    
C46   C66   A    
C48   Cl5   S    
C116  C134  A    
C35   C65   A    
C144  O7    A    
Cu2   O31   S    
C174  O11   A    
C91   Cl22  S    
C44   C58   A    
C68   C69   A    
C94   Cl26  S    
C127  C138  A    
Cu8   O48   S    
C24   C64   A    
C80   C131  A    
Cu3   O37   S    
C175  O13   A    
C1    O1    A    
C3    O15   A    
C18   C27   S    
C51   Cl8   S    
Cu4   O41   S    
Cu8   O25   S    
C101  Cl32  S    
C76   C93   A    
C10   C19   T    
C149  I2    S    
C121  C148  A    
C102  Cl33  S    
C51   C58   A    
C70   C83   A    
C5    C14   S    
C108  Cl40  S    
C71   C87   A    
C53   C165  S    
C7    C16   S    
C63   C81   A    
C126  C135  A    
Cu7   O13   S    
C144  C163  S    
Cu11  O21   S    
Cu8   O18   S    
C148  C161  A    
C100  O46   A    
C85   C137  A    
C145  I13   S    
C124  C150  A    
C84   C136  A    
C65   C78   A    
C58   C170  S    
C27   C32   T    
C169  O35   A    
C91   C108  A    
C28   C31   T    
C170  O36   A    
C119  C132  A    
C52   C169  S    
C21   C30   S    
C34   C52   A    
C56   C173  S    
C23   C32   S    
Cu5   Cu7   S    
Cu3   O36   S    
C174  O9    A    
C122  O48   A    
C120  C147  A    
C97   Cl29  S    
C6    O25   A    
Cu10  O3    S    
C74   C91   A    
Cu10  O5    S    
C123  C149  A    
C166  Cl9   S    
C50   Cl7   S    
C127  C153  A    
C89   C158  S    
C146  I14   S    
Cu4   O43   S    
C17   C26   S    
C117  C143  A    
C169  O30   A    
Cu6   O44   S    
C6    C15   S    
C38   C66   A    
C111  O45   A    
Cu5   O45   S    
C24   Cl13  S    
C7    O26   A    
C125  C151  A    
C83   C135  A    
C167  O32   A    
C43   C74   A    
C15   C23   T    
C39   C52   A    
C47   C60   A    
C156  C162  A    
C153  I6    S    
C165  O27   A    
C35   C99   A    
C34   C65   A    
C72   C88   A    
C143  C157  A    
C20   C29   S    
C171  O41   A    
C4    O18   A    
C41   C54   A    
C5    O19   A    
C105  Cl37  S    
C22   C31   S    
C153  C164  A    
C140  I9    S    
C60   C172  S    
C39   Cl44  S    
Cu2   O35   S    
C145  C160  A    
C45   Cl3   S    
C81   C132  A    
C104  C121  A    
C12   C21   T    
C128  C137  A    
C2    Cl10  S    
C129  C136  A    
C88   C106  A    
C98   C116  A    
C61   C78   A    
C141  I10   S    
Cu4   O40   S    
C89   O12   A    
C117  C130  A    
Cu9   Cu11  S    
C64   C82   A    
C75   C92   A    
C37   C54   A    
C151  C164  A    
C79   C104  A    
C42   Cl47  S    
C36   C69   A    
C71   C84   A    
C48   C56   A    
Cu6   O11   S    
Cu11  O26   S    
Cu12  O29   S    
C41   Cl46  S    
C142  C160  A    
Cu9   O19   S    
Cu10  O20   S    
C155  C164  S    
C40   C64   A    
C123  C136  A    
C1    C157  S    
C43   Cl48  S    
Cu7   O47   S    
C95   C113  A    
Cu7   O17   S    
C112  Cl43  S    
C37   Cl23  S    
C173  O39   A    
C110  Cl42  S    
Cu2   O32   S    
C73   C86   A    
C86   C138  A    
C49   Cl6   S    
C2    C62   A    
C43   C56   A    
C69   C80   A    
C170  O42   A    
C26   C33   T    
