data_mof_unit_pretest_424.cif
_audit_creation_date              2012-12-11T14:49:47-0500
_audit_creation_method            fapswitch 2.2
_symmetry_space_group_name_H-M    P1
_symmetry_Int_Tables_number       1
_space_group_crystal_system       triclinic
_cell_length_a                    10.906798
_cell_length_b                    10.948206
_cell_length_c                    18.895006
_cell_angle_alpha                 89.891341
_cell_angle_beta                  90.190836
_cell_angle_gamma                 119.937497
_cell_volume                      1955.18859379

loop_
_atom_site_label
_atom_site_type_symbol
_atom_type_description
_atom_site_fract_x
_atom_site_fract_y
_atom_site_fract_z
_atom_type_partial_charge
C1    C     C_R   0.552020 0.430744 0.638846 0.553709
C2    C     C_R   0.468623 0.527870 0.352951 0.528295
C3    C     C_R   0.472843 0.939598 0.146234 0.547577
C4    C     C_R   0.056070 0.530399 0.352293 0.529519
C5    C     C_R   0.396381 0.018577 0.534994 -0.168665
C6    C     C_R   0.614888 0.605607 0.963514 -0.158246
C7    C     C_R   0.981323 0.378724 0.534124 -0.167635
C8    C     C_R   0.394380 0.009969 0.963385 -0.158099
C9    C     C_R   0.592167 0.422254 0.513180 -0.159945
C10   C     C_R   0.989346 0.384490 0.963932 -0.158112
C11   C     C_R   0.008832 0.394363 0.036749 -0.157650
C12   C     C_R   0.939457 0.472775 0.853788 0.547548
C13   C     C_R   0.571727 0.444366 0.442970 -0.166598
C14   C     C_R   0.384476 0.990281 0.036185 -0.158432
C15   C     C_R   0.994602 0.383949 0.460708 -0.173643
C16   C     C_R   0.604990 0.615606 0.036295 -0.157841
C17   C     C_R   0.391366 0.006140 0.461617 -0.160907
C18   C     C_R   0.499908 0.999236 0.425604 0.013929
C19   C     C_R   0.496371 0.504034 0.073695 0.026778
C20   C     C_R   0.989645 0.491093 0.422349 0.012577
C21   C     C_R   0.496305 0.992950 0.073746 0.026775
C22   C     C_R   0.498768 0.514946 0.426350 0.039815
C23   C     C_R   0.532358 0.060046 0.646259 0.535275
C24   C     C_R   0.006381 0.503376 0.073876 0.026784
C25   C     C_R   0.992801 0.496167 0.926349 0.026223
C26   C     C_R   0.536704 0.467358 0.567132 0.040151
C27   C     C_R   0.503444 0.007067 0.926201 0.026632
C28   C     C_R   0.981016 0.490244 0.570504 0.009903
C29   C     C_R   0.503384 0.496543 0.926117 0.025752
C30   C     C_R   0.500002 0.006648 0.573670 0.010984
C31   C     C_R   0.616288 0.008503 0.464776 0.017724
C32   C     C_R   0.393581 0.383479 0.036387 0.028939
C33   C     C_R   0.963357 0.588743 0.458507 0.020957
C34   C     C_R   0.527045 0.466505 0.853726 0.549609
C35   C     C_R   0.617148 0.010503 0.036623 0.029403
C36   C     C_R   0.441658 0.561653 0.480289 -0.000051
C37   C     C_R   0.989003 0.606216 0.036351 0.029138
C38   C     C_R   0.010619 0.616712 0.963482 0.029123
C39   C     C_R   0.461018 0.537917 0.551746 0.011342
C40   C     C_R   0.606566 0.989389 0.963680 0.028686
C41   C     C_R   0.988354 0.604897 0.531281 0.015142
C42   C     C_R   0.382844 0.393759 0.963388 0.028575
C43   C     C_R   0.600249 0.983787 0.537516 0.010968
C44   C     C_3   0.753163 0.034300 0.430680 -0.363017
C45   C     C_R   0.936288 0.471426 0.644947 0.534653
C46   C     C_3   0.295438 0.244153 0.072575 -0.368765
C47   C     C_3   0.913732 0.678984 0.420646 -0.367694
C48   C     C_3   0.756971 0.051255 0.072981 -0.369071
C49   C     C_3   0.356594 0.632695 0.462931 -0.359827
C50   C     C_3   0.948221 0.704982 0.072227 -0.369281
C51   C     C_3   0.052040 0.756074 0.927225 -0.368676
C52   C     C_3   0.392639 0.578680 0.610278 -0.378686
C53   C     C_3   0.705452 0.948641 0.927674 -0.369403
C54   C     C_3   0.026164 0.745650 0.564591 -0.367563
C55   C     C_3   0.243122 0.295044 0.927139 -0.368697
C56   C     C_R   0.533371 0.060439 0.853749 0.546945
C57   C     C_3   0.685790 0.926802 0.574327 -0.371553
C58   C     C_R   0.466517 0.527317 0.146193 0.545945
C59   C     C_R   0.473865 0.941356 0.353467 0.534948
C60   C     C_R   0.060353 0.533495 0.146293 0.545446
Cr1   Cr    Cr6+3 0.776430 0.541680 0.750000 0.991084
Cr2   Cr    Cr6+3 0.765250 0.223570 0.750000 0.993971
Cr3   Cr    Cr6+3 0.458320 0.234750 0.750000 0.994784
Cr4   Cr    Cr6+3 0.541680 0.776430 0.250000 0.989320
Cr5   Cr    Cr6+3 0.223570 0.765250 0.250000 0.992657
Cr6   Cr    Cr6+3 0.234750 0.458320 0.250000 0.996257
H1    H     H_    0.319314 0.037176 0.561483 0.132724
H2    H     H_    0.016442 0.309282 0.434336 0.133622
H3    H     H_    0.682058 0.709620 0.063573 0.117322
H4    H     H_    0.302794 0.001449 0.433103 0.130174
H5    H     H_    0.744714 0.933118 0.414012 0.156525
H6    H     H_    0.780820 0.107559 0.385097 0.144905
H7    H     H_    0.842946 0.085109 0.468232 0.102078
H8    H     H_    0.258858 0.155170 0.035146 0.097935
H9    H     H_    0.351640 0.223746 0.116084 0.142262
H10   H     H_    0.199244 0.242620 0.092722 0.147421
H11   H     H_    0.838929 0.693693 0.454387 0.122562
H12   H     H_    0.708834 0.682797 0.936242 0.117028
H13   H     H_    0.004799 0.784474 0.408018 0.144098
H14   H     H_    0.855634 0.627108 0.371264 0.140041
H15   H     H_    0.846295 0.103582 0.035626 0.097458
H16   H     H_    0.777684 0.127423 0.116443 0.141286
H17   H     H_    0.758226 0.956707 0.093255 0.147354
H18   H     H_    0.411085 0.740549 0.483763 0.132427
H19   H     H_    0.338515 0.639558 0.405910 0.178067
H20   H     H_    0.252833 0.576035 0.489043 0.137846
H21   H     H_    0.895778 0.741738 0.034567 0.097891
H22   H     H_    0.871752 0.649720 0.115660 0.140997
H23   H     H_    0.976875 0.290667 0.562595 0.130886
H24   H     H_    0.043167 0.800579 0.092453 0.147507
H25   H     H_    0.104580 0.844977 0.964719 0.098089
H26   H     H_    0.128611 0.776510 0.883928 0.141756
H27   H     H_    0.957359 0.757668 0.906785 0.147545
H28   H     H_    0.403512 0.683370 0.600564 0.112252
H29   H     H_    0.278288 0.499282 0.613147 0.138498
H30   H     H_    0.441039 0.586686 0.662912 0.163658
H31   H     H_    0.742348 0.896194 0.965198 0.097912
H32   H     H_    0.649752 0.872544 0.884130 0.141443
H33   H     H_    0.801391 0.043197 0.907563 0.147191
H34   H     H_    0.317057 0.026889 0.935931 0.117076
H35   H     H_    0.080885 0.833288 0.526286 0.104115
H36   H     H_    0.929254 0.744986 0.583061 0.155557
H37   H     H_    0.102480 0.770872 0.608802 0.145308
H38   H     H_    0.153844 0.258171 0.964527 0.097682
H39   H     H_    0.221984 0.350402 0.883580 0.142539
H40   H     H_    0.242305 0.199495 0.907030 0.147465
H41   H     H_    0.692344 0.847590 0.540341 0.121400
H42   H     H_    0.794481 0.013555 0.586134 0.140597
H43   H     H_    0.634997 0.870920 0.624142 0.147387
H44   H     H_    0.648366 0.366431 0.525541 0.122630
H45   H     H_    0.972152 0.290442 0.936791 0.117454
H46   H     H_    0.025482 0.317220 0.064243 0.117342
H47   H     H_    0.611805 0.405465 0.401550 0.111218
H48   H     H_    0.290321 0.973586 0.063344 0.116574
O1    O     O_R   0.916700 0.566820 0.669930 -0.530852
O2    O     O_R   0.566820 0.916700 0.330070 -0.528280
O3    O     O_R   0.083300 0.650120 0.169930 -0.526795
O4    O     O_R   0.349880 0.433180 0.330070 -0.514574
O5    O     O_R   0.649840 0.534790 0.674920 -0.514119
O6    O     O_R   0.884950 0.350160 0.825080 -0.505713
O7    O     O_R   0.465210 0.115050 0.674920 -0.520824
O8    O     O_R   0.649840 0.534790 0.825080 -0.504710
O9    O     O_R   0.884950 0.350160 0.674920 -0.506232
O10   O     O_R   0.465210 0.115050 0.825080 -0.507283
O11   O     O_R   0.534790 0.649840 0.174920 -0.507831
O12   O     O_R   0.650120 0.083300 0.830070 -0.526121
O13   O     O_R   0.350160 0.884950 0.325080 -0.506607
O14   O     O_R   0.115050 0.465210 0.174920 -0.507186
O15   O     O_R   0.534790 0.649840 0.325080 -0.513311
O16   O     O_R   0.350160 0.884950 0.174920 -0.506020
O17   O     O_R   0.115050 0.465210 0.325080 -0.512248
O18   O     O_3   0.666667 0.333333 0.750000 -0.252048
O19   O     O_3   0.333333 0.666667 0.250000 -0.240418
O20   O     O_R   0.433180 0.349880 0.669930 -0.521195
O21   O     O_R   0.916700 0.566820 0.830070 -0.525094
O22   O     O_R   0.650120 0.083300 0.669930 -0.522083
O23   O     O_R   0.433180 0.349880 0.830070 -0.523918
O24   O     O_R   0.566820 0.916700 0.169930 -0.526046
O25   O     O_R   0.083300 0.650120 0.330070 -0.523878
O26   O     O_R   0.349880 0.433180 0.169930 -0.525506

loop_
_geom_bond_atom_site_label_1
_geom_bond_atom_site_label_2
_ccdc_geom_bond_type
Cr4   O2    S    
C29   C42   A    
Cr1   O5    S    
C3    O16   A    
C11   C24   A    
C54   H35   S    
C47   H13   S    
C5    H1    S    
C44   H5    S    
C46   H10   S    
Cr5   O16   S    
C2    O4    A    
C52   H30   S    
C23   O7    A    
Cr4   O24   S    
C53   H33   S    
Cr1   O21   S    
C31   C43   A    
C23   O22   A    
C55   H39   S    
Cr5   O13   S    
C14   C21   A    
C5    C30   A    
C42   C55   S    
C26   C39   A    
C6    H12   S    
C5    C17   A    
C19   C32   A    
C59   O13   A    
C7    H23   S    
C28   C41   A    
C2    O15   A    
C48   H15   S    
C52   H29   S    
C1    O5    A    
Cr2   O22   S    
C9    C13   A    
Cr2   O9    S    
Cr1   O18   S    
C51   H25   S    
C12   O6    A    
C50   H24   S    
C57   H43   S    
C48   H16   S    
C59   O2    A    
C12   O21   A    
Cr1   O1    S    
C52   H28   S    
C56   O12   A    
Cr2   O6    S    
C50   H22   S    
C7    C15   A    
C39   C52   S    
C17   H4    S    
C34   O8    A    
Cr3   O23   S    
C47   H14   S    
C35   C48   S    
C46   H9    S    
Cr3   O7    S    
C9    C26   A    
Cr3   O10   S    
C4    O17   A    
C19   C58   S    
C32   C42   A    
C15   C20   A    
C28   C45   S    
C31   C44   S    
C55   H40   S    
C23   C30   S    
Cr2   O18   S    
C54   H37   S    
C60   O14   A    
C24   C37   A    
Cr2   O12   S    
C27   C56   S    
C38   C51   S    
C53   H31   S    
C14   H48   S    
C29   C34   S    
C45   O9    A    
C7    C28   A    
Cr1   O8    S    
Cr5   O25   S    
Cr3   O20   S    
C2    C22   S    
C37   C38   A    
C49   H19   S    
C25   C38   A    
Cr6   O19   S    
C45   O1    A    
C27   C40   A    
C24   C60   S    
C6    C29   A    
C17   C18   A    
C60   O3    A    
C3    O24   A    
Cr3   O18   S    
C50   H21   S    
C51   H27   S    
C51   H26   S    
C20   C33   A    
C10   C25   A    
C57   H41   S    
C40   C53   S    
C1    C26   S    
C33   C47   S    
C30   C43   A    
C3    C21   S    
C47   H11   S    
C1    O20   A    
C56   O10   A    
C46   H8    S    
C49   H18   S    
Cr6   O17   S    
C58   O26   A    
C9    H44   S    
Cr4   O19   S    
C8    C14   A    
C11   H46   S    
C32   C46   S    
C49   H20   S    
C54   H36   S    
C36   C39   A    
C16   H3    S    
C10   H45   S    
C21   C35   A    
C53   H32   S    
C22   C36   A    
C34   O23   A    
C48   H17   S    
C12   C25   S    
C33   C41   A    
C35   C40   A    
C8    H34   S    
C4    O25   A    
C37   C50   S    
C16   C19   A    
C15   H2    S    
C55   H38   S    
Cr6   O14   S    
C13   C22   A    
C44   H6    S    
C44   H7    S    
C13   H47   S    
C41   C54   S    
C10   C11   A    
C43   C57   S    
C6    C16   A    
C4    C20   S    
C18   C59   S    
C57   H42   S    
Cr6   O26   S    
Cr4   O15   S    
C58   O11   A    
Cr4   O11   S    
Cr6   O4    S    
C8    C27   A    
Cr5   O3    S    
C18   C31   A    
Cr5   O19   S    
C36   C49   S    
