data_mof_unit_pretest_1313.cif
_audit_creation_date              2012-12-10T17:29:14-0500
_audit_creation_method            fapswitch 2.2
_symmetry_space_group_name_H-M    P1
_symmetry_Int_Tables_number       1
_space_group_crystal_system       triclinic
_cell_length_a                    12.035041
_cell_length_b                    12.884686
_cell_length_c                    13.117651
_cell_angle_alpha                 86.889226
_cell_angle_beta                  113.40404
_cell_angle_gamma                 93.728902
_cell_volume                      1861.91984634

loop_
_atom_site_label
_atom_site_type_symbol
_atom_type_description
_atom_site_fract_x
_atom_site_fract_y
_atom_site_fract_z
_atom_type_partial_charge
C1    C     C_R   0.477913 0.299501 0.500167 0.883096
C2    C     C_R   0.612926 0.514323 0.828196 -0.155887
C3    C     C_R   0.539276 0.811676 0.511541 -0.119900
C4    C     C_R   0.567437 0.502738 0.708232 0.872080
C5    C     C_R   0.465996 0.188006 0.503747 -0.074390
C6    C     C_R   0.343946 0.029085 0.478807 -0.190926
C7    C     C_R   0.353110 0.136533 0.480568 -0.187144
C8    C     C_R   0.570190 0.132748 0.528524 -0.238126
C9    C     C_R   0.562050 0.025784 0.525281 0.065832
C10   C     C_R   0.447522 0.973978 0.499555 0.130128
C11   C     C_R   0.437507 0.867660 0.493629 -0.294473
C12   C     C_R   0.564973 0.531209 0.988725 0.046476
C13   C     C_R   0.653617 0.861910 0.540142 -0.312934
C14   C     C_R   0.665537 0.969824 0.544961 0.464142
C15   C     C_R   0.997798 0.569657 0.372580 -0.407110
C16   C     C_R   0.523505 0.700452 0.503835 0.888089
C17   C     C_R   0.121610 0.571625 0.390125 0.652016
C18   C     C_R   0.164129 0.470834 0.557324 -0.125174
C19   C     C_R   0.041936 0.473292 0.545936 0.036777
C20   C     C_R   0.957899 0.524824 0.452875 -0.072023
C21   C     C_R   0.835819 0.530229 0.442597 0.575750
C22   C     C_R   0.879052 0.428192 0.609004 -0.091465
C23   C     C_R   0.539679 0.555300 0.876194 0.086022
C24   C     C_R   0.001286 0.424222 0.623974 -0.298314
C25   C     C_R   0.433602 0.504382 0.291316 0.877955
C26   C     C_R   0.277472 0.611350 0.000955 -0.210133
C27   C     C_R   0.396700 0.521495 0.172358 -0.077955
C28   C     C_R   0.725110 0.474300 0.896369 -0.220094
C29   C     C_R   0.760533 0.468133 0.010935 0.214039
C30   C     C_R   0.680070 0.493499 0.057057 -0.233750
C31   C     C_3   0.813600 0.022569 0.484399 0.073684
C32   C     C_3   0.927462 0.092855 0.510476 -0.797200
C33   C     C_3   0.769331 0.690728 0.369428 0.096775
C34   C     C_R   0.473257 0.544474 0.027733 0.083537
C35   C     C_3   0.659381 0.744851 0.286313 -0.778751
C36   C     C_3   0.131269 0.724664 0.294568 0.065871
C37   C     C_3   0.205315 0.782998 0.236863 -0.815192
C38   C     C_R   0.368251 0.598521 0.961439 0.173310
C39   C     C_R   0.355886 0.638732 0.857020 -0.254552
C40   C     C_R   0.440705 0.617519 0.814684 -0.190557
C41   C     C_R   0.481028 0.500967 0.129242 -0.212763
C42   C     C_R   0.292233 0.573486 0.106979 -0.181097
H1    H     H_    0.224762 0.587584 0.139011 0.217919
H2    H     H_    0.228891 0.429197 0.627369 0.159651
H3    H     H_    0.196914 0.652494 0.951083 0.145230
H4    H     H_    0.554287 0.451988 0.177914 0.171700
H5    H     H_    0.784110 0.445773 0.860773 0.174726
H6    H     H_    0.710746 0.485474 0.146244 0.185639
H7    H     H_    0.428295 0.651064 0.733726 0.172866
H8    H     H_    0.349503 0.828754 0.474802 0.175845
H9    H     H_    0.741557 0.054339 0.407397 0.140101
H10   H     H_    0.834043 0.943230 0.469148 0.132294
H11   H     H_    0.001974 0.062770 0.585996 0.254897
H12   H     H_    0.733633 0.818114 0.560369 0.161861
H13   H     H_    0.956112 0.095184 0.439640 0.206221
H14   H     H_    0.909355 0.173087 0.524838 0.261153
H15   H     H_    0.850244 0.723465 0.356083 0.106678
H16   H     H_    0.781377 0.709547 0.454852 0.138404
H17   H     H_    0.575889 0.715040 0.296876 0.256332
H18   H     H_    0.670990 0.829966 0.299397 0.185234
H19   H     H_    0.649107 0.730421 0.200221 0.251294
H20   H     H_    0.150181 0.763397 0.374132 0.108698
H21   H     H_    0.033920 0.731215 0.239543 0.146049
H22   H     H_    0.172096 0.759827 0.149067 0.241122
H23   H     H_    0.256077 0.989288 0.459378 0.130763
H24   H     H_    0.195919 0.868069 0.237896 0.212828
H25   H     H_    0.302572 0.765791 0.279715 0.262080
H26   H     H_    0.272252 0.179088 0.462012 0.167939
H27   H     H_    0.657696 0.173245 0.548264 0.205771
H28   H     H_    0.849093 0.390486 0.669989 0.160633
H29   H     H_    0.933382 0.601975 0.295645 0.189199
H30   H     H_    0.063506 0.383046 0.696197 0.167287
H31   H     H_    0.278902 0.683874 0.806724 0.148344
I1    I     I_    0.931820 0.412502 0.113466 -0.405716
N1    N     N_R   0.798200 0.480260 0.519790 -0.135190
N2    N     N_R   0.201820 0.519740 0.480210 -0.133179
O1    O     O_R   0.579910 0.341070 0.505280 -0.627427
O2    O     O_3   0.752677 0.582395 0.352395 -0.607941
O3    O     O_3   0.162125 0.619121 0.313003 -0.583395
O4    O     O_R   0.388440 0.353740 0.492580 -0.614933
O5    O     O_R   0.643280 0.490550 0.663120 -0.623549
O6    O     O_R   0.451810 0.503220 0.650420 -0.627850
O7    O     O_R   0.611560 0.646260 0.507420 -0.622641
O8    O     O_R   0.420090 0.658930 0.494720 -0.613162
O9    O     O_R   0.548190 0.496780 0.349580 -0.566416
O10   O     O_R   0.356720 0.509450 0.336880 -0.557466
O11   O     O_3   0.778725 0.020115 0.575405 -0.614484
Zn1   Zn    Zn3+2 0.627850 0.491540 0.508480 0.965320
Zn2   Zn    Zn3+2 0.372150 0.508460 0.491520 0.983604

loop_
_geom_bond_atom_site_label_1
_geom_bond_atom_site_label_2
_ccdc_geom_bond_type
C28   H5    S    
C33   H16   S    
C1    O1    A    
C19   C20   A    
C16   O8    A    
C31   H10   S    
C12   C23   A    
C26   C42   A    
C8    H27   S    
O6    Zn2   S    
C1    C5    S    
C30   H6    S    
C28   C29   A    
C14   O11   S    
C38   C39   A    
C33   O2    S    
C23   C40   A    
C17   O3    S    
C35   H17   S    
C18   C19   A    
O4    Zn2   S    
C26   H3    S    
C7    H26   S    
C6    H23   S    
C4    O5    A    
O1    Zn1   S    
C8    C9    A    
C21   O2    S    
C17   N2    A    
C18   N2    A    
C41   H4    S    
C36   H21   S    
C9    C10   A    
C32   H13   S    
C3    C13   A    
N2    Zn2   S    
O7    Zn1   S    
C13   C14   A    
C34   C41   A    
C22   N1    A    
C36   H20   S    
C15   C20   A    
C31   O11   S    
C39   C40   A    
C5    C7    A    
C26   C38   A    
C29   I1    S    
C36   O3    S    
C16   O7    A    
C35   H18   S    
C2    C4    S    
C9    C14   A    
C29   C30   A    
C18   H2    S    
C27   C41   A    
C31   C32   S    
C37   H24   S    
C25   O9    A    
C35   H19   S    
C22   C24   A    
O8    Zn2   S    
C12   C34   A    
C32   H11   S    
C37   H22   S    
C24   H30   S    
C13   H12   S    
O9    Zn1   S    
C15   C17   A    
C36   C37   S    
C33   H15   S    
C12   C30   A    
C34   C38   A    
C31   H9    S    
O10   Zn2   S    
C6    C10   A    
C5    C8    A    
C6    C7    A    
C25   C27   S    
C15   H29   S    
C21   N1    A    
C19   C24   A    
C11   H8    S    
C27   C42   A    
C37   H25   S    
C25   O10   A    
C33   C35   S    
C32   H14   S    
C39   H31   S    
O5    Zn1   S    
C3    C11   A    
C10   C11   A    
N1    Zn1   S    
C4    O6    A    
C20   C21   A    
C42   H1    S    
C2    C23   A    
C1    O4    A    
C2    C28   A    
C22   H28   S    
C3    C16   S    
C40   H7    S    
