data_mof_unit_pretest_943.cif
_audit_creation_date              2012-12-10T17:48:53-0500
_audit_creation_method            fapswitch 2.2
_symmetry_space_group_name_H-M    P1
_symmetry_Int_Tables_number       1
_space_group_crystal_system       triclinic
_cell_length_a                    10.718622
_cell_length_b                    14.820438
_cell_length_c                    14.945652
_cell_angle_alpha                 64.1206
_cell_angle_beta                  105.036992
_cell_angle_gamma                 102.752754
_cell_volume                      2047.09800971

loop_
_atom_site_label
_atom_site_type_symbol
_atom_type_description
_atom_site_fract_x
_atom_site_fract_y
_atom_site_fract_z
_atom_type_partial_charge
C1    C     C_R   0.476031 0.119858 0.312668 0.798950
C2    C     C_3   0.878249 0.999321 0.501528 0.161809
C3    C     C_3   0.923971 0.895529 0.576599 -0.389227
C4    C     C_3   0.965852 0.082306 0.534397 -0.368038
C5    C     C_R   0.449819 0.188571 0.205414 -0.059414
C6    C     C_R   0.524181 0.812952 0.794686 -0.054591
C7    C     C_R   0.351359 0.220915 0.031009 -0.198507
C8    C     C_R   0.384891 0.152838 0.130784 -0.200553
C9    C     C_R   0.482121 0.292536 0.179066 -0.247576
C10   C     C_R   0.443518 0.362892 0.080207 0.086403
C11   C     C_R   0.379878 0.325380 0.005250 0.166318
C12   C     C_R   0.260340 0.999898 0.500490 0.750301
C13   C     C_R   0.468978 0.469085 0.053592 0.063275
C14   C     C_R   0.442130 0.536391 0.949909 0.067294
C15   C     C_R   0.376680 0.495707 0.877696 -0.218089
C16   C     C_R   0.345379 0.392305 0.905350 -0.228619
C17   C     C_R   0.518969 0.510184 0.127271 -0.218299
C18   C     C_R   0.552830 0.613313 0.099831 -0.214673
C19   C     C_R   0.539490 0.679243 0.998306 0.163359
C20   C     C_R   0.482920 0.641892 0.922184 0.091080
C21   C     C_R   0.583597 0.782410 0.972104 -0.191642
C22   C     C_R   0.576965 0.848789 0.870871 -0.196038
C23   C     C_R   0.519396 0.880353 0.687278 0.786011
C24   C     C_R   0.474411 0.711142 0.820732 -0.254922
C25   C     C_R   0.735911 0.295342 0.648839 -0.315696
C26   C     C_R   0.691382 0.207404 0.632648 0.020823
C27   C     C_R   0.514150 0.284590 0.506514 0.314408
C28   C     C_R   0.546630 0.373120 0.528054 -0.064922
C29   C     C_R   0.666518 0.379020 0.594816 0.140988
C30   C     C_R   0.471862 0.457813 0.483203 0.068175
C31   C     C_R   0.526708 0.549001 0.496977 0.118814
C32   C     C_R   0.656290 0.555191 0.549094 -0.188892
C33   C     C_R   0.721084 0.470404 0.602362 -0.203918
C34   C     C_R   0.739907 0.999394 0.500982 0.743879
C35   C     C_R   0.342878 0.454468 0.428897 -0.284308
C36   C     C_R   0.279740 0.540518 0.375618 -0.134059
C37   C     C_R   0.333231 0.630441 0.387237 0.076400
C38   C     C_R   0.451344 0.632254 0.456063 -0.084557
C39   C     C_R   0.265065 0.715608 0.337496 0.295391
C40   C     C_R   0.311498 0.799219 0.362987 -0.082838
C41   C     C_R   0.482235 0.712739 0.488493 0.270310
C42   C     C_3   0.039512 0.019586 0.394186 -0.385163
C43   C     C_3   0.895733 0.020425 0.394081 -0.372291
C44   C     C_3   0.068565 0.896268 0.577399 -0.368951
C45   C     C_3   0.108270 0.083534 0.532806 -0.372623
C46   C     C_3   0.122317 0.999821 0.501268 0.158058
Cu1   Cu    Cu3+1 0.465900 0.918260 0.475680 0.918641
Cu2   Cu    Cu3+1 0.534100 0.081740 0.524320 0.941406
H1    H     H_    0.046297 0.959919 0.369991 0.167695
H2    H     H_    0.956454 0.068102 0.612081 0.162216
H3    H     H_    0.126129 0.881318 0.654980 0.153835
H4    H     H_    0.910984 0.878433 0.654155 0.151425
H5    H     H_    0.295244 0.364491 0.847598 0.141490
H6    H     H_    0.431565 0.687560 0.760025 0.141031
H7    H     H_    0.614515 0.927669 0.852376 0.152475
H8    H     H_    0.592534 0.641393 0.158715 0.147619
H9    H     H_    0.301739 0.191928 0.974079 0.131642
H10   H     H_    0.358625 0.072622 0.149624 0.152990
H11   H     H_    0.539200 0.316707 0.237192 0.158965
H12   H     H_    0.077241 0.093368 0.338325 0.152584
H13   H     H_    0.345506 0.541469 0.798879 0.139786
H14   H     H_    0.531412 0.464864 0.207432 0.141501
H15   H     H_    0.626017 0.811334 0.030075 0.133972
H16   H     H_    0.817553 0.477614 0.646591 0.141835
H17   H     H_    0.261500 0.865844 0.325456 0.130500
H18   H     H_    0.183813 0.534075 0.330496 0.193567
H19   H     H_    0.825879 0.298777 0.701704 0.142079
H20   H     H_    0.745647 0.143137 0.673178 0.126381
H21   H     H_    0.864451 0.095137 0.339254 0.152972
H22   H     H_    0.710798 0.625802 0.548832 0.164663
H23   H     H_    0.285225 0.386029 0.428127 0.141722
H24   H     H_    0.833629 0.962162 0.368399 0.172671
H25   H     H_    0.077718 0.834258 0.557375 0.174334
H26   H     H_    0.864298 0.834365 0.554341 0.165914
H27   H     H_    0.168119 0.072408 0.609030 0.170466
H28   H     H_    0.142879 0.158994 0.478171 0.157051
H29   H     H_    0.935023 0.158021 0.482486 0.174755
N1    N     N_R   0.585360 0.204570 0.560800 -0.170331
N2    N     N_R   0.414550 0.795430 0.439160 -0.201597
O1    O     O_R   0.455060 0.022100 0.338110 -0.585377
O2    O     O_R   0.512640 0.160150 0.379180 -0.547266
O3    O     O_R   0.288900 0.930980 0.479450 -0.587052
O4    O     O_R   0.346480 0.069030 0.520520 -0.578577
O5    O     O_R   0.487360 0.839850 0.620820 -0.594696
O6    O     O_R   0.544940 0.977900 0.661890 -0.584889
O7    O     O_R   0.653520 0.930970 0.479480 -0.595177
O8    O     O_R   0.711100 0.069020 0.520550 -0.589025
N3    N     N_3   0.565737 0.696904 0.584385 -0.614991
H30   H     H_    0.508912 0.676470 0.638756 0.234457
H31   H     H_    0.633692 0.759516 0.581597 0.255137
N4    N     N_3   0.423018 0.282420 0.418522 -0.545161
H32   H     H_    0.329991 0.254379 0.434799 0.200003
H33   H     H_    0.427786 0.352269 0.356895 0.194847
O9    O     O_3   0.153637 0.715139 0.265938 -0.745752
H34   H     H_    0.118310 0.780373 0.239242 0.313625

loop_
_geom_bond_atom_site_label_1
_geom_bond_atom_site_label_2
_ccdc_geom_bond_type
C43   H24   S    
C19   C20   A    
C25   H19   S    
Cu1   N2    S    
C27   N1    A    
C7    C8    A    
C45   C46   S    
C7    C11   A    
C26   N1    A    
C30   C35   A    
C45   H28   S    
C1    C5    S    
C36   C37   A    
C19   C21   A    
C42   C46   S    
C30   C31   A    
C36   H18   S    
C24   H6    S    
C15   C16   A    
C6    C22   A    
C29   C33   A    
Cu2   O2    S    
C18   C19   A    
C34   O7    A    
Cu1   O3    S    
Cu2   N1    S    
C3    H26   S    
C20   C24   A    
C16   H5    S    
C8    H10   S    
C31   C32   A    
C27   N4    S    
C9    C10   A    
C18   H8    S    
C2    C34   S    
C35   H23   S    
C43   H21   S    
C13   C14   A    
O9    H34   S    
Cu1   O1    S    
C44   C46   S    
C4    C45   S    
C25   C29   A    
C3    C44   S    
Cu2   O8    S    
C23   O5    A    
Cu1   O7    S    
C14   C20   A    
C38   C41   A    
C12   C46   S    
C42   H12   S    
C39   C40   A    
C32   H22   S    
C25   C26   A    
C12   O4    A    
C4    H2    S    
C9    H11   S    
C35   C36   A    
C2    C4    S    
C39   O9    S    
C5    C9    A    
C37   C38   A    
C17   H14   S    
N4    H33   S    
C11   C16   A    
Cu1   Cu2   S    
C2    C43   S    
C6    C24   A    
C17   C18   A    
C15   H13   S    
C40   N2    A    
C12   O3    A    
Cu1   O5    S    
C44   H3    S    
N3    H31   S    
C40   H17   S    
C42   C43   S    
N4    H32   S    
C41   N3    S    
C28   C29   A    
C14   C15   A    
C10   C13   A    
C41   N2    A    
C5    C8    A    
C3    H4    S    
Cu2   O4    S    
C22   H7    S    
C31   C38   A    
C13   C17   A    
C45   H27   S    
C26   H20   S    
C32   C33   A    
C28   C30   A    
C2    C3    S    
C4    H29   S    
C37   C39   A    
C33   H16   S    
C6    C23   S    
C34   O8    A    
C44   H25   S    
C21   H15   S    
C10   C11   A    
C42   H1    S    
N3    H30   S    
C23   O6    A    
C27   C28   A    
C1    O1    A    
Cu2   O6    S    
C21   C22   A    
C1    O2    A    
C7    H9    S    
