data_mof_unit_pretest_255.cif
_audit_creation_date              2012-10-26T20:08:11-0400
_audit_creation_method            fapswitch 2.2
_symmetry_space_group_name_H-M    P1
_symmetry_Int_Tables_number       1
_space_group_crystal_system       triclinic
_cell_length_a                    10.891313
_cell_length_b                    10.803755
_cell_length_c                    9.540708
_cell_angle_alpha                 89.443188
_cell_angle_beta                  91.368792
_cell_angle_gamma                 89.726857
_cell_volume                      1122.23985213

loop_
_atom_site_label
_atom_site_type_symbol
_atom_type_description
_atom_site_fract_x
_atom_site_fract_y
_atom_site_fract_z
_atom_type_partial_charge
C1    C     C_R   0.502320 0.262369 0.500804 0.546756
C2    C     C_R   0.577685 0.060168 0.598306 -0.023544
C3    C     C_R   0.497094 0.871564 0.497621 0.020488
C4    C     C_R   0.502919 0.128435 0.502375 0.020485
C5    C     C_R   0.469070 0.396168 0.074337 0.012135
C6    C     C_R   0.530923 0.603834 0.925663 0.012113
C7    C     C_R   0.469190 0.396195 0.926018 0.005572
C8    C     C_R   0.530802 0.603807 0.073982 0.005556
C9    C     C_R   0.262152 0.499854 0.497917 0.542879
C10   C     C_R   0.737848 0.500143 0.502083 0.542877
C11   C     C_R   0.155230 0.696222 0.046092 -0.128146
C12   C     C_R   0.497685 0.737631 0.499195 0.546757
C13   C     C_R   0.844831 0.303726 0.953908 -0.128164
C14   C     C_R   0.113258 0.673051 0.181106 -0.101428
C15   C     C_R   0.886806 0.326913 0.818901 -0.101474
C16   C     C_R   0.108350 0.551332 0.233083 0.064326
C17   C     C_R   0.891654 0.448633 0.766913 0.064317
C18   C     C_R   0.140593 0.452684 0.146581 -0.054794
C19   C     C_R   0.859356 0.547267 0.853408 -0.054759
C20   C     C_R   0.180539 0.476070 0.010892 -0.097021
C21   C     C_R   0.819412 0.523866 0.989092 -0.097009
C22   C     C_R   0.189289 0.597814 0.961191 -0.096194
C23   C     C_R   0.871809 0.501510 0.505626 -0.009444
C24   C     C_R   0.810711 0.402118 0.038796 -0.096200
C25   C     C_R   0.930142 0.528795 0.380215 -0.158623
C26   C     C_R   0.069859 0.471191 0.619782 -0.158625
C27   C     C_3   0.333849 0.878350 0.300778 -0.383514
C28   C     C_3   0.666152 0.121651 0.699230 -0.383511
C29   C     C_R   0.128191 0.498482 0.494374 -0.009444
C30   C     C_R   0.943076 0.473827 0.627905 -0.035590
C31   C     C_R   0.056925 0.526157 0.372093 -0.035595
C32   C     C_R   0.426773 0.068355 0.404913 -0.132188
C33   C     C_R   0.573243 0.931644 0.595078 -0.132190
C34   C     C_R   0.422327 0.939830 0.401689 -0.023534
Cu1   Cu    Cu3+1 0.500000 0.500020 0.640660 0.924303
Cu2   Cu    Cu3+1 0.500000 0.499980 0.359340 0.924311
H1    H     H_    0.221549 0.615991 0.856661 0.135019
H2    H     H_    0.866290 0.641943 0.816164 0.092707
H3    H     H_    0.204979 0.399593 0.944607 0.090882
H4    H     H_    0.794937 0.600332 0.055370 0.090891
H5    H     H_    0.876688 0.552630 0.286747 0.130623
H6    H     H_    0.123313 0.447347 0.713245 0.130612
H7    H     H_    0.369125 0.122314 0.332684 0.110637
H8    H     H_    0.630892 0.877685 0.667306 0.110631
H9    H     H_    0.442343 0.312956 0.129063 0.106472
H10   H     H_    0.557646 0.687047 0.870937 0.106472
H11   H     H_    0.275878 0.812261 0.359073 0.140968
H12   H     H_    0.778444 0.383931 0.143320 0.135006
H13   H     H_    0.271951 0.946520 0.246724 0.101538
H14   H     H_    0.384840 0.828565 0.219155 0.153114
H15   H     H_    0.724140 0.187729 0.640941 0.140975
H16   H     H_    0.615146 0.171448 0.780831 0.153133
H17   H     H_    0.728030 0.053478 0.753308 0.101545
H18   H     H_    0.442563 0.313126 0.871312 0.104085
H19   H     H_    0.557425 0.686878 0.128687 0.104090
H20   H     H_    0.160334 0.790346 0.006885 0.097638
H21   H     H_    0.839771 0.209600 0.993115 0.097644
H22   H     H_    0.083837 0.749588 0.244809 0.092330
H23   H     H_    0.916274 0.250386 0.755212 0.092343
H24   H     H_    0.133612 0.358009 0.183824 0.092707
N1    N     N_R   0.500030 0.500030 0.852070 -0.220109
N2    N     N_R   0.499970 0.499970 0.147930 -0.220108
O1    O     O_R   0.499990 0.319660 0.618740 -0.510398
O2    O     O_R   0.500010 0.680340 0.381260 -0.510396
O3    O     O_R   0.499990 0.319630 0.381170 -0.518356
O4    O     O_R   0.500010 0.680370 0.618830 -0.518356
O5    O     O_R   0.319650 0.500020 0.618780 -0.516043
O6    O     O_R   0.680350 0.499980 0.381220 -0.516038
O7    O     O_R   0.319640 0.500000 0.381210 -0.487066
O8    O     O_R   0.680360 0.500000 0.618790 -0.487076

loop_
_geom_bond_atom_site_label_1
_geom_bond_atom_site_label_2
_ccdc_geom_bond_type
C25   C31   A    
C2    C4    A    
C28   H17   S    
C9    O5    A    
C12   O4    A    
C19   C21   A    
C8    H19   S    
C19   H2    S    
C9    C29   S    
C10   C23   S    
C2    C28   S    
C11   C22   A    
C18   C20   A    
Cu1   Cu2   S    
C7    H18   S    
C27   H14   S    
Cu1   O5    S    
C1    C4    S    
C9    O7    A    
Cu2   O6    S    
C6    N1    A    
C29   C31   A    
C16   C18   A    
Cu2   O2    S    
C16   C31   S    
C17   C30   S    
C28   H16   S    
C27   C34   S    
C4    C32   A    
C21   H4    S    
C15   H23   S    
C12   O2    A    
Cu1   N1    S    
Cu2   N2    S    
C6    C8    A    
C2    C33   A    
C18   H24   S    
C13   C24   A    
C11   C14   A    
C32   H7    S    
C20   C22   A    
C5    N2    A    
C26   C30   A    
C10   O6    A    
C23   C25   A    
C13   C15   A    
C14   H22   S    
C28   H15   S    
C14   C16   A    
C13   H21   S    
C3    C33   A    
C27   H11   S    
C24   H12   S    
C23   C30   A    
C1    O1    A    
Cu2   O7    S    
C26   H6    S    
C26   C29   A    
C15   C17   A    
C21   C24   A    
C25   H5    S    
C5    C7    A    
C20   H3    S    
Cu2   O3    S    
C7    N1    A    
Cu1   O1    S    
C3    C12   S    
C6    H10   S    
C3    C34   A    
C17   C19   A    
C32   C34   A    
Cu1   O4    S    
C22   H1    S    
C5    H9    S    
C1    O3    A    
C11   H20   S    
C27   H13   S    
Cu1   O8    S    
C8    N2    A    
C33   H8    S    
C10   O8    A    
