data_mof_unit_pretest_1397.cif
_audit_creation_date              2012-12-10T17:03:39-0500
_audit_creation_method            fapswitch 2.2
_symmetry_space_group_name_H-M    P1
_symmetry_Int_Tables_number       1
_space_group_crystal_system       triclinic
_cell_length_a                    10.03549
_cell_length_b                    10.626566
_cell_length_c                    13.083457
_cell_angle_alpha                 90.496226
_cell_angle_beta                  69.505528
_cell_angle_gamma                 91.507265
_cell_volume                      1306.49261794

loop_
_atom_site_label
_atom_site_type_symbol
_atom_type_description
_atom_site_fract_x
_atom_site_fract_y
_atom_site_fract_z
_atom_type_partial_charge
C1    C     C_R   0.499875 0.737523 0.505392 0.769313
C2    C     C_R   0.430730 0.522183 0.985772 0.038519
C3    C     C_R   0.457333 0.559504 0.877458 0.084151
C4    C     C_R   0.540144 0.542042 0.029463 0.122454
C5    C     C_R   0.663223 0.615238 0.971854 0.110984
C6    C     C_R   0.676466 0.667787 0.871642 -0.230464
C7    C     C_R   0.574608 0.640829 0.824970 -0.186007
C8    C     C_R   0.532066 0.487943 0.127653 -0.347681
C9    C     C_R   0.752042 0.594725 0.122049 0.516088
C10   C     C_R   0.367420 0.512655 0.823445 -0.191114
C11   C     C_2   0.621553 0.067380 0.440395 -0.130704
C12   C     C_R   0.420489 0.505238 0.704518 0.882672
C13   C     C_2   0.502005 0.131429 0.471645 -0.263190
C14   C     C_2   0.608310 0.931867 0.437486 -0.248134
C15   C     C_2   0.504763 0.871302 0.517312 0.354007
C16   C     C_2   0.108115 0.448042 0.423786 -0.125972
C17   C     C_2   0.960145 0.455780 0.420198 -0.119771
C18   C     C_R   0.501048 0.262641 0.492920 0.920716
C19   C     C_R   0.579679 0.501701 0.295308 0.892728
C20   C     C_R   0.770728 0.636379 0.015802 -0.340630
C21   C     C_R   0.629219 0.521433 0.177773 -0.171069
C22   C     C_R   0.235263 0.456549 0.883143 -0.329510
C23   C     C_R   0.198241 0.435242 0.995249 0.545351
C24   C     C_R   0.296115 0.466845 0.045739 -0.301596
H1    H     H_    0.400118 0.085088 0.481588 0.163858
H2    H     H_    0.681583 0.882125 0.368418 0.107438
H3    H     H_    0.186068 0.398613 0.357655 0.155221
H4    H     H_    0.077176 0.551844 0.557919 0.160908
H5    H     H_    0.942897 0.420599 0.347613 0.186185
H6    H     H_    0.866628 0.525318 0.570037 0.167386
H7    H     H_    0.766532 0.728323 0.828574 0.156002
H8    H     H_    0.865944 0.688892 0.968677 0.151046
H9    H     H_    0.446352 0.422874 0.169857 0.166692
H10   H     H_    0.162703 0.426415 0.842442 0.168474
H11   H     H_    0.262431 0.450298 0.132487 0.151909
H12   H     H_    0.588204 0.684750 0.747509 0.162847
H13   H     H_    0.725968 0.112837 0.419201 0.161225
N1    N     N_2   0.148270 0.498670 0.498870 -0.186265
N2    N     N_2   0.852610 0.498640 0.498840 -0.189221
O1    O     O_R   0.386950 0.680940 0.500020 -0.619659
O2    O     O_R   0.613110 0.680900 0.499980 -0.615894
O3    O     O_R   0.330780 0.500000 0.653640 -0.612465
O4    O     O_R   0.556930 0.499960 0.653610 -0.603692
O5    O     O_R   0.386890 0.319100 0.500020 -0.615925
O6    O     O_R   0.613050 0.319060 0.499980 -0.598438
O7    O     O_R   0.443070 0.500040 0.346390 -0.614698
O8    O     O_R   0.669220 0.500000 0.346360 -0.562318
Zn1   Zn    Zn3+2 0.349000 0.500030 0.500020 0.927609
Zn2   Zn    Zn3+2 0.651000 0.499970 0.499980 0.961005
O9    O     O_3   0.853140 0.617576 0.171153 -0.606036
C25   C     C_3   0.908810 0.742826 0.156122 0.077322
H14   H     H_    0.905054 0.778955 0.236986 0.155947
H15   H     H_    0.845401 0.809517 0.127328 0.110620
C26   C     C_3   0.064867 0.743980 0.080183 -0.294785
H16   H     H_    0.128981 0.694515 0.120808 0.235151
H17   H     H_    0.075728 0.693278 0.003261 0.227276
C27   C     C_3   0.124265 0.877973 0.052361 -1.019127
H18   H     H_    0.065556 0.927494 0.007441 0.263080
H19   H     H_    0.238231 0.875075 0.999703 0.273343
H20   H     H_    0.115322 0.930994 0.127930 0.267224
O10   O     O_3   0.434306 0.933983 0.615648 -0.650932
C28   C     C_3   0.312148 0.869602 0.686492 0.083050
H21   H     H_    0.289330 0.909975 0.769339 0.167472
H22   H     H_    0.328711 0.767950 0.695475 0.126352
C29   C     C_3   0.183258 0.892243 0.652646 -0.336975
H23   H     H_    0.163716 0.994911 0.655048 0.219764
H24   H     H_    0.204262 0.858929 0.567916 0.227950
C30   C     C_3   0.050455 0.824227 0.728615 -0.984504
H25   H     H_    0.066555 0.721027 0.726105 0.267716
H26   H     H_    0.959652 0.843272 0.701647 0.262676
H27   H     H_    0.024648 0.858357 0.813727 0.261942
O11   O     O_3   0.064503 0.389335 0.058578 -0.626299
C31   C     C_3   0.037534 0.267302 0.024578 0.060633
H28   H     H_    0.021142 0.201709 0.093871 0.157411
H29   H     H_    0.126167 0.228888 0.953936 0.125468
C32   C     C_3   0.901315 0.267910 0.997250 -0.304995
H30   H     H_    0.811691 0.299726 0.069721 0.234112
H31   H     H_    0.915023 0.335000 0.929425 0.220303
C33   C     C_3   0.864579 0.137191 0.963943 -0.983950
H32   H     H_    0.952054 0.103837 0.890780 0.268093
H33   H     H_    0.765861 0.141093 0.944109 0.275647
H34   H     H_    0.846555 0.069290 0.031845 0.258678

loop_
_geom_bond_atom_site_label_1
_geom_bond_atom_site_label_2
_ccdc_geom_bond_type
C17   H5    S    
C7    H12   S    
C32   C33   S    
C4    C8    A    
C19   O7    A    
O8    Zn2   S    
C5    C20   A    
C10   C22   A    
C13   C18   S    
C19   C21   S    
C32   H31   S    
C12   O4    A    
C3    C7    A    
C17   N2    D    
C5    C6    A    
C11   C14   S    
C19   O8    A    
C27   H19   S    
C31   H28   S    
C11   H13   S    
C28   H22   S    
C1    O1    A    
C30   H25   S    
C16   C17   S    
C29   H24   S    
C12   O3    A    
C23   C24   A    
C1    C15   S    
H4    N1    S    
N1    Zn1   S    
C16   H3    S    
C6    H7    S    
C31   H29   S    
C13   H1    S    
O2    Zn2   S    
O9    C25   S    
O7    Zn1   S    
C22   H10   S    
C26   H17   S    
C24   H11   S    
C25   H14   S    
C32   H30   S    
C33   H33   S    
O11   C31   S    
C27   H20   S    
C25   H15   S    
C2    C4    A    
C28   H21   S    
C18   O5    A    
C9    C20   A    
O6    Zn2   S    
C29   C30   S    
C8    C21   A    
C15   O10   S    
O3    Zn1   S    
C14   H2    S    
C10   C12   S    
C1    O2    A    
N2    Zn2   S    
C2    C24   A    
C31   C32   S    
C18   O6    A    
C20   H8    S    
O1    Zn1   S    
C26   H16   S    
C28   C29   S    
C22   C23   A    
C23   O11   S    
O4    Zn2   S    
C9    O9    S    
C4    C5    A    
C33   H34   S    
C6    C7    A    
C25   C26   S    
C2    C3    A    
C3    C10   A    
C11   C13   D    
C9    C21   A    
C27   H18   S    
C30   H27   S    
H6    N2    S    
C8    H9    S    
O10   C28   S    
C33   H32   S    
C30   H26   S    
C29   H23   S    
C14   C15   D    
O5    Zn1   S    
C16   N1    D    
C26   C27   S    
