data_mof_unit_pretest_1812.cif
_audit_creation_date              2012-10-26T17:45:11-0400
_audit_creation_method            fapswitch 2.2
_symmetry_space_group_name_H-M    P1
_symmetry_Int_Tables_number       1
_space_group_crystal_system       triclinic
_cell_length_a                    32.255398
_cell_length_b                    32.256275
_cell_length_c                    23.691686
_cell_angle_alpha                 89.974902
_cell_angle_beta                  89.987058
_cell_angle_gamma                 89.936831
_cell_volume                      24649.7358365

loop_
_atom_site_label
_atom_site_type_symbol
_atom_type_description
_atom_site_fract_x
_atom_site_fract_y
_atom_site_fract_z
_atom_type_partial_charge
C1    C     C_R   0.000029 0.420443 0.500035 0.554174
C2    C     C_1   0.161506 0.000033 0.499972 0.094501
C3    C     C_R   0.728414 0.981677 0.454757 -0.013533
C4    C     C_R   0.018710 0.271574 0.544952 -0.013525
C5    C     C_R   0.728363 0.014939 0.547728 -0.013088
C6    C     C_R   0.983735 0.728416 0.546839 -0.013987
C7    C     C_R   0.271607 0.984095 0.546886 -0.013901
C8    C     C_R   0.485071 0.771646 0.952253 -0.013040
C9    C     C_R   0.771605 0.518735 0.955026 -0.013510
C10   C     C_R   0.516130 0.228403 0.953271 -0.013986
C11   C     C_R   0.228415 0.481650 0.954771 -0.013521
C12   C     C_R   0.518320 0.771576 0.045242 -0.013561
C13   C     C_1   0.999965 0.838494 0.500052 0.094502
C14   C     C_R   0.228362 0.514963 0.047709 -0.013086
C15   C     C_R   0.483741 0.228412 0.046819 -0.014135
C16   C     C_R   0.771616 0.484578 0.047434 -0.012999
C17   C     C_R   0.001907 0.293598 0.498580 -0.094044
C18   C     C_R   0.293589 0.000076 0.499968 -0.093845
C19   C     C_R   0.999917 0.706411 0.500061 -0.093813
C20   C     C_R   0.706402 0.998070 0.501399 -0.094101
C21   C     C_R   0.501932 0.793598 0.998594 -0.094077
C22   C     C_R   0.793597 0.501897 0.001397 -0.093974
C23   C     C_R   0.499928 0.206410 0.000041 -0.093949
C24   C     C_1   0.838477 0.999804 0.500198 0.093893
C25   C     C_R   0.206402 0.498069 0.001396 -0.094061
C26   C     C_R   0.037270 0.293602 0.593768 0.088138
C27   C     C_R   0.071359 0.320125 0.586064 -0.078284
C28   C     C_R   0.088492 0.341155 0.632071 -0.105477
C29   C     C_R   0.071889 0.335743 0.686057 -0.099044
C30   C     C_R   0.038156 0.309233 0.694135 -0.105385
C31   C     C_R   0.020892 0.288175 0.648229 -0.036064
C32   C     C_R   0.293657 0.966912 0.596639 0.088212
C33   C     C_R   0.320036 0.932460 0.590839 -0.078142
C34   C     C_R   0.341070 0.916624 0.637746 -0.107079
C35   C     C_1   0.500198 0.661522 0.999783 0.094297
C36   C     C_R   0.335787 0.934889 0.690742 -0.100123
C37   C     C_R   0.309394 0.968982 0.696934 -0.105019
C38   C     C_R   0.288333 0.984951 0.650118 -0.036409
C39   C     C_R   0.966321 0.706393 0.596451 0.088116
C40   C     C_R   0.931898 0.680088 0.590360 -0.077652
C41   C     C_R   0.915833 0.659096 0.637143 -0.105712
C42   C     C_R   0.933838 0.664346 0.690304 -0.099044
C43   C     C_R   0.967903 0.690661 0.696782 -0.104999
C44   C     C_R   0.984102 0.711679 0.650091 -0.036424
C45   C     C_R   0.706249 0.032208 0.597406 0.090177
C46   C     C_1   0.661522 0.500187 0.000155 0.094798
C47   C     C_R   0.679478 0.007131 0.629436 -0.081094
C48   C     C_R   0.658244 0.023675 0.675716 -0.107235
C49   C     C_R   0.663732 0.065234 0.690555 -0.098281
C50   C     C_R   0.690517 0.090301 0.659181 -0.105865
C51   C     C_R   0.711754 0.073904 0.612794 -0.034789
C52   C     C_R   0.966905 0.293773 0.403142 0.090226
C53   C     C_R   0.991687 0.320556 0.370705 -0.081164
C54   C     C_R   0.974719 0.341808 0.324715 -0.106859
C55   C     C_R   0.933025 0.336326 0.310572 -0.097988
C56   C     C_R   0.908247 0.309529 0.342350 -0.106019
C57   C     C_1   0.499970 0.338494 0.000048 0.093913
C58   C     C_R   0.925069 0.288274 0.388450 -0.034536
C59   C     C_R   0.706373 0.963538 0.405657 0.088173
C60   C     C_R   0.679853 0.929384 0.412832 -0.078208
C61   C     C_R   0.658811 0.912648 0.366564 -0.105457
C62   C     C_R   0.664207 0.929715 0.312840 -0.099037
C63   C     C_R   0.690713 0.963515 0.305286 -0.105485
C64   C     C_R   0.711784 0.980384 0.351455 -0.036199
C65   C     C_R   0.033517 0.706357 0.403680 0.088227
C66   C     C_R   0.067944 0.679980 0.409773 -0.078141
C67   C     C_R   0.083987 0.658952 0.363003 -0.106978
C68   C     C_1   0.338477 0.499804 0.000197 0.093936
C69   C     C_R   0.065956 0.664240 0.309852 -0.100154
C70   C     C_R   0.031889 0.690631 0.303370 -0.105153
C71   C     C_R   0.015712 0.711686 0.350049 -0.036356
C72   C     C_R   0.293599 0.033218 0.403281 0.088199
C73   C     C_R   0.319911 0.067663 0.409062 -0.077753
C74   C     C_R   0.340915 0.083492 0.362141 -0.105895
C75   C     C_R   0.335669 0.065226 0.309149 -0.099094
C76   C     C_R   0.309343 0.031139 0.302976 -0.105008
C77   C     C_R   0.288313 0.015177 0.349806 -0.036411
C78   C     C_R   0.536452 0.793607 0.094353 0.088170
C79   C     C_1   0.000764 0.338549 0.499377 -0.051176
C80   C     C_R   0.570607 0.820128 0.087199 -0.078063
C81   C     C_R   0.587338 0.841160 0.133478 -0.105418
C82   C     C_R   0.570265 0.835752 0.187192 -0.098923
C83   C     C_R   0.536463 0.809244 0.194727 -0.105134
C84   C     C_R   0.519600 0.788184 0.148546 -0.035947
C85   C     C_R   0.793709 0.466811 0.096809 0.090103
C86   C     C_R   0.820471 0.491562 0.129275 -0.081129
C87   C     C_R   0.841692 0.474552 0.175259 -0.106659
C88   C     C_R   0.836199 0.432846 0.189367 -0.098018
C89   C     C_R   0.809422 0.408099 0.157560 -0.105887
C90   C     C_1   0.338551 0.000077 0.499969 -0.051763
C91   C     C_R   0.788199 0.424964 0.111466 -0.034225
C92   C     C_R   0.466333 0.206383 0.096431 0.088253
C93   C     C_R   0.431916 0.180071 0.090340 -0.077667
C94   C     C_R   0.415869 0.159057 0.137117 -0.105824
C95   C     C_R   0.433886 0.164295 0.190273 -0.099046
C96   C     C_R   0.467941 0.190621 0.196753 -0.105125
C97   C     C_R   0.484122 0.211661 0.150068 -0.036680
C98   C     C_R   0.206248 0.532258 0.097370 0.090150
C99   C     C_R   0.179477 0.507197 0.129424 -0.081086
C100  C     C_R   0.158243 0.523764 0.175688 -0.107127
C101  C     C_1   0.999917 0.661449 0.500059 -0.051708
C102  C     C_R   0.163730 0.565330 0.190488 -0.098203
C103  C     C_R   0.190515 0.590382 0.159090 -0.105770
C104  C     C_R   0.211752 0.573962 0.112718 -0.034712
C105  C     C_R   0.467809 0.793769 0.902567 0.090183
C106  C     C_R   0.492892 0.820548 0.870555 -0.081044
C107  C     C_R   0.476355 0.841792 0.824269 -0.107215
C108  C     C_R   0.434797 0.836307 0.809405 -0.098212
C109  C     C_R   0.409724 0.809516 0.840760 -0.105744
C110  C     C_R   0.426114 0.788269 0.887154 -0.034734
C111  C     C_R   0.206375 0.463483 0.905690 0.088136
C112  C     C_R   0.420445 0.000020 0.499995 0.555457
C113  C     C_1   0.661450 0.999226 0.500621 -0.051319
C114  C     C_R   0.179857 0.429332 0.912899 -0.078319
C115  C     C_R   0.158821 0.412565 0.866647 -0.105603
C116  C     C_R   0.164221 0.429598 0.812905 -0.099123
C117  C     C_R   0.190724 0.463396 0.805315 -0.105420
C118  C     C_R   0.211789 0.480295 0.851469 -0.036090
C119  C     C_R   0.533550 0.206364 0.903671 0.088223
C120  C     C_R   0.567973 0.179982 0.909782 -0.078538
C121  C     C_R   0.584034 0.158961 0.863016 -0.107208
C122  C     C_R   0.566025 0.164260 0.809854 -0.100151
C123  C     C_R   0.531964 0.190656 0.803354 -0.105130
C124  C     C_1   0.500775 0.838549 0.999375 -0.051283
C125  C     C_R   0.515769 0.211703 0.850028 -0.036384
C126  C     C_R   0.793668 0.537326 0.906225 0.088155
C127  C     C_R   0.820190 0.571405 0.913950 -0.078115
C128  C     C_R   0.841265 0.588557 0.867960 -0.105260
C129  C     C_R   0.835897 0.571983 0.813968 -0.098804
C130  C     C_R   0.809386 0.538262 0.805868 -0.105079
C131  C     C_R   0.788283 0.520979 0.851758 -0.035772
C132  C     C_1   0.838549 0.500758 0.000615 -0.051110
C133  C     C_1   0.499925 0.161449 0.000036 -0.051860
C134  C     C_1   0.161450 0.499225 0.000617 -0.051234
C135  C     C_1   0.000198 0.375945 0.499794 -0.015712
C136  C     C_1   0.375950 0.000061 0.499979 -0.016255
C137  C     C_1   0.999936 0.624050 0.500039 -0.016181
C138  C     C_1   0.624054 0.999799 0.500209 -0.015856
C139  C     C_1   0.500201 0.875945 0.999789 -0.015835
C140  C     C_R   0.999980 0.579555 0.500009 0.555307
C141  C     C_1   0.875946 0.500196 0.000205 -0.015698
C142  C     C_1   0.499939 0.124050 0.000022 -0.016369
C143  C     C_1   0.124054 0.499798 0.000206 -0.015777
C144  C     C_1   0.000050 0.124088 0.499922 0.041001
C145  C     C_1   0.124075 0.000017 0.499980 0.042161
C146  C     C_1   0.999982 0.875924 0.500037 0.042143
C147  C     C_1   0.875912 0.999946 0.500063 0.041065
C148  C     C_1   0.500055 0.624088 0.999921 0.041611
C149  C     C_1   0.624087 0.500050 0.000028 0.042190
C150  C     C_1   0.499984 0.375924 0.000036 0.041496
C151  C     C_R   0.579556 0.999971 0.499969 0.554283
C152  C     C_1   0.375912 0.499946 0.000063 0.041104
C153  C     C_R   0.000004 0.499979 0.391694 0.552383
C154  C     C_R   0.499996 0.000008 0.391695 0.553485
C155  C     C_R   0.999996 0.500004 0.608305 0.553385
C156  C     C_R   0.500021 0.999990 0.608305 0.552463
C157  C     C_R   0.500006 0.999978 0.891694 0.552512
C158  C     C_R   1.000000 0.500008 0.891695 0.553452
C159  C     C_R   0.499996 0.000004 0.108305 0.553503
C160  C     C_R   0.000002 0.499991 0.108305 0.551079
C161  C     C_R   0.079514 0.000001 0.499994 0.546898
C162  C     C_R   0.500029 0.920443 0.000032 0.554334
C163  C     C_R   0.999999 0.920486 0.500011 0.546898
C164  C     C_R   0.920482 0.000023 0.500010 0.545943
C165  C     C_R   0.999977 0.079518 0.499985 0.545937
C166  C     C_R   0.579518 0.499978 0.999999 0.546762
C167  C     C_R   0.499999 0.420486 0.000011 0.546371
C168  C     C_R   0.420482 0.500023 0.000010 0.545868
C169  C     C_R   0.499978 0.579518 0.999985 0.546269
C170  C     C_1   0.000013 0.499949 0.330910 -0.019807
C171  C     C_1   0.499989 0.000024 0.330912 -0.017090
C172  C     C_1   0.999989 0.500016 0.669088 -0.016818
C173  C     C_R   0.920444 0.500029 0.999968 0.554265
C174  C     C_1   0.500047 0.999964 0.669089 -0.019642
C175  C     C_1   0.500025 0.999946 0.830911 -0.019665
C176  C     C_1   0.999995 0.500024 0.830912 -0.016784
C177  C     C_1   0.499987 0.000015 0.169089 -0.017140
C178  C     C_1   0.000008 0.499966 0.169088 -0.022004
C179  C     C_1   0.000016 0.499936 0.279898 -0.044152
C180  C     C_1   0.499984 0.000028 0.279900 -0.038951
C181  C     C_1   0.999988 0.500025 0.720101 -0.038572
C182  C     C_1   0.500057 0.999942 0.720101 -0.042915
C183  C     C_1   0.500045 0.999933 0.779899 -0.042930
C184  C     C_R   0.499980 0.079555 0.000005 0.555459
C185  C     C_1   0.999992 0.500029 0.779899 -0.038577
C186  C     C_1   0.499983 0.000024 0.220101 -0.038977
C187  C     C_1   0.000013 0.499945 0.220100 -0.045506
C188  C     C_R   0.017722 0.227973 0.545037 0.326263
C189  C     C_R   0.227999 0.984451 0.546545 0.326556
C190  C     C_R   0.984118 0.772023 0.546496 0.327143
C191  C     C_R   0.771973 0.015585 0.546700 0.325731
C192  C     C_R   0.983992 0.228039 0.453554 0.325681
C193  C     C_R   0.772016 0.982668 0.454679 0.326279
C194  C     C_R   0.015757 0.772006 0.453621 0.326565
C195  C     C_R   0.079556 0.499970 0.999968 0.554226
C196  C     C_R   0.227971 0.015663 0.453392 0.327102
C197  C     C_R   0.517329 0.727975 0.045316 0.326634
C198  C     C_R   0.728008 0.483946 0.046390 0.326074
C199  C     C_R   0.484122 0.272019 0.046482 0.326906
C200  C     C_R   0.271972 0.515609 0.046682 0.325770
C201  C     C_R   0.484425 0.728037 0.953276 0.325789
C202  C     C_R   0.272017 0.482642 0.954694 0.326269
C203  C     C_R   0.515773 0.272009 0.953613 0.326021
C204  C     C_R   0.728002 0.517749 0.954926 0.326789
C205  C     C_R   0.000489 0.206307 0.499552 0.036412
C206  C     C_1   0.000189 0.161522 0.499785 0.093864
C207  C     C_R   0.206284 0.000051 0.499969 0.036365
C208  C     C_R   0.999946 0.793716 0.500058 0.036386
C209  C     C_R   0.793693 0.999500 0.500433 0.036366
C210  C     C_R   0.500503 0.706307 0.999550 0.036402
C211  C     C_R   0.706306 0.500481 0.000395 0.036626
C212  C     C_R   0.499953 0.293716 0.000048 0.036127
C213  C     C_R   0.293693 0.499500 0.000431 0.036389
C214  C     C_R   0.984627 0.271647 0.452524 -0.013070
C215  C     C_R   0.271579 0.016043 0.453048 -0.014003
C216  C     C_R   0.016112 0.728400 0.453284 -0.013876
Cu1   Cu    Cu3+1 0.958970 0.500000 0.500000 0.960868
Cu2   Cu    Cu3+1 0.000000 0.000000 0.555770 1.044667
Cu3   Cu    Cu3+1 0.500000 0.500000 0.944230 1.044284
Cu4   Cu    Cu3+1 0.500000 0.500000 0.055770 1.046137
Cu5   Cu    Cu3+1 0.500000 0.041030 0.500000 0.958344
Cu6   Cu    Cu3+1 0.041030 0.500000 0.500000 0.952111
Cu7   Cu    Cu3+1 0.500000 0.958970 0.500000 0.952345
Cu8   Cu    Cu3+1 0.458970 0.000000 0.000000 0.958474
Cu9   Cu    Cu3+1 1.000000 0.541030 0.000000 0.955731
Cu10  Cu    Cu3+1 0.541030 0.000000 0.000000 0.951718
Cu11  Cu    Cu3+1 1.000000 0.458970 0.000000 0.957927
Cu12  Cu    Cu3+1 0.000000 0.000000 0.444230 1.044631
F1    F     F_    0.034251 0.206558 0.589081 -0.622195
F2    F     F_    0.706621 0.467845 0.090727 -0.622405
F3    F     F_    0.468336 0.293392 0.091049 -0.620847
F4    F     F_    0.293339 0.531302 0.091274 -0.622710
F5    F     F_    0.468762 0.706679 0.908658 -0.622680
F6    F     F_    0.293423 0.466479 0.910402 -0.622171
F7    F     F_    0.531575 0.293369 0.909051 -0.622480
F8    F     F_    0.706616 0.534311 0.910884 -0.621181
F9    F     F_    0.206648 0.968861 0.591252 -0.621860
F10   F     F_    0.968336 0.793399 0.591063 -0.620717
F11   F     F_    0.793341 0.031254 0.591308 -0.622811
F12   F     F_    0.967926 0.206682 0.409200 -0.622964
F13   F     F_    0.793421 0.966529 0.410370 -0.622137
F14   F     F_    0.031552 0.793362 0.409050 -0.621864
F15   F     F_    0.206590 0.031238 0.408685 -0.620736
F16   F     F_    0.533461 0.706562 0.089632 -0.621321
H1    H     H_    0.084646 0.324456 0.544489 0.116869
H2    H     H_    0.268171 0.011543 0.655415 0.141738
H3    H     H_    0.917528 0.675899 0.549445 0.118391
H4    H     H_    0.889398 0.638783 0.632190 0.116931
H5    H     H_    0.921369 0.648063 0.726472 0.111361
H6    H     H_    0.981812 0.694717 0.737978 0.117633
H7    H     H_    0.010667 0.731783 0.655616 0.141313
H8    H     H_    0.675077 0.974825 0.618547 0.114584
H9    H     H_    0.637542 0.004268 0.700088 0.116665
H10   H     H_    0.647255 0.078005 0.726371 0.111371
H11   H     H_    0.694742 0.122484 0.670716 0.116823
H12   H     H_    0.114665 0.361628 0.625873 0.116885
H13   H     H_    0.732160 0.093759 0.588572 0.141019
H14   H     H_    0.024091 0.324953 0.381055 0.114482
H15   H     H_    0.993901 0.362520 0.300030 0.117000
H16   H     H_    0.919925 0.352819 0.274983 0.112037
H17   H     H_    0.875960 0.305309 0.331353 0.115289
H18   H     H_    0.905437 0.267860 0.412994 0.140921
H19   H     H_    0.675535 0.915741 0.454197 0.116986
H20   H     H_    0.638340 0.886423 0.372356 0.116976
H21   H     H_    0.647882 0.916729 0.277072 0.111058
H22   H     H_    0.694871 0.976706 0.263657 0.117209
H23   H     H_    0.085181 0.352058 0.721623 0.110883
H24   H     H_    0.732010 0.006757 0.345082 0.141598
H25   H     H_    0.082329 0.675756 0.450682 0.117633
H26   H     H_    0.110423 0.638579 0.367958 0.116423
H27   H     H_    0.078406 0.647926 0.273695 0.112526
H28   H     H_    0.017961 0.694717 0.262181 0.118209
H29   H     H_    0.989143 0.731847 0.344525 0.141793
H30   H     H_    0.324100 0.082231 0.449844 0.118072
H31   H     H_    0.361237 0.109943 0.366856 0.116562
H32   H     H_    0.351963 0.077511 0.272874 0.111843
H33   H     H_    0.305290 0.017029 0.261910 0.117743
H34   H     H_    0.025324 0.305063 0.735967 0.117469
H35   H     H_    0.268205 0.988590 0.344522 0.141333
H36   H     H_    0.584256 0.824455 0.045841 0.117018
H37   H     H_    0.613564 0.861631 0.127701 0.116833
H38   H     H_    0.583246 0.852068 0.222969 0.111103
H39   H     H_    0.523267 0.805077 0.236348 0.117579
H40   H     H_    0.493226 0.767956 0.154904 0.141863
H41   H     H_    0.824877 0.523975 0.118953 0.114530
H42   H     H_    0.862388 0.493710 0.199967 0.117655
H43   H     H_    0.852668 0.419713 0.224952 0.112094
H44   H     H_    0.805194 0.375802 0.168530 0.115589
H45   H     H_    0.994576 0.267946 0.655010 0.141814
H46   H     H_    0.767800 0.405355 0.086898 0.141724
H47   H     H_    0.417540 0.175888 0.049428 0.118100
H48   H     H_    0.389441 0.138735 0.132162 0.116648
H49   H     H_    0.421433 0.147993 0.226436 0.111798
H50   H     H_    0.481858 0.194668 0.237946 0.117499
H51   H     H_    0.510683 0.231769 0.155593 0.140736
H52   H     H_    0.175077 0.474885 0.118566 0.114601
H53   H     H_    0.137541 0.504369 0.200079 0.116894
H54   H     H_    0.147253 0.578120 0.226291 0.111474
H55   H     H_    0.194739 0.622571 0.170595 0.116987
H56   H     H_    0.324255 0.917894 0.550053 0.117669
H57   H     H_    0.232158 0.593805 0.088478 0.141126
H58   H     H_    0.525197 0.824945 0.881463 0.114633
H59   H     H_    0.495767 0.862499 0.799911 0.116695
H60   H     H_    0.422032 0.852792 0.773584 0.111512
H61   H     H_    0.377543 0.805294 0.829206 0.117011
H62   H     H_    0.406255 0.767858 0.911362 0.141111
H63   H     H_    0.175537 0.415713 0.954279 0.116909
H64   H     H_    0.138353 0.386341 0.872466 0.116828
H65   H     H_    0.147901 0.416588 0.777149 0.110875
H66   H     H_    0.194885 0.476561 0.763672 0.117366
H67   H     H_    0.361443 0.890168 0.633017 0.116351
H68   H     H_    0.232015 0.506665 0.845068 0.141802
H69   H     H_    0.582343 0.175751 0.950699 0.117061
H70   H     H_    0.610467 0.138586 0.867985 0.116150
H71   H     H_    0.578489 0.147952 0.773701 0.112521
H72   H     H_    0.518053 0.194750 0.762155 0.118357
H73   H     H_    0.489205 0.231867 0.844489 0.141775
H74   H     H_    0.824490 0.584668 0.955529 0.116825
H75   H     H_    0.861740 0.614721 0.874174 0.116946
H76   H     H_    0.852249 0.585288 0.778416 0.111361
H77   H     H_    0.805250 0.525453 0.764033 0.117798
H78   H     H_    0.352105 0.922600 0.727005 0.112706
H79   H     H_    0.768055 0.494670 0.844961 0.142246
H80   H     H_    0.305311 0.983091 0.738004 0.118421
O1    O     O_R   0.965350 0.440130 0.499980 -0.498747
O2    O     O_R   0.940130 0.534650 0.999980 -0.506260
O3    O     O_R   0.534650 0.059870 0.999980 -0.503174
O4    O     O_R   0.059870 0.465350 0.999980 -0.505943
O5    O     O_R   0.534650 0.940130 0.000020 -0.505791
O6    O     O_R   0.059870 0.534650 0.000020 -0.498876
O7    O     O_R   0.465350 0.059870 0.000020 -0.503373
O8    O     O_R   0.940130 0.465350 0.000020 -0.498438
O9    O     O_R   0.059790 0.999980 0.452860 -0.494596
O10   O     O_R   0.999980 0.940210 0.452860 -0.494935
O11   O     O_R   0.940210 0.000020 0.452860 -0.495809
O12   O     O_R   0.440130 0.034650 0.499980 -0.503410
O13   O     O_R   0.000020 0.059790 0.452860 -0.494471
O14   O     O_R   0.940210 0.999980 0.547140 -0.494393
O15   O     O_R   0.000020 0.940210 0.547140 -0.494624
O16   O     O_R   0.059790 0.000020 0.547140 -0.494920
O17   O     O_R   0.999980 0.059790 0.547140 -0.495848
O18   O     O_R   0.559790 0.499980 0.952860 -0.495180
O19   O     O_R   0.499980 0.440210 0.952860 -0.495166
O20   O     O_R   0.440210 0.500020 0.952860 -0.495817
O21   O     O_R   0.500020 0.559790 0.952860 -0.494312
O22   O     O_R   0.440210 0.499980 0.047140 -0.494367
O23   O     O_R   0.034650 0.559870 0.499980 -0.503186
O24   O     O_R   0.500020 0.440210 0.047140 -0.494857
O25   O     O_R   0.559790 0.500020 0.047140 -0.494195
O26   O     O_R   0.499980 0.559790 0.047140 -0.495339
O27   O     O_R   0.965350 0.499980 0.418590 -0.500371
O28   O     O_R   0.499980 0.034650 0.418590 -0.502371
O29   O     O_R   0.034650 0.500020 0.418590 -0.503109
O30   O     O_R   0.500020 0.965350 0.418590 -0.501880
O31   O     O_R   0.034650 0.499980 0.581410 -0.502082
O32   O     O_R   0.500020 0.034650 0.581410 -0.500594
O33   O     O_R   0.965350 0.500020 0.581410 -0.502079
O34   O     O_R   0.559870 0.965350 0.499980 -0.505753
O35   O     O_R   0.499980 0.965350 0.581410 -0.503113
O36   O     O_R   0.465350 0.999980 0.918590 -0.500591
O37   O     O_R   0.999980 0.534650 0.918590 -0.502219
O38   O     O_R   0.534650 0.000020 0.918590 -0.503126
O39   O     O_R   0.000020 0.465350 0.918590 -0.501866
O40   O     O_R   0.534650 0.999980 0.081410 -0.502022
O41   O     O_R   0.000020 0.534650 0.081410 -0.501817
O42   O     O_R   0.465350 0.000020 0.081410 -0.502274
O43   O     O_R   0.999980 0.465350 0.081410 -0.501683
O44   O     O_R   0.034650 0.440130 0.500020 -0.505923
O45   O     O_R   0.559870 0.034650 0.500020 -0.499062
O46   O     O_R   0.965350 0.559870 0.500020 -0.503152
O47   O     O_R   0.440130 0.965350 0.500020 -0.503009
O48   O     O_R   0.465350 0.940130 0.999980 -0.498974

loop_
_geom_bond_atom_site_label_1
_geom_bond_atom_site_label_2
_ccdc_geom_bond_type
Cu3   O21   S    
C142  C184  S    
C105  C110  A    
C126  C127  A    
C163  O10   A    
C115  H64   S    
C8    C105  S    
Cu9   O6    S    
C55   C56   A    
C189  F9    S    
C114  C115  A    
C16   C198  A    
Cu3   O20   S    
C111  C118  A    
C147  C164  S    
C62   H21   S    
C106  C107  A    
C108  C109  A    
C55   H16   S    
C73   C74   A    
Cu4   O24   S    
C199  F3    S    
C182  C183  S    
Cu8   O48   S    
C50   H11   S    
C134  C143  T    
C16   C22   A    
C158  O39   A    
C167  O19   A    
C59   C60   A    
C60   H19   S    
C166  O18   A    
Cu2   Cu12  S    
C45   C47   A    
C137  C140  S    
C188  C205  A    
Cu10  O40   S    
C99   H52   S    
C196  C215  A    
C101  C137  T    
C177  C186  T    
C43   C44   A    
C37   C38   A    
C202  F6    S    
C119  C120  A    
C128  H75   S    
C161  O9    A    
C26   C27   A    
C68   C213  S    
C160  C178  S    
C52   C58   A    
Cu10  O3    S    
C108  H60   S    
Cu7   O35   S    
C140  O46   A    
Cu2   O15   S    
C160  O41   A    
C188  F1    S    
C194  C208  A    
C175  C183  T    
C8    C201  A    
C53   H14   S    
C139  C162  S    
C157  O36   A    
C72   C73   A    
Cu11  O4    S    
C24   C209  S    
C138  C151  S    
C151  O45   A    
Cu9   O41   S    
C169  O26   A    
C144  C165  S    
C4    C188  A    
Cu4   O26   S    
C130  C131  A    
C204  F8    S    
C195  O6    A    
C32   C33   A    
Cu5   O32   S    
C145  C161  S    
C71   H29   S    
C33   C34   A    
C153  O27   A    
C158  O37   A    
C69   C70   A    
C72   C215  S    
C88   C89   A    
C98   C99   A    
C200  F4    S    
C100  H53   S    
C197  F16   S    
C192  C205  A    
C74   H31   S    
C124  C139  T    
Cu10  O38   S    
C128  C129  A    
C174  C182  T    
C5    C20   A    
C85   C86   A    
C6    C19   A    
C133  C142  T    
C3    C193  A    
C166  O25   A    
Cu6   O44   S    
C36   C37   A    
C159  O42   A    
C114  H63   S    
C27   H1    S    
C20   C113  S    
C78   C80   A    
C192  F12   S    
C127  H74   S    
C11   C25   A    
C162  O5    A    
C115  C116  A    
C109  H61   S    
C15   C199  A    
C10   C119  S    
Cu10  O5    S    
C67   H26   S    
C70   H28   S    
C172  C181  T    
C47   C48   A    
C42   H5    S    
C153  C170  S    
C169  O21   A    
C107  C108  A    
C160  O43   A    
C89   C91   A    
C116  H65   S    
C66   C67   A    
C14   C25   A    
C57   C150  T    
C112  C136  S    
C173  O8    A    
C92   C97   A    
C14   C98   S    
C30   H34   S    
C196  F15   S    
C5    C191  A    
C195  O4    A    
C39   C40   A    
C121  H70   S    
C11   C202  A    
C29   C30   A    
C9    C204  A    
C44   H7    S    
C56   H17   S    
C83   C84   A    
C73   H30   S    
C52   C214  S    
C148  C169  S    
C13   C208  S    
C184  O7    A    
C180  C186  S    
C191  C209  A    
C41   H4    S    
C154  O28   A    
C36   H78   S    
C17   C214  A    
C82   H38   S    
C40   H3    S    
C120  C121  A    
Cu2   O14   S    
C129  C130  A    
C158  C176  S    
C132  C141  T    
C163  O15   A    
C54   C55   A    
C7    C32   S    
C6    C39   S    
Cu8   O42   S    
C24   C147  T    
Cu1   O27   S    
C31   H45   S    
C39   C44   A    
Cu1   O1    S    
C170  C179  T    
Cu11  O43   S    
C106  H58   S    
C117  C118  A    
C49   H10   S    
C153  O29   A    
Cu9   Cu11  S    
C56   C58   A    
C154  C171  S    
C34   C36   A    
C35   C148  T    
C61   C62   A    
C203  C212  A    
C63   C64   A    
C129  H76   S    
C46   C149  T    
C49   C50   A    
Cu1   O46   S    
C173  O2    A    
C1    C135  S    
C164  O11   A    
C87   C88   A    
C104  H57   S    
C118  H68   S    
C41   C42   A    
C190  F10   S    
C176  C185  T    
C52   C53   A    
C2    C145  T    
C103  H55   S    
C156  O35   A    
C156  C174  S    
C122  H71   S    
C76   H33   S    
C28   C29   A    
C35   C210  S    
C194  C216  A    
C30   C31   A    
C123  C125  A    
C179  C187  S    
C46   C211  S    
C38   H2    S    
Cu12  O13   S    
C199  C212  A    
C125  H73   S    
C197  C210  A    
C155  C172  S    
C18   C215  A    
C70   C71   A    
C10   C203  A    
Cu7   O30   S    
C58   H18   S    
Cu2   O16   S    
C54   H15   S    
C168  O20   A    
C193  F13   S    
C165  O17   A    
C152  C168  S    
C144  C206  T    
C110  H62   S    
C11   C111  S    
C18   C90   S    
C64   H24   S    
C88   H43   S    
Cu3   Cu4   S    
C86   C87   A    
C53   C54   A    
C14   C200  A    
C112  O47   A    
C164  O14   A    
C60   C61   A    
C102  H54   S    
C62   C63   A    
C68   C152  T    
C201  F5    S    
C143  C195  S    
C156  O32   A    
C50   C51   A    
C81   H37   S    
C3    C20   A    
C25   C134  S    
C121  C122  A    
C4    C17   A    
C119  C125  A    
C48   C49   A    
Cu3   O18   S    
C1    O44   A    
C29   H23   S    
C86   H41   S    
C42   C43   A    
C127  C128  A    
C37   H80   S    
C112  O12   A    
Cu1   Cu6   S    
Cu12  O10   S    
C97   H51   S    
C155  O33   A    
C4    C26   S    
Cu12  O9    S    
C79   C135  T    
C105  C106  A    
C184  O3    A    
C120  H69   S    
C21   C124  S    
C66   H25   S    
Cu5   O45   S    
C109  C110  A    
C5    C45   S    
C189  C207  A    
C150  C167  S    
C204  C211  A    
C92   C93   A    
C111  C114  A    
Cu2   O17   S    
C202  C213  A    
C94   C95   A    
C63   H22   S    
C96   H50   S    
C157  O38   A    
C83   H39   S    
C167  O24   A    
C89   H44   S    
C82   C83   A    
Cu7   O47   S    
C103  C104  A    
C80   H36   S    
C113  C138  T    
C7    C189  A    
C2    C207  S    
Cu5   O12   S    
C131  H79   S    
C91   H46   S    
C93   C94   A    
C75   H32   S    
Cu11  O39   S    
C95   C96   A    
C87   H42   S    
C75   C76   A    
C81   C82   A    
C85   C91   A    
C205  C206  S    
C203  F7    S    
C84   H40   S    
C59   C64   A    
Cu6   O31   S    
C95   H49   S    
C23   C133  S    
Cu4   O25   S    
C154  O30   A    
C161  O16   A    
C9    C22   A    
C45   C51   A    
C17   C79   S    
C116  C117  A    
C19   C216  A    
Cu8   Cu10  S    
C168  O22   A    
C15   C92   S    
C33   H56   S    
C12   C78   S    
C12   C197  A    
C32   C38   A    
C159  O40   A    
C140  O23   A    
C130  H77   S    
C15   C23   A    
C51   H13   S    
C57   C212  S    
C26   C31   A    
C141  C173  S    
C155  O31   A    
C102  C103  A    
C13   C146  T    
C159  C177  S    
C192  C214  A    
Cu6   O23   S    
Cu12  O11   S    
C191  F11   S    
C151  O34   A    
C74   C75   A    
C93   H47   S    
C162  O48   A    
C94   H48   S    
C76   C77   A    
C65   C216  S    
C181  C185  S    
C65   C71   A    
C12   C21   A    
C67   C69   A    
C72   C77   A    
Cu11  O8    S    
C69   H27   S    
C90   C136  T    
C193  C209  A    
C99   C100  A    
Cu7   O34   S    
C7    C18   A    
Cu9   O37   S    
C96   C97   A    
C6    C190  A    
C100  C102  A    
C200  C213  A    
Cu4   O22   S    
C198  C211  A    
C165  O13   A    
C47   H8    S    
C107  H59   S    
C157  C175  S    
C190  C208  A    
C40   C41   A    
C171  C180  T    
C178  C187  T    
C201  C210  A    
C123  H72   S    
Cu8   O7    S    
C117  H66   S    
Cu3   O19   S    
C194  F14   S    
Cu6   O29   S    
C22   C132  S    
Cu9   O2    S    
C149  C166  S    
C28   H12   S    
C61   H20   S    
C80   C81   A    
C8    C21   A    
C198  F2    S    
C10   C23   A    
C146  C163  S    
C9    C126  S    
C77   H35   S    
C196  C207  A    
C34   H67   S    
Cu5   Cu7   S    
C19   C101  S    
C43   H6    S    
C16   C85   S    
C126  C131  A    
C48   H9    S    
C98   C104  A    
Cu5   O28   S    
Cu8   O36   S    
C78   C84   A    
C65   C66   A    
C27   C28   A    
Cu1   O33   S    
C122  C123  A    
C1    O1    A    
C3    C59   S    
