data_mof_unit_pretest_417.cif
_audit_creation_date              2012-12-10T17:43:21-0500
_audit_creation_method            fapswitch 2.2
_symmetry_space_group_name_H-M    P1
_symmetry_Int_Tables_number       1
_space_group_crystal_system       triclinic
_cell_length_a                    15.083524
_cell_length_b                    13.722512
_cell_length_c                    10.613496
_cell_angle_alpha                 89.736932
_cell_angle_beta                  90.355363
_cell_angle_gamma                 89.791902
_cell_volume                      2196.74202158

loop_
_atom_site_label
_atom_site_type_symbol
_atom_type_description
_atom_site_fract_x
_atom_site_fract_y
_atom_site_fract_z
_atom_type_partial_charge
C1    C     C_R   0.329151 0.500295 0.497994 0.852659
C2    C     C_R   0.670929 0.499905 0.500738 0.861750
C3    C     C_R   0.953134 0.513008 0.505082 0.050960
C4    C     C_R   0.047096 0.513532 0.503512 0.046489
C5    C     C_R   0.905226 0.538610 0.394614 0.057555
C6    C     C_R   0.094862 0.486485 0.613659 0.058960
C7    C     C_R   0.956572 0.479112 0.731556 -0.088700
C8    C     C_R   0.043369 0.582544 0.290395 -0.046190
C9    C     C_R   0.048831 0.475017 0.727153 -0.099862
C10   C     C_R   0.951161 0.577271 0.291516 -0.090636
C11   C     C_R   0.451566 0.792779 0.587018 0.071888
C12   C     C_R   0.548424 0.207217 0.412979 0.067676
C13   C     C_R   0.548462 0.792998 0.412977 0.064944
C14   C     C_R   0.451514 0.207009 0.587007 0.068625
C15   C     C_R   0.547738 0.896357 0.407110 -0.019315
C16   C     C_R   0.452224 0.103647 0.592868 -0.019981
C17   C     C_R   0.452382 0.896069 0.592976 -0.018973
C18   C     C_R   0.547584 0.103931 0.407006 -0.021762
C19   C     C_R   0.500003 0.948233 0.499998 0.037386
C20   C     C_R   0.499964 0.051769 0.499988 0.039442
C21   C     C_R   0.594013 0.948533 0.312159 -0.064474
C22   C     C_R   0.405921 0.051471 0.687793 -0.079644
C23   C     C_R   0.406228 0.947886 0.688077 -0.069145
C24   C     C_R   0.593706 0.052116 0.311876 -0.071357
C25   C     C_R   0.500482 0.500212 0.259184 0.852295
C26   C     C_R   0.499545 0.499802 0.740851 0.857928
C27   C     C_3   0.499562 0.592754 0.040207 -0.086278
C28   C     C_3   0.500429 0.407327 0.959948 -0.085489
C29   C     C_3   0.572522 0.546276 0.958193 -0.097638
C30   C     C_3   0.427468 0.453812 0.041963 -0.107934
C31   C     C_3   0.426804 0.545893 0.957439 -0.162879
C32   C     C_3   0.573177 0.454202 0.042736 -0.143539
C33   C     C_3   0.499748 0.499440 0.877676 -0.036849
C34   C     C_3   0.500235 0.500638 0.122438 -0.041345
C35   C     C_R   0.811914 0.532348 0.392591 -0.074178
C36   C     C_R   0.188113 0.479380 0.610713 -0.093941
C37   C     C_R   0.767498 0.501047 0.501658 -0.135082
C38   C     C_R   0.232667 0.502346 0.498581 -0.141809
C39   C     C_R   0.814640 0.472415 0.611136 -0.075451
C40   C     C_R   0.186058 0.528567 0.387809 -0.041554
C41   C     C_R   0.907471 0.487111 0.617068 -0.055623
C42   C     C_R   0.092853 0.541292 0.392201 -0.057475
Cu1   Cu    Cu3+1 0.500000 0.597420 0.500000 0.986252
Cu2   Cu    Cu3+1 0.500000 0.402580 0.500000 0.992656
N1    N     N_R   0.500000 0.743810 0.500000 -0.211039
N2    N     N_R   0.500000 0.256190 0.500000 -0.215737
O1    O     O_R   0.370260 0.582280 0.500030 -0.560995
O2    O     O_R   0.629740 0.417720 0.499970 -0.564532
O3    O     O_R   0.629740 0.582280 0.499970 -0.606131
O4    O     O_R   0.370260 0.417720 0.500030 -0.592514
O5    O     O_R   0.499980 0.582260 0.316850 -0.571479
O6    O     O_R   0.500020 0.417740 0.683150 -0.569628
O7    O     O_R   0.500020 0.582260 0.683150 -0.590373
O8    O     O_R   0.499980 0.417740 0.316850 -0.589547
H1    H     H_    0.367034 0.583798 0.919911 0.161788
H2    H     H_    0.632816 0.416369 0.080780 0.199168
H3    H     H_    0.499000 0.668683 0.075782 0.217085
H4    H     H_    0.500993 0.331389 0.924400 0.217206
H5    H     H_    0.631827 0.584219 0.921045 0.184961
H6    H     H_    0.368203 0.415862 0.079201 0.173941
C43   C     C_2   0.759572 0.551291 0.274953 0.289955
H7    H     H_    0.698355 0.592859 0.278172 0.078897
O9    O     O_2   0.782322 0.516425 0.174503 -0.529577
C44   C     C_2   0.240788 0.445189 0.722087 0.356222
H8    H     H_    0.302899 0.480309 0.745816 0.031949
O10   O     O_2   0.217814 0.374278 0.783488 -0.527055
C45   C     C_2   0.769335 0.415488 0.711696 0.330854
H9    H     H_    0.803212 0.353994 0.755336 0.102196
O11   O     O_2   0.696138 0.438393 0.749919 -0.562160
C46   C     C_2   0.233016 0.527403 0.264741 0.282824
H10   H     H_    0.202839 0.491243 0.184561 0.109166
O12   O     O_2   0.303123 0.569936 0.250294 -0.547890
C47   C     C_2   0.915052 0.488164 0.857943 0.414087
H11   H     H_    0.852305 0.526022 0.868454 0.106035
O13   O     O_2   0.951393 0.455295 0.952221 -0.486631
C48   C     C_2   0.084098 0.642734 0.189328 0.349869
H12   H     H_    0.144896 0.682385 0.207331 0.107052
O14   O     O_2   0.049206 0.650249 0.085541 -0.518329
H13   H     H_    0.084705 0.469107 0.815369 0.219996
H14   H     H_    0.915220 0.609831 0.213465 0.217331
H15   H     H_    0.412275 0.750007 0.651251 0.164987
H16   H     H_    0.587720 0.249983 0.348747 0.170163
H17   H     H_    0.587608 0.750339 0.348596 0.157088
H18   H     H_    0.412353 0.249680 0.651369 0.176605
C49   C     C_2   0.639534 0.896210 0.208274 0.339912
H19   H     H_    0.706663 0.915624 0.182494 0.061513
O15   O     O_2   0.600949 0.834051 0.147180 -0.533966
C50   C     C_2   0.360361 0.103797 0.791643 0.380740
H20   H     H_    0.293220 0.084387 0.817368 0.071399
O16   O     O_2   0.398922 0.165956 0.852765 -0.522670
C51   C     C_2   0.361814 0.895146 0.792974 0.345395
H21   H     H_    0.295074 0.915053 0.820498 0.063355
O17   O     O_2   0.400974 0.832035 0.853008 -0.521249
C52   C     C_2   0.638071 0.104856 0.206938 0.356427
H22   H     H_    0.704795 0.084946 0.179344 0.062907
O18   O     O_2   0.598884 0.167973 0.146947 -0.519934

loop_
_geom_bond_atom_site_label_1
_geom_bond_atom_site_label_2
_ccdc_geom_bond_type
C38   C40   A    
C27   C29   S    
C47   H11   S    
C19   C20   A    
C14   H18   S    
C6    C9    A    
C14   N2    A    
C49   H19   S    
C11   H15   S    
C15   C19   A    
C17   C23   A    
C40   C46   S    
C18   C24   A    
C35   C37   A    
C8    C42   A    
C29   C32   S    
C24   C52   S    
C30   C31   S    
C29   C33   S    
C8    C48   S    
C9    H13   S    
C43   O9    D    
Cu1   O7    S    
C11   C17   A    
C29   H5    S    
C30   H6    S    
C31   C33   S    
C46   H10   S    
C22   C50   S    
C1    O4    A    
C18   C20   A    
C25   C34   S    
Cu2   O6    S    
C40   C42   A    
C47   O13   D    
C52   H22   S    
Cu2   N2    S    
C49   O15   D    
C27   C34   S    
C21   C49   S    
C30   C34   S    
C27   C31   S    
C45   H9    S    
C28   C32   S    
C25   O8    A    
C12   N2    A    
C27   H3    S    
C51   H21   S    
C10   H14   S    
C1    O1    A    
C2    O2    A    
C45   O11   D    
C44   O10   D    
Cu1   Cu2   S    
C25   O5    A    
C2    O3    A    
C26   O6    A    
C51   O17   D    
C26   C33   S    
C16   C20   A    
C7    C47   S    
C12   H16   S    
C35   C43   S    
C48   H12   S    
C52   O18   D    
Cu1   N1    S    
C1    C38   S    
C4    C6    A    
C50   O16   D    
C28   C33   S    
C13   C15   A    
C23   C51   S    
C11   N1    A    
C3    C4    A    
C26   O7    A    
Cu2   O4    S    
C7    C9    A    
C3    C41   A    
C16   C22   A    
C39   C45   S    
Cu1   O3    S    
C48   O14   D    
C3    C5    A    
C28   H4    S    
C13   H17   S    
C44   H8    S    
C28   C30   S    
C5    C10   A    
C37   C39   A    
C13   N1    A    
C2    C37   S    
Cu1   O5    S    
C4    C42   A    
C5    C35   A    
C36   C38   A    
C17   C19   A    
C6    C36   A    
C14   C16   A    
C7    C41   A    
C43   H7    S    
Cu2   O8    S    
C15   C21   A    
C50   H20   S    
C39   C41   A    
C8    C10   A    
C21   C24   A    
C12   C18   A    
C22   C23   A    
C46   O12   D    
C31   H1    S    
C36   C44   S    
Cu1   O1    S    
C32   H2    S    
Cu2   O2    S    
C32   C34   S    
