data_mof_unit_pretest_87.cif
_audit_creation_date              2013-03-05T15:50:08-0500
_audit_creation_method            fapswitch 2.2
_symmetry_space_group_name_H-M    P1
_symmetry_Int_Tables_number       1
_space_group_crystal_system       triclinic
_cell_length_a                    18.33305
_cell_length_b                    26.191462
_cell_length_c                    18.239263
_cell_angle_alpha                 90.580077
_cell_angle_beta                  89.934966
_cell_angle_gamma                 90.045221
_cell_volume                      8757.47851746

loop_
_atom_site_label
_atom_site_type_symbol
_atom_site_description
_atom_site_fract_x
_atom_site_fract_y
_atom_site_fract_z
_atom_type_partial_charge
Zn1   Zn    Zn3+2 0.249990 0.293780 0.913250 1.073333
Zn2   Zn    Zn3+2 0.249990 0.706220 0.086750 1.077348
Zn3   Zn    Zn3+2 0.249990 0.706220 0.913250 1.049872
Zn4   Zn    Zn3+2 0.249990 0.293780 0.086750 1.044946
Zn5   Zn    Zn3+2 0.749990 0.793780 0.413250 1.073804
Zn6   Zn    Zn3+2 0.749990 0.206220 0.586750 1.068223
Zn7   Zn    Zn3+2 0.749990 0.206220 0.413250 1.037858
Zn8   Zn    Zn3+2 0.749990 0.793780 0.586750 1.041300
Zn9   Zn    Zn3+2 0.336760 0.206240 0.000000 1.014898
Zn10  Zn    Zn3+2 0.336760 0.793760 0.000000 1.015933
Zn11  Zn    Zn3+2 0.836760 0.706240 0.500000 1.018513
Zn12  Zn    Zn3+2 0.836760 0.293760 0.500000 1.020263
Zn13  Zn    Zn3+2 0.163250 0.206230 0.000000 1.022635
Zn14  Zn    Zn3+2 0.163250 0.793770 0.000000 1.021627
Zn15  Zn    Zn3+2 0.663250 0.706230 0.500000 1.024933
Zn16  Zn    Zn3+2 0.663250 0.293770 0.500000 1.019769
O1    O     O_3   0.249990 0.250010 0.000000 -0.514204
O2    O     O_3   0.249990 0.749990 0.000000 -0.514903
O3    O     O_3   0.749990 0.750010 0.500000 -0.511368
O4    O     O_3   0.749990 0.249990 0.500000 -0.510141
O5    O     O_R   0.335430 0.280650 0.146160 -0.632354
O6    O     O_R   0.335430 0.719350 0.853840 -0.622355
O7    O     O_R   0.335430 0.719350 0.146160 -0.632824
O8    O     O_R   0.335430 0.280650 0.853840 -0.631642
O9    O     O_R   0.835430 0.780650 0.646160 -0.630556
O10   O     O_R   0.835430 0.219350 0.353840 -0.639758
O11   O     O_R   0.835430 0.219350 0.646160 -0.636601
O12   O     O_R   0.835430 0.780650 0.353840 -0.639441
O13   O     O_R   0.164550 0.280640 0.853840 -0.624936
O14   O     O_R   0.164550 0.719360 0.146160 -0.624252
O15   O     O_R   0.164550 0.719360 0.853840 -0.640503
O16   O     O_R   0.164550 0.280640 0.146160 -0.639263
O17   O     O_R   0.664550 0.780640 0.353840 -0.621389
O18   O     O_R   0.664550 0.219360 0.646160 -0.621343
O19   O     O_R   0.664550 0.219360 0.353840 -0.638896
O20   O     O_R   0.664550 0.780640 0.646160 -0.640339
O21   O     O_R   0.396160 0.219380 0.914560 -0.642204
O22   O     O_R   0.396160 0.780620 0.085440 -0.620329
O23   O     O_R   0.396160 0.780620 0.914560 -0.666002
O24   O     O_R   0.396160 0.219380 0.085440 -0.649656
O25   O     O_R   0.896160 0.719380 0.414560 -0.615923
O26   O     O_R   0.896160 0.280620 0.585440 -0.639074
O27   O     O_R   0.896160 0.280620 0.414560 -0.641061
O28   O     O_R   0.896160 0.719380 0.585440 -0.660727
O29   O     O_R   0.103840 0.219370 0.085450 -0.660701
O30   O     O_R   0.103840 0.780630 0.914550 -0.656215
O31   O     O_R   0.103840 0.780630 0.085450 -0.626333
O32   O     O_R   0.103840 0.219370 0.914550 -0.627458
O33   O     O_R   0.603840 0.719370 0.585450 -0.656575
O34   O     O_R   0.603840 0.280630 0.414550 -0.659734
O35   O     O_R   0.603840 0.280630 0.585450 -0.624212
O36   O     O_R   0.603840 0.719370 0.414550 -0.627697
O37   O     O_R   0.310730 0.133160 0.000000 -0.636524
O38   O     O_R   0.310730 0.866840 0.000000 -0.637326
O39   O     O_R   0.810730 0.633160 0.500000 -0.635695
O40   O     O_R   0.810730 0.366840 0.500000 -0.637146
O41   O     O_R   0.249970 0.366860 0.060720 -0.559498
O42   O     O_R   0.249970 0.633140 0.939280 -0.562442
O43   O     O_R   0.249970 0.633140 0.060720 -0.569850
O44   O     O_R   0.249970 0.366860 0.939280 -0.582277
O45   O     O_R   0.749970 0.866860 0.560720 -0.565230
O46   O     O_R   0.749970 0.133140 0.439280 -0.562540
O47   O     O_R   0.749970 0.133140 0.560720 -0.571140
O48   O     O_R   0.749970 0.866860 0.439280 -0.562099
O49   O     O_R   0.189290 0.133150 0.000000 -0.642101
O50   O     O_R   0.189290 0.866850 0.000000 -0.641834
O51   O     O_R   0.689290 0.633150 0.500000 -0.637428
O52   O     O_R   0.689290 0.366850 0.500000 -0.648995
C1    C     C_R   0.392883 0.253262 0.137630 0.818482
C2    C     C_R   0.393269 0.747221 0.862508 0.812814
C3    C     C_R   0.391250 0.749158 0.139534 0.811834
C4    C     C_R   0.393196 0.252830 0.863267 0.832251
C5    C     C_R   0.892912 0.752477 0.638147 0.800978
C6    C     C_R   0.892607 0.246786 0.362136 0.808734
C7    C     C_R   0.891528 0.248571 0.638670 0.824061
C8    C     C_R   0.891178 0.750848 0.360477 0.809188
C9    C     C_R   0.110439 0.250083 0.860030 0.848530
C10   C     C_R   0.114345 0.754347 0.143657 0.843021
C11   C     C_R   0.106162 0.745436 0.864414 0.832648
C12   C     C_R   0.107168 0.253698 0.137260 0.835682
C13   C     C_R   0.614311 0.745560 0.356374 0.840684
C14   C     C_R   0.610205 0.249675 0.639960 0.834196
C15   C     C_R   0.606943 0.246152 0.362999 0.835897
C16   C     C_R   0.606319 0.754294 0.635989 0.830475
C17   C     C_R   0.249311 0.109014 0.998983 0.852888
C18   C     C_R   0.249861 0.890944 0.999956 0.821371
C19   C     C_R   0.749824 0.609101 0.500274 0.818764
C20   C     C_R   0.749200 0.391066 0.502364 0.869593
C21   C     C_R   0.250268 0.391245 0.000452 0.956682
C22   C     C_R   0.249997 0.608872 0.999788 0.957582
C23   C     C_R   0.750668 0.891151 0.500064 0.976435
C24   C     C_R   0.750666 0.108801 0.499590 0.971784
C25   C     C_3   0.206483 0.469835 0.075991 -0.291708
C26   C     C_3   0.199335 0.530514 0.930156 -0.275548
C27   C     C_3   0.213693 0.532088 0.079039 -0.320363
C28   C     C_3   0.206583 0.468292 0.926391 -0.285404
C29   C     C_3   0.702262 0.969522 0.570808 -0.279727
C30   C     C_3   0.705921 0.030223 0.424861 -0.292378
C31   C     C_3   0.709239 0.031705 0.574622 -0.282722
C32   C     C_3   0.712688 0.967899 0.421468 -0.315729
H1    H     H_    0.117421 0.914373 0.927676 0.159779
H2    H     H_    0.104326 0.083032 0.047879 0.166374
H3    H     H_    0.596045 0.416710 0.480012 0.174915
H4    H     H_    0.625869 0.589017 0.584320 0.152799
C33   C     C_3   0.336690 0.469048 0.000828 -0.269355
C34   C     C_3   0.336266 0.531827 0.992662 -0.279127
C35   C     C_3   0.837119 0.968379 0.503467 -0.289405
C36   C     C_3   0.837257 0.031590 0.497708 -0.290741
C37   C     C_3   0.250616 0.448975 0.001215 -0.229207
C38   C     C_3   0.250367 0.551389 0.999946 -0.234662
C39   C     C_3   0.751247 0.948669 0.499370 -0.235559
C40   C     C_3   0.751328 0.051179 0.498915 -0.231328
C41   C     C_R   0.083427 0.337547 0.762939 -0.138278
C42   C     C_R   0.156027 0.739608 0.301161 -0.153003
C43   C     C_R   0.096491 0.662175 0.750254 -0.130460
C44   C     C_R   0.116616 0.319534 0.273496 -0.144284
C45   C     C_R   0.656237 0.759858 0.199103 -0.152636
C46   C     C_R   0.578040 0.161612 0.732978 -0.143584
C47   C     C_R   0.612437 0.176191 0.230820 -0.139023
C48   C     C_R   0.596775 0.837525 0.750326 -0.133190
C49   C     C_R   0.093525 0.370468 0.704392 -0.233240
C50   C     C_R   0.173460 0.732697 0.374451 -0.254866
C51   C     C_R   0.111340 0.636413 0.684935 -0.281544
C52   C     C_R   0.140790 0.329919 0.344425 -0.259439
C53   C     C_R   0.673853 0.767353 0.125956 -0.255926
C54   C     C_R   0.587163 0.126845 0.789456 -0.238768
C55   C     C_R   0.635483 0.162512 0.160599 -0.259952
C56   C     C_R   0.611122 0.863938 0.815216 -0.286257
C57   C     C_R   0.619674 0.764824 0.072250 0.536459
C58   C     C_R   0.566449 0.140369 0.860847 0.545339
C59   C     C_R   0.604157 0.185701 0.099517 0.514996
C60   C     C_R   0.581244 0.846961 0.881015 0.515362
C61   C     C_R   0.071236 0.355411 0.634135 0.553295
C62   C     C_R   0.119222 0.735905 0.428173 0.539837
C63   C     C_R   0.081692 0.653896 0.619370 0.516676
C64   C     C_R   0.107914 0.305730 0.403951 0.523517
C65   C     C_R   0.547039 0.757399 0.093171 -0.108407
C66   C     C_R   0.527313 0.185572 0.872182 -0.006996
C67   C     C_R   0.544342 0.217935 0.109701 -0.125025
C68   C     C_R   0.533326 0.805557 0.879620 -0.056364
C69   C     C_R   0.029630 0.310879 0.626089 -0.003837
C70   C     C_R   0.046656 0.743228 0.407166 -0.111906
C71   C     C_R   0.033335 0.695019 0.621411 -0.060968
C72   C     C_R   0.045517 0.276298 0.391904 -0.127880
C73   C     C_R   0.526959 0.752003 0.167837 -0.001827
C74   C     C_R   0.510468 0.218174 0.812877 -0.023303
C75   C     C_R   0.517695 0.229662 0.180808 -0.018273
C76   C     C_R   0.511984 0.781468 0.812921 -0.039724
C77   C     C_R   0.010512 0.281151 0.687897 -0.028479
C78   C     C_R   0.026780 0.748039 0.332409 -0.001068
C79   C     C_R   0.011228 0.718239 0.688522 -0.035457
C80   C     C_R   0.018465 0.267609 0.320167 -0.014618
C81   C     C_R   0.050637 0.289115 0.751880 0.039301
C82   C     C_R   0.083445 0.748591 0.279273 0.093105
C83   C     C_R   0.050710 0.705702 0.752021 0.065395
C84   C     C_R   0.060689 0.283161 0.260018 0.062582
C85   C     C_R   0.583528 0.751041 0.220941 0.091423
C86   C     C_R   0.548817 0.210694 0.747497 0.046396
C87   C     C_R   0.558878 0.214544 0.241892 0.061025
C88   C     C_R   0.551376 0.793721 0.749132 0.065900
C89   C     C_R   0.453235 0.743395 0.191157 -0.106170
C90   C     C_R   0.457845 0.258209 0.815118 -0.139525
C91   C     C_R   0.453027 0.257920 0.191931 -0.138178
C92   C     C_R   0.453970 0.745143 0.808262 -0.136858
C93   C     C_R   0.952335 0.244896 0.690900 -0.133823
C94   C     C_R   0.953178 0.756672 0.308964 -0.115161
C95   C     C_R   0.952388 0.753875 0.693940 -0.147049
C96   C     C_R   0.952294 0.241665 0.307535 -0.152176
C97   C     C_R   0.441855 0.719933 0.260501 0.044139
C98   C     C_R   0.470289 0.301861 0.770154 0.055727
C99   C     C_R   0.440428 0.281730 0.261170 0.068206
C100  C     C_R   0.445422 0.715652 0.743057 0.064254
C101  C     C_R   0.955092 0.205938 0.745564 0.049537
C102  C     C_R   0.942124 0.780201 0.239680 0.033574
C103  C     C_R   0.942192 0.781842 0.760683 0.063822
C104  C     C_R   0.938607 0.219601 0.237254 0.068922
C105  C     C_R   0.019862 0.201486 0.785631 -0.034039
C106  C     C_R   0.003469 0.795102 0.199524 -0.047570
C107  C     C_R   0.979047 0.766352 0.824426 -0.063971
C108  C     C_R   0.978726 0.236358 0.176097 -0.065308
C109  C     C_R   0.502906 0.704801 0.300930 -0.052335
C110  C     C_R   0.532600 0.301822 0.724607 -0.038625
C111  C     C_R   0.479228 0.265151 0.323162 -0.066492
C112  C     C_R   0.480885 0.731160 0.678614 -0.069671
C113  C     C_R   0.059184 0.247173 0.799467 -0.061533
C114  C     C_R   0.067352 0.765715 0.208098 -0.096007
C115  C     C_R   0.042452 0.736238 0.815818 -0.095313
C116  C     C_R   0.045999 0.261625 0.189373 -0.096832
C117  C     C_R   0.567251 0.733904 0.292110 -0.101947
C118  C     C_R   0.561059 0.253653 0.702628 -0.065199
C119  C     C_R   0.545357 0.238205 0.311284 -0.097675
C120  C     C_R   0.543161 0.762695 0.685665 -0.093296
C121  C     C_R   0.372704 0.707585 0.289220 -0.144995
C122  C     C_R   0.427622 0.346786 0.772213 -0.134910
C123  C     C_R   0.392512 0.323333 0.270017 -0.167356
C124  C     C_R   0.403031 0.670742 0.739878 -0.164978
C125  C     C_R   0.899009 0.170434 0.761819 -0.147972
C126  C     C_R   0.873280 0.793039 0.210838 -0.150108
C127  C     C_R   0.897038 0.825335 0.766270 -0.168549
C128  C     C_R   0.888441 0.179424 0.226468 -0.168932
C129  C     C_R   0.365508 0.669474 0.341402 -0.212998
C130  C     C_R   0.452040 0.391540 0.739999 -0.259132
C131  C     C_R   0.373064 0.341252 0.339212 -0.308042
C132  C     C_R   0.384686 0.648446 0.672931 -0.315352
C133  C     C_R   0.913836 0.126735 0.801939 -0.250610
C134  C     C_R   0.867036 0.831113 0.158436 -0.210902
C135  C     C_R   0.877809 0.845869 0.834063 -0.285618
C136  C     C_R   0.868899 0.163057 0.156610 -0.294243
C137  C     C_R   0.985525 0.115318 0.822367 0.481581
C138  C     C_R   0.929234 0.857698 0.135019 0.527605
C139  C     C_R   0.900674 0.822434 0.898678 0.456280
C140  C     C_R   0.896768 0.187612 0.094851 0.458205
C141  C     C_R   0.427141 0.642694 0.365364 0.528765
C142  C     C_R   0.521872 0.394343 0.709709 0.448705
C143  C     C_R   0.398836 0.316902 0.402034 0.458660
C144  C     C_R   0.405146 0.671792 0.607221 0.460398
C145  C     C_R   0.040263 0.152468 0.812169 -0.050383
C146  C     C_R   0.998880 0.839998 0.156248 -0.020567
C147  C     C_R   0.950965 0.781653 0.894438 -0.049756
C148  C     C_R   0.950830 0.225685 0.104080 -0.054544
C149  C     C_R   0.497227 0.660281 0.345174 -0.015963
C150  C     C_R   0.564148 0.349580 0.704232 -0.056632
C151  C     C_R   0.451117 0.277495 0.394529 -0.053632
C152  C     C_R   0.452564 0.714378 0.609570 -0.046433
H5    H     H_    0.101667 0.350501 0.816103 0.222618
H6    H     H_    0.201063 0.742883 0.263565 0.166439
H7    H     H_    0.119295 0.646375 0.799515 0.230921
H8    H     H_    0.141252 0.341533 0.230322 0.225845
H9    H     H_    0.701168 0.756108 0.236624 0.166243
H10   H     H_    0.595822 0.150037 0.679019 0.218117
H11   H     H_    0.635933 0.155213 0.275590 0.227277
H12   H     H_    0.619702 0.853127 0.701015 0.233145
H13   H     H_    0.120841 0.406654 0.713326 0.196639
H14   H     H_    0.230086 0.728287 0.389824 0.146972
H15   H     H_    0.147121 0.603556 0.685342 0.172525
H16   H     H_    0.186004 0.355997 0.352635 0.145739
H17   H     H_    0.730525 0.771784 0.110639 0.149067
H18   H     H_    0.613038 0.090476 0.778214 0.202132
H19   H     H_    0.678708 0.134653 0.154090 0.147686
H20   H     H_    0.646647 0.896962 0.814285 0.176674
H21   H     H_    0.508396 0.752013 0.049370 0.156703
H22   H     H_    0.513281 0.195292 0.928076 0.191005
H23   H     H_    0.520986 0.235391 0.061614 0.158798
H24   H     H_    0.515671 0.791724 0.932083 0.202945
H25   H     H_    0.014397 0.299978 0.571023 0.192288
H26   H     H_    0.007917 0.749095 0.450888 0.156079
H27   H     H_    0.015936 0.709298 0.569167 0.202892
H28   H     H_    0.020389 0.258394 0.438831 0.156140
H29   H     H_    0.323781 0.726275 0.271079 0.165321
H30   H     H_    0.375918 0.349750 0.798960 0.250663
H31   H     H_    0.372748 0.344242 0.223585 0.221790
H32   H     H_    0.385382 0.651563 0.788909 0.230683
H33   H     H_    0.842714 0.175445 0.747565 0.228822
H34   H     H_    0.823939 0.774702 0.228837 0.169379
H35   H     H_    0.877700 0.845176 0.718777 0.207012
H36   H     H_    0.866912 0.158069 0.271640 0.206662
H37   H     H_    0.869910 0.100332 0.813323 0.146890
H38   H     H_    0.813311 0.842232 0.139958 0.153795
H39   H     H_    0.841940 0.878683 0.836101 0.143346
H40   H     H_    0.829806 0.132257 0.150812 0.140667
H41   H     H_    0.311478 0.658485 0.359313 0.152868
H42   H     H_    0.418702 0.425386 0.743835 0.169793
H43   H     H_    0.335568 0.373057 0.343719 0.142477
H44   H     H_    0.351174 0.614389 0.672365 0.144273
H45   H     H_    0.994219 0.039010 0.012152 0.145835
H46   H     H_    0.000814 0.956157 0.945979 0.149420
H47   H     H_    0.507249 0.548462 0.580734 0.140565
H48   H     H_    0.492602 0.463180 0.523409 0.145907
C153  C     C_R   0.372921 0.043509 0.942809 -0.053196
C154  C     C_R   0.382912 0.957278 0.032344 -0.077280
C155  C     C_R   0.879271 0.542304 0.458683 -0.074716
C156  C     C_R   0.876560 0.456489 0.549433 -0.053648
C157  C     C_R   0.440767 0.020441 0.955033 -0.149378
C158  C     C_R   0.446323 0.980027 0.003926 -0.155486
C159  C     C_R   0.944752 0.519039 0.480619 -0.152400
C160  C     C_R   0.943339 0.478704 0.529956 -0.154887
C161  C     C_R   0.313968 0.975606 0.007842 -0.029822
C162  C     C_R   0.311532 0.025375 0.981855 -0.029580
C163  C     C_R   0.812015 0.474747 0.516369 -0.036720
C164  C     C_R   0.812580 0.524290 0.489482 -0.029326
C165  C     C_R   0.248648 0.946709 0.999003 -0.190064
C166  C     C_R   0.246601 0.053177 0.994741 -0.166908
C167  C     C_R   0.746089 0.446984 0.509932 -0.164485
C168  C     C_R   0.748468 0.553432 0.503155 -0.190697
C169  C     C_R   0.181947 0.973148 0.985292 0.058268
C170  C     C_R   0.179862 0.025532 0.001772 0.078271
C171  C     C_R   0.678796 0.474849 0.511025 0.086323
C172  C     C_R   0.683223 0.527704 0.524522 0.061224
C173  C     C_R   0.117386 0.950332 0.957050 -0.046981
C174  C     C_R   0.110839 0.047189 0.019213 -0.067137
C175  C     C_R   0.607617 0.453379 0.504104 -0.059454
C176  C     C_R   0.622156 0.552181 0.557522 -0.043889
C177  C     C_R   0.050220 0.974641 0.965052 -0.009909
C178  C     C_R   0.046626 0.021527 0.001031 -0.051382
C179  C     C_R   0.546158 0.480494 0.527037 -0.080641
C180  C     C_R   0.554107 0.528682 0.558073 -0.047844
H49   H     H_    0.489115 0.033527 0.926924 0.193097
H50   H     H_    0.499918 0.965912 0.018243 0.195071
H51   H     H_    0.996917 0.532740 0.460945 0.193130
H52   H     H_    0.994047 0.464961 0.552729 0.192608
C181  C     C_2   0.226601 0.449603 0.154254 0.994988
O53   O     O_2   0.188418 0.462869 0.206390 -0.593404
O54   O     O_R   0.284950 0.417571 0.169605 -0.747999
H53   H     H_    0.289136 0.409803 0.223752 0.322883
C182  C     C_2   0.211469 0.551167 0.850379 0.977752
O55   O     O_2   0.167579 0.538737 0.802656 -0.624850
O56   O     O_R   0.269639 0.581809 0.828769 -0.747232
H54   H     H_    0.267675 0.591320 0.775069 0.321742
C183  C     C_2   0.259277 0.551227 0.147884 1.011588
O57   O     O_2   0.240860 0.589335 0.183186 -0.557720
O58   O     O_R   0.319030 0.524535 0.174459 -0.768919
H55   H     H_    0.341398 0.540673 0.219989 0.363160
C184  C     C_2   0.245312 0.449554 0.853321 1.001059
O59   O     O_2   0.224523 0.411088 0.820352 -0.611204
O60   O     O_R   0.300776 0.477149 0.820205 -0.770025
H56   H     H_    0.312683 0.464501 0.768923 0.337590
C185  C     C_2   0.717351 0.949061 0.650077 0.983092
O61   O     O_2   0.675073 0.961370 0.699371 -0.627763
O62   O     O_R   0.776284 0.918461 0.669402 -0.745017
H57   H     H_    0.776407 0.909281 0.723261 0.325126
C186  C     C_2   0.724943 0.050455 0.346270 0.998614
O63   O     O_2   0.686163 0.036936 0.294783 -0.594295
O64   O     O_R   0.782535 0.083105 0.330013 -0.749973
H58   H     H_    0.785891 0.090931 0.275801 0.326275
C187  C     C_2   0.749947 0.050699 0.646513 0.994203
O65   O     O_2   0.728541 0.088298 0.681144 -0.609315
O66   O     O_R   0.808491 0.024438 0.676339 -0.759713
H59   H     H_    0.827032 0.039916 0.723932 0.345945
C188  C     C_2   0.756310 0.948353 0.351343 1.005815
O67   O     O_2   0.736471 0.910218 0.316884 -0.557250
O68   O     O_R   0.815691 0.974541 0.322662 -0.761423
H60   H     H_    0.836646 0.958029 0.276693 0.360272
C189  C     C_2   0.118656 0.137734 0.817220 0.971244
O69   O     O_2   0.137635 0.102106 0.855491 -0.563109
O70   O     O_R   0.170758 0.164160 0.776246 -0.816975
H61   H     H_    0.222179 0.151404 0.784638 0.375257
C190  C     C_2   0.064524 0.872807 0.144836 0.978139
O71   O     O_2   0.064980 0.905093 0.097069 -0.573934
O72   O     O_R   0.125603 0.867505 0.190054 -0.830866
H62   H     H_    0.166590 0.891710 0.176655 0.345530
C191  C     C_2   0.965298 0.750639 0.961121 0.981736
O73   O     O_2   0.959952 0.769723 0.022262 -0.575156
O74   O     O_R   0.983206 0.698985 0.953997 -0.838151
H63   H     H_    0.991306 0.682142 0.003140 0.352309
C192  C     C_2   0.970364 0.258256 0.040244 0.979828
O75   O     O_2   0.965538 0.241537 0.977591 -0.554801
O76   O     O_R   0.992592 0.308707 0.051784 -0.836383
H64   H     H_    0.004177 0.326848 0.004306 0.356851
C193  C     C_2   0.562287 0.627549 0.359229 0.979164
O77   O     O_2   0.562532 0.597643 0.410233 -0.560981
O78   O     O_R   0.623255 0.630557 0.313278 -0.831269
H65   H     H_    0.663902 0.606729 0.328588 0.346178
C194  C     C_2   0.644014 0.354725 0.691047 0.965741
O79   O     O_2   0.667236 0.388017 0.650863 -0.569574
O80   O     O_R   0.692937 0.322428 0.726739 -0.812972
H66   H     H_    0.745605 0.329474 0.713112 0.356712
C195  C     C_2   0.468421 0.245330 0.459396 0.982362
O81   O     O_2   0.463410 0.262876 0.521586 -0.550023
O82   O     O_R   0.488997 0.194383 0.449307 -0.835884
H67   H     H_    0.499387 0.176621 0.497324 0.352940
C196  C     C_2   0.463552 0.745565 0.542321 0.981765
O83   O     O_2   0.457129 0.726282 0.481438 -0.577459
O84   O     O_R   0.479883 0.797578 0.548750 -0.835327
H68   H     H_    0.486252 0.814506 0.499395 0.351851
C197  C     C_2   0.364562 0.078501 0.879729 0.957562
O85   O     O_2   0.413163 0.108340 0.864963 -0.581626
O86   O     O_R   0.302831 0.076926 0.834811 -0.778612
H69   H     H_    0.268924 0.047421 0.845680 0.328497
C198  C     C_2   0.390849 0.920779 0.094160 1.002879
O87   O     O_2   0.446208 0.895128 0.099162 -0.545019
O88   O     O_R   0.336773 0.915467 0.147784 -0.779270
H70   H     H_    0.295655 0.941013 0.143378 0.293821
C199  C     C_2   0.882061 0.579389 0.397182 0.993783
O89   O     O_2   0.936511 0.605543 0.388407 -0.548443
O90   O     O_R   0.824151 0.584558 0.347907 -0.783046
H71   H     H_    0.784172 0.558367 0.354854 0.291598
C200  C     C_2   0.873615 0.422035 0.613558 0.960131
O91   O     O_2   0.922275 0.391338 0.623139 -0.581024
O92   O     O_R   0.817027 0.424850 0.664904 -0.756789
H72   H     H_    0.783221 0.454876 0.657251 0.330606
C201  C     C_2   0.127662 0.447102 0.074524 0.969032
O93   O     O_2   0.073560 0.472177 0.061122 -0.539512
O94   O     O_R   0.116984 0.395831 0.093524 -0.779886
H73   H     H_    0.063582 0.386311 0.097218 0.380802
C202  C     C_2   0.121255 0.553393 0.940029 0.959383
O95   O     O_2   0.067680 0.528016 0.954670 -0.528882
O96   O     O_R   0.110378 0.605533 0.926993 -0.804125
H74   H     H_    0.057238 0.615849 0.930168 0.377086
C203  C     C_2   0.138797 0.557007 0.099761 1.011405
O97   O     O_2   0.117534 0.596536 0.072071 -0.617077
O98   O     O_R   0.101150 0.539396 0.161551 -0.713627
H75   H     H_    0.055619 0.559974 0.172944 0.369776
C204  C     C_2   0.130514 0.442831 0.913524 0.982127
O99   O     O_2   0.112526 0.403467 0.944029 -0.655448
O100  O     O_R   0.087021 0.459678 0.855359 -0.734670
H76   H     H_    0.040556 0.439050 0.849237 0.357966
C205  C     C_2   0.623830 0.946486 0.563300 0.960137
O101  O     O_2   0.570123 0.971634 0.548670 -0.530199
O102  O     O_R   0.612991 0.894448 0.577218 -0.804731
H77   H     H_    0.559969 0.883727 0.573611 0.374285
C206  C     C_2   0.627217 0.053086 0.427903 0.968312
O103  O     O_2   0.573264 0.028149 0.442705 -0.536547
O104  O     O_R   0.616451 0.104436 0.409431 -0.786012
H78   H     H_    0.563111 0.114448 0.408567 0.379195
C207  C     C_2   0.633220 0.056696 0.589294 0.985761
O105  O     O_2   0.613953 0.095811 0.559030 -0.656077
O106  O     O_R   0.590974 0.039362 0.648183 -0.741498
H79   H     H_    0.543717 0.059021 0.654477 0.356929
C208  C     C_2   0.637185 0.943077 0.403060 1.011879
O107  O     O_2   0.616681 0.903492 0.431280 -0.619630
O108  O     O_R   0.598013 0.960676 0.342328 -0.711973
H80   H     H_    0.552158 0.940105 0.332249 0.370170
C209  C     C_2   0.378137 0.445439 0.067690 1.022679
O109  O     O_2   0.384338 0.398825 0.070800 -0.637384
O110  O     O_R   0.417001 0.473556 0.119898 -0.714338
H81   H     H_    0.442492 0.451549 0.157470 0.356487
C210  C     C_2   0.372080 0.555127 0.922011 1.034743
O111  O     O_2   0.379926 0.601599 0.918666 -0.642672
O112  O     O_R   0.404255 0.526694 0.865603 -0.725965
H82   H     H_    0.426847 0.548467 0.825859 0.344946
C211  C     C_2   0.391755 0.556978 0.046173 0.982737
O113  O     O_2   0.376223 0.593724 0.084760 -0.620544
O114  O     O_R   0.465711 0.543671 0.039911 -0.714195
H83   H     H_    0.498319 0.564386 0.073854 0.359992
C212  C     C_2   0.387860 0.444638 0.942864 0.984885
O115  O     O_2   0.369159 0.408753 0.904460 -0.649562
O116  O     O_R   0.462054 0.458077 0.943167 -0.718170
H84   H     H_    0.491765 0.437970 0.905880 0.356702
C213  C     C_2   0.874684 0.943552 0.571393 1.021893
O117  O     O_2   0.899566 0.967778 0.622846 -0.524393
O118  O     O_R   0.888298 0.890722 0.570257 -0.805031
H85   H     H_    0.920535 0.879219 0.612006 0.336695
C214  C     C_2   0.876496 0.056526 0.430723 1.014824
O119  O     O_2   0.902980 0.032356 0.380029 -0.521299
O120  O     O_R   0.888910 0.109532 0.431532 -0.805321
H86   H     H_    0.918065 0.121719 0.387777 0.342340
C215  C     C_2   0.890044 0.055545 0.555181 0.987429
O121  O     O_2   0.953909 0.041506 0.555733 -0.542993
O122  O     O_R   0.872229 0.098569 0.597218 -0.780444
H87   H     H_    0.914396 0.111432 0.628227 0.345695
C216  C     C_2   0.891366 0.944309 0.447329 0.980495
O123  O     O_2   0.955115 0.958659 0.447723 -0.541007
O124  O     O_R   0.874927 0.900446 0.406397 -0.781370
H88   H     H_    0.917470 0.887690 0.375708 0.346178
O125  O     O_3   0.003031 0.068315 0.851065 -0.736108
H89   H     H_    0.958391 0.046972 0.853521 0.323666
O126  O     O_3   0.922999 0.900944 0.092722 -0.725279
H90   H     H_    0.870612 0.908844 0.085518 0.331761
O127  O     O_3   0.873337 0.838006 0.965850 -0.735826
H91   H     H_    0.837856 0.866065 0.958545 0.325101
O128  O     O_3   0.871472 0.175317 0.025498 -0.719551
H92   H     H_    0.833575 0.148412 0.029230 0.325878
O129  O     O_3   0.419966 0.599250 0.407131 -0.717257
H93   H     H_    0.367418 0.591441 0.413600 0.333694
O130  O     O_3   0.550899 0.440652 0.688639 -0.734916
H94   H     H_    0.514477 0.468041 0.697405 0.326628
O131  O     O_3   0.373214 0.330704 0.470731 -0.721110
H95   H     H_    0.336614 0.358325 0.465768 0.325592
O132  O     O_3   0.378262 0.654326 0.540880 -0.727631
H96   H     H_    0.345141 0.625021 0.549471 0.326834
O133  O     O_3   0.636504 0.766813 0.998660 -0.768781
H97   H     H_    0.689751 0.772263 0.992975 0.347633
O134  O     O_3   0.580647 0.109409 0.919791 -0.744684
H98   H     H_    0.609522 0.079583 0.902619 0.320389
O135  O     O_3   0.630015 0.177246 0.029497 -0.735299
H99   H     H_    0.672800 0.154160 0.031916 0.344416
O136  O     O_3   0.596829 0.870277 0.947348 -0.734043
H100  H     H_    0.631450 0.898745 0.938914 0.323754
O137  O     O_3   0.085099 0.384775 0.573366 -0.742983
H101  H     H_    0.114864 0.414713 0.588468 0.320243
O138  O     O_3   0.135938 0.734730 0.501794 -0.767716
H102  H     H_    0.189138 0.729138 0.507543 0.347738
O139  O     O_3   0.097883 0.631314 0.552648 -0.735515
H103  H     H_    0.132805 0.603009 0.560628 0.324988
O140  O     O_3   0.134841 0.310451 0.474181 -0.736923
H104  H     H_    0.179632 0.331709 0.473032 0.349225

loop_
_geom_bond_atom_site_label_1
_geom_bond_atom_site_label_2
_geom_bond_distance
_ccdc_geom_bond_type
H4    C176  1.079255 S    
O116  H84   1.014350 S    
C195  O81   1.222906 D    
C136  H40   1.083117 S    
C126  C134  1.393138 A    
C212  O115  1.215830 D    
C154  C158  1.406746 A    
C142  O130  1.382004 S    
O132  H96   0.991893 S    
C190  O71   1.220288 D    
C132  H44   1.082685 S    
C53   H17   1.082023 S    
C189  O69   1.222020 D    
O26   C7    1.292515 A    
C44   H8    1.078916 S    
C99   C111  1.408983 A    
C205  O102  1.402872 S    
O30   C11   1.292527 A    
C203  O98   1.402685 S    
C123  C131  1.388331 A    
C121  C129  1.392232 A    
C76   C88   1.408365 A    
C77   C81   1.394035 A    
Zn12  O26   1.936005 S    
C142  C150  1.408567 A    
C29   C31   1.634358 S    
C145  C189  1.491580 S    
C80   C84   1.405463 A    
C70   H26   1.077202 S    
C139  O127  1.381085 S    
C8    C94   1.482627 S    
C10   C114  1.484392 S    
C30   C206  1.563360 S    
C79   C83   1.408223 A    
C124  C132  1.389705 A    
C47   H11   1.079112 S    
C65   H21   1.076515 S    
C71   C79   1.420083 A    
C134  H38   1.082439 S    
C209  O110  1.393995 S    
O11   C7    1.289458 A    
C130  H42   1.078792 S    
C141  O129  1.381826 S    
C194  O80   1.399090 S    
C159  H51   1.083252 S    
O34   C15   1.298272 A    
C25   C201  1.562620 S    
C94   C102  1.426300 A    
C43   C51   1.389986 A    
C109  C149  1.428426 A    
O134  H98   0.991923 S    
C99   C123  1.408054 A    
C147  C191  1.493051 S    
Zn1   O44   1.967404 S    
C2    C92   1.488879 S    
Zn2   O43   1.967403 S    
C97   C121  1.409769 A    
C140  C148  1.414395 A    
O137  H101  0.991866 S    
C173  C177  1.393502 A    
Zn5   O48   1.967404 S    
C68   H24   1.076014 S    
Zn6   O47   1.967403 S    
C175  C179  1.393927 A    
C156  C200  1.485367 S    
C144  C152  1.413933 A    
Zn7   O46   1.976734 S    
C43   H7    1.077935 S    
O16   C12   1.275888 A    
C73   C85   1.420263 A    
H3    C175  1.073251 S    
O54   H53   1.013366 S    
C136  C140  1.398690 A    
Zn12  O4    1.960070 S    
C29   C185  1.571914 S    
C7    C93   1.471035 S    
C130  C142  1.395960 A    
C26   C28   1.635951 S    
C13   C117  1.485289 S    
Zn4   O16   1.936233 S    
C36   C215  1.554699 S    
C74   C90   1.425680 A    
C50   H14   1.082218 S    
C144  O132  1.380627 S    
C201  O93   1.216421 D    
C46   C86   1.415489 A    
C56   H20   1.082572 S    
O94   H73   1.012421 S    
C54   H18   1.082129 S    
O140  H104  0.992072 S    
C204  O99   1.221467 D    
C131  C143  1.399787 A    
C58   O134  1.378318 S    
C3    C89   1.485345 S    
C107  C147  1.429952 A    
C33   C209  1.570046 S    
C105  C145  1.426960 A    
O90   H71   1.012218 S    
C28   C37   1.669507 S    
O36   C13   1.283503 A    
Zn10  O22   1.936005 S    
C137  C145  1.410714 A    
C83   C115  1.413340 A    
C207  O105  1.221290 D    
O25   C8    1.295179 A    
Zn13  O29   1.928642 S    
C127  H35   1.075268 S    
C73   C89   1.434806 A    
Zn10  O2    1.960070 S    
C79   C95   1.429699 A    
O29   C12   1.299196 A    
Zn15  O33   1.928642 S    
O125  H89   0.991942 S    
C55   C59   1.398427 A    
C44   C84   1.419007 A    
C26   C202  1.561769 S    
O70   H61   1.012724 S    
C52   H16   1.083211 S    
C34   C211  1.552277 S    
C53   C57   1.396876 A    
C57   C65   1.398779 A    
C32   C39   1.670213 S    
C47   C87   1.418091 A    
C186  O63   1.227644 D    
O5    C1    1.283259 A    
O82   H67   1.014165 S    
C48   C88   1.416864 A    
O37   C17   1.291066 A    
C110  C118  1.419502 A    
O48   C23   1.272719 A    
C208  O107  1.221033 D    
C197  O85   1.216481 D    
C42   C82   1.410303 A    
C202  O96   1.402974 S    
C32   C208  1.564178 S    
C84   C116  1.427151 A    
C193  O77   1.222175 D    
C57   O133  1.378377 S    
C33   C34   1.652545 S    
O112  H82   1.014679 S    
Zn16  O35   1.933959 S    
C48   H12   1.076532 S    
C206  O103  1.216452 D    
O133  H97   0.991935 S    
C82   C114  1.409375 A    
C29   C205  1.564521 S    
Zn7   O10   1.936187 S    
H46   C177  1.082777 S    
C154  C161  1.426296 A    
C86   C118  1.415598 A    
C184  O60   1.388315 S    
O102  H77   1.013606 S    
C78   C94   1.434735 A    
C169  C173  1.420357 A    
C187  O66   1.389628 S    
C19   C168  1.459740 S    
C50   C62   1.397180 A    
C151  C195  1.493838 S    
C182  O56   1.393132 S    
Zn5   O17   1.934322 S    
C146  C190  1.493811 S    
C69   H25   1.078417 S    
C35   C36   1.659978 S    
C122  H30   1.068109 S    
C101  C105  1.400557 A    
C67   H23   1.082078 S    
C61   O137  1.378721 S    
C126  H34   1.076346 S    
C63   C71   1.395718 A    
Zn15  O51   1.973073 S    
C25   C27   1.636133 S    
C161  C162  1.392274 A    
C98   C110  1.411717 A    
C135  C139  1.399136 A    
C188  O68   1.390704 S    
C137  O125  1.380786 S    
O28   C5    1.289288 A    
C141  C149  1.414273 A    
C127  C135  1.388620 A    
C210  O112  1.394572 S    
O135  H99   0.992050 S    
C189  O70   1.399192 S    
C183  O58   1.390325 S    
Zn8   O3    1.944488 S    
C30   C40   1.674935 S    
C101  C125  1.418859 A    
C76   C92   1.428485 A    
C176  C180  1.390733 A    
C77   C93   1.428836 A    
O38   C18   1.282552 A    
C51   C63   1.395751 A    
C106  C114  1.411657 A    
O32   C9    1.290879 A    
C177  C178  1.388066 A    
C134  C138  1.403977 A    
O118  H85   1.012819 S    
C163  C164  1.391860 A    
C135  H39   1.082905 S    
C124  H32   1.079337 S    
C12   C116  1.482601 S    
Zn11  O28   1.930081 S    
C103  C127  1.411462 A    
C128  H36   1.075013 S    
C182  O55   1.227396 D    
C163  C167  1.414397 A    
O56   H54   1.013759 S    
C92   C100  1.420300 A    
C27   C203  1.565039 S    
O8    C4    1.298538 A    
C95   C103  1.426559 A    
Zn9   O1    1.961538 S    
C96   C104  1.423243 A    
O131  H95   0.991982 S    
C102  C106  1.398858 A    
C1    C91   1.487082 S    
C174  C178  1.393810 A    
C35   C39   1.657926 S    
O50   C18   1.276808 A    
C149  C193  1.493347 S    
C74   C86   1.395800 A    
C139  C147  1.413008 A    
C132  C144  1.401592 A    
Zn1   O1    1.963287 S    
Zn13  O1    1.959774 S    
Zn2   O14   1.932770 S    
C72   C80   1.415989 A    
C75   C91   1.411487 A    
C205  O101  1.216419 D    
C66   C74   1.419287 A    
C45   H9    1.076685 S    
O9    C5    1.294245 A    
O39   C19   1.281714 A    
C148  C192  1.493413 S    
C157  H49   1.080750 S    
C200  O92   1.398309 S    
C59   C67   1.395573 A    
C140  O128  1.382647 S    
O128  H92   0.991968 S    
C104  C108  1.409045 A    
C41   C49   1.391388 A    
Zn1   O8    1.932726 S    
C128  C136  1.387579 A    
O127  H91   0.991905 S    
Zn2   O7    1.934279 S    
C4    C90   1.481791 S    
Zn3   O6    1.936187 S    
O18   C14   1.280306 A    
O31   C10   1.285902 A    
C45   C53   1.388168 A    
O6    C2    1.295792 A    
C215  O121  1.227578 D    
C25   C37   1.672220 S    
C198  O88   1.399687 S    
C47   C55   1.391762 A    
C55   H19   1.083234 S    
C209  O109  1.228159 D    
C125  C133  1.391835 A    
C159  C160  1.394863 A    
O58   H55   1.014803 S    
C6    C96   1.483983 S    
C194  O79   1.220821 D    
O92   H72   1.012553 S    
Zn14  O30   1.930334 S    
Zn15  O3    1.959774 S    
C196  O84   1.398372 S    
Zn11  O3    1.961538 S    
C211  O113  1.220234 D    
O41   C21   1.276905 A    
C172  C176  1.420721 A    
C15   C119  1.485227 S    
Zn16  O34   1.930334 S    
C199  O90   1.399316 S    
C29   C39   1.669202 S    
C216  O124  1.396639 S    
C107  C115  1.412968 A    
C54   C58   1.398195 A    
O88   H70   1.012138 S    
C122  C130  1.390008 A    
C105  C113  1.417109 A    
Zn8   O20   1.936233 S    
C185  O62   1.393490 S    
C27   C183  1.585992 S    
C153  C197  1.486308 S    
C108  C116  1.419082 A    
C190  O72   1.399280 S    
C109  C117  1.413886 A    
O78   H65   1.013651 S    
C30   C186  1.571987 S    
C214  O120  1.406585 S    
O84   H68   1.014069 S    
C112  C120  1.413844 A    
C192  O76   1.396483 S    
C91   C99   1.421515 A    
C35   C216  1.555804 S    
Zn6   O11   1.934279 S    
C215  O122  1.395302 S    
C75   C87   1.406925 A    
O60   H56   1.012741 S    
C195  O82   1.397278 S    
Zn8   O9    1.938615 S    
C212  O116  1.404730 S    
O129  H93   0.991838 S    
C104  C128  1.409454 A    
C160  H52   1.081997 S    
C181  O54   1.390473 S    
C165  C169  1.429312 A    
C110  C150  1.430046 A    
C170  C174  1.421525 A    
C167  C171  1.433897 A    
O126  H90   0.991777 S    
C87   C119  1.425147 A    
C168  C172  1.428179 A    
C88   C120  1.415692 A    
O76   H64   1.014165 S    
C98   C122  1.413593 A    
C52   C64   1.398300 A    
C24   C40   1.509186 S    
Zn13  O49   1.973073 S    
C213  O117  1.216504 D    
C26   C38   1.668037 S    
Zn9   O24   1.930081 S    
O64   H58   1.013625 S    
C143  C151  1.414600 A    
Zn10  O23   1.928392 S    
O122  H87   1.013758 S    
C169  C170  1.402121 A    
O7    C3    1.292965 A    
C62   C70   1.398738 A    
C65   C73   1.418723 A    
O72   H62   1.014014 S    
C90   C98   1.431746 A    
C156  C160  1.402010 A    
Zn15  O36   1.936258 S    
O49   C17   1.269486 A    
C31   C207  1.561842 S    
C129  C141  1.402961 A    
C33   C212  1.546455 S    
C51   H15   1.082580 S    
Zn4   O1    1.944488 S    
C155  C164  1.426859 A    
C49   H13   1.082545 S    
C17   C166  1.464522 S    
C58   C66   1.398316 A    
Zn9   O37   1.972300 S    
C80   C96   1.408044 A    
C63   O139  1.379791 S    
C179  C180  1.385640 A    
Zn11  O39   1.972300 S    
O33   C16   1.292833 A    
C202  O95   1.216448 D    
O130  H94   0.992085 S    
C161  C165  1.424565 A    
O19   C15   1.278322 A    
C44   C52   1.392116 A    
O51   C19   1.276537 A    
C106  C146  1.425444 A    
C181  O53   1.227674 D    
C27   C38   1.673546 S    
O100  H76   1.014046 S    
C48   C56   1.390104 A    
Zn5   O3    1.963287 S    
C60   C68   1.395127 A    
Zn6   O4    1.963286 S    
C32   C188  1.588276 S    
C61   C69   1.399684 A    
C153  C157  1.402280 A    
C70   C78   1.418633 A    
C158  H50   1.083219 S    
O66   H59   1.013286 S    
C64   C72   1.395285 A    
O68   H60   1.014785 S    
C184  O59   1.228630 D    
C60   O136  1.379804 S    
C33   C37   1.662909 S    
C71   H27   1.075963 S    
C187  O65   1.228897 D    
O40   C20   1.295135 A    
O62   H57   1.013714 S    
Zn3   O42   1.976734 S    
C36   C40   1.657219 S    
Zn7   O4    1.944490 S    
O21   C4    1.289395 A    
O108  H80   1.014119 S    
C201  O94   1.403765 S    
C62   O138  1.378323 S    
O74   H63   1.014149 S    
Zn2   O2    1.963286 S    
C9    C113  1.452407 S    
C188  O67   1.229686 D    
Zn14  O2    1.961242 S    
O104  H78   1.012819 S    
O138  H102  0.992214 S    
Zn6   O18   1.932770 S    
C68   C76   1.419948 A    
C210  O111  1.227647 D    
C69   C77   1.420006 A    
O98   H75   1.014138 S    
C133  H37   1.082357 S    
C183  O57   1.229552 D    
C155  C159  1.407011 A    
C204  O100  1.402834 S    
C67   C75   1.416261 A    
C11   C115  1.485074 S    
C25   C181  1.572035 S    
C129  H41   1.082340 S    
Zn12  O27   1.928392 S    
C197  O86   1.398241 S    
H1    C173  1.078824 S    
C131  H43   1.082869 S    
C207  O106  1.402526 S    
C42   H6    1.076591 S    
C93   C101  1.434756 A    
C5    C95   1.492481 S    
C21   C37   1.511944 S    
Zn3   O2    1.944490 S    
C23   C39   1.506675 S    
C191  O74   1.397139 S    
C41   H5    1.077527 S    
O23   C2    1.285537 A    
O80   H66   1.014018 S    
C186  O64   1.391765 S    
C26   C182  1.573003 S    
C123  H31   1.076477 S    
O47   C24   1.278782 A    
O106  H79   1.013992 S    
Zn11  O25   1.933710 S    
Zn16  O52   1.972342 S    
C121  H29   1.076200 S    
C208  O108  1.402807 S    
C66   H22   1.079140 S    
Zn16  O4    1.961242 S    
Zn8   O45   1.976734 S    
H2    C174  1.076572 S    
O27   C6    1.298731 A    
C125  H33   1.073075 S    
C193  O78   1.398928 S    
C14   C118  1.457571 S    
C185  O61   1.227189 D    
C56   C60   1.395347 A    
Zn1   O13   1.934322 S    
C206  O104  1.403943 S    
C36   C214  1.565297 S    
C213  O118  1.406155 S    
C102  C126  1.410145 A    
O24   C1    1.296185 A    
C45   C85   1.410321 A    
O136  H100  0.991866 S    
O114  H83   1.014175 S    
C103  C107  1.408748 A    
O139  H103  0.991868 S    
C155  C199  1.492026 S    
O46   C24   1.277018 A    
O43   C22   1.274685 A    
O14   C10   1.300467 A    
Zn4   O41   1.976734 S    
Zn3   O15   1.938661 S    
O86   H69   1.012392 S    
O42   C22   1.279134 A    
C100  C112  1.405957 A    
O110  H81   1.014589 S    
C133  C137  1.399840 A    
C152  C196  1.493910 S    
C97   C109  1.400729 A    
Zn9   O21   1.933710 S    
C157  C158  1.394844 A    
Zn14  O50   1.972342 S    
Zn5   O12   1.932726 S    
O13   C9    1.279723 A    
C64   O140  1.377663 S    
O35   C14   1.294668 A    
C200  O91   1.215371 D    
Zn12  O40   1.973031 S    
C111  C151  1.433433 A    
C166  C170  1.427537 A    
C156  C163  1.414543 A    
C72   H28   1.082414 S    
C171  C172  1.405910 A    
C162  C166  1.414129 A    
O52   C20   1.268443 A    
C171  C175  1.425752 A    
C108  C148  1.434893 A    
C22   C38   1.505616 S    
C20   C167  1.470817 S    
C28   C204  1.562283 S    
C198  O87   1.221575 D    
C34   C38   1.661188 S    
C34   C210  1.573984 S    
C112  C152  1.427775 A    
O44   C21   1.279995 A    
O22   C3    1.294879 A    
C150  C194  1.489749 S    
C43   C83   1.416279 A    
Zn7   O19   1.938661 S    
C143  O131  1.382417 S    
C164  C168  1.422375 A    
C41   C81   1.416023 A    
C111  C119  1.418602 A    
C59   O135  1.377627 S    
Zn13  O32   1.936258 S    
O15   C11   1.283543 A    
Zn14  O31   1.933959 S    
C138  O126  1.381776 S    
C154  C198  1.492868 S    
C35   C213  1.565587 S    
C196  O83   1.221024 D    
C30   C32   1.637700 S    
C138  C146  1.414495 A    
H48   C179  1.082988 S    
O20   C16   1.283327 A    
C89   C97   1.426801 A    
O124  H88   1.014329 S    
C199  O89   1.221515 D    
Zn4   O5    1.938615 S    
C31   C187  1.584994 S    
C216  O123  1.227371 D    
C203  O97   1.220892 D    
C81   C113  1.415807 A    
C46   H10   1.077097 S    
C31   C40   1.665384 S    
H45   C178  1.082716 S    
O10   C6    1.278672 A    
C18   C165  1.461033 S    
C153  C162  1.415503 A    
C16   C120  1.484596 S    
H47   C180  1.082939 S    
Zn10  O38   1.973031 S    
C85   C117  1.409322 A    
C100  C124  1.410018 A    
O120  H86   1.014090 S    
C42   C50   1.388457 A    
O45   C23   1.281832 A    
C211  O114  1.404411 S    
C214  O119  1.216160 D    
C78   C82   1.420090 A    
C191  O73   1.221304 D    
C46   C54   1.392094 A    
C49   C61   1.398321 A    
C192  O75   1.222897 D    
O17   C13   1.301544 A    
C28   C184  1.583148 S    
O96   H74   1.012621 S    
O12   C8    1.293029 A    
