data_mof_unit_pretest_969.cif
_audit_creation_date              2012-12-10T17:05:13-0500
_audit_creation_method            fapswitch 2.2
_symmetry_space_group_name_H-M    P1
_symmetry_Int_Tables_number       1
_space_group_crystal_system       triclinic
_cell_length_a                    10.781715
_cell_length_b                    11.027767
_cell_length_c                    9.93418
_cell_angle_alpha                 111.886267
_cell_angle_beta                  95.907242
_cell_angle_gamma                 94.477044
_cell_volume                      1081.49768909

loop_
_atom_site_label
_atom_site_type_symbol
_atom_type_description
_atom_site_fract_x
_atom_site_fract_y
_atom_site_fract_z
_atom_type_partial_charge
C1    C     C_R   0.492107 0.253861 0.439363 0.914445
C2    C     C_3   0.874568 0.488594 0.489884 -0.153847
C3    C     C_3   0.942102 0.627361 0.592459 -0.426558
C4    C     C_3   0.909278 0.457558 0.331039 0.208956
C5    C     C_2   0.488012 0.112891 0.404826 -0.273047
C6    C     C_2   0.525883 0.072130 0.511354 -0.038815
C7    C     C_2   0.522089 0.889682 0.598457 0.238407
C8    C     C_2   0.509971 0.932820 0.487849 -0.249373
C9    C     C_2   0.506407 0.520478 0.085806 -0.109533
C10   C     C_2   0.481543 0.496663 0.926512 0.458519
C11   C     C_R   0.260050 0.501151 0.501454 0.876896
C12   C     C_R   0.510490 0.746873 0.561095 0.716383
C13   C     C_R   0.738176 0.493462 0.495381 0.827596
C14   C     C_3   0.066594 0.388172 0.546834 0.080764
C15   C     C_3   0.923509 0.384071 0.546740 0.055257
C16   C     C_3   0.083742 0.636954 0.584525 0.077672
C17   C     C_3   0.053785 0.461176 0.336046 -0.422229
C18   C     C_3   0.120302 0.497512 0.496652 -0.135952
Cu1   Cu    Cu3+1 0.522160 0.521810 0.644910 1.106822
Cu2   Cu    Cu3+1 0.477840 0.478190 0.355090 1.036151
H1    H     H_    0.110189 0.408741 0.657920 0.266949
H2    H     H_    0.882251 0.539348 0.298603 0.134654
H3    H     H_    0.103823 0.700262 0.522352 0.148204
H4    H     H_    0.902091 0.704679 0.560800 0.165416
H5    H     H_    0.486307 0.863226 0.374851 0.170117
H6    H     H_    0.567123 0.143826 0.618290 0.244539
H7    H     H_    0.450503 0.043100 0.294959 0.180940
H8    H     H_    0.564771 0.609552 0.160633 0.143312
H9    H     H_    0.639858 0.604532 0.924378 0.203494
H10   H     H_    0.430768 0.347137 0.070427 0.258832
H11   H     H_    0.876147 0.285154 0.473383 0.209738
H12   H     H_    0.925839 0.648674 0.707322 0.273341
H13   H     H_    0.088121 0.534979 0.292062 0.190347
H14   H     H_    0.081194 0.367059 0.262829 0.278599
N1    N     N_2   0.444530 0.445420 0.137360 -0.233045
N2    N     N_2   0.555520 0.554510 0.862630 -0.309956
O1    O     O_R   0.511820 0.332340 0.577400 -0.543682
O2    O     O_R   0.474400 0.295500 0.332650 -0.551989
O3    O     O_R   0.336400 0.518400 0.622370 -0.480357
O4    O     O_R   0.298980 0.481560 0.377620 -0.571654
O5    O     O_R   0.525600 0.704500 0.667350 -0.520006
O6    O     O_R   0.488180 0.667660 0.422600 -0.611265
O7    O     O_R   0.701020 0.518440 0.622380 -0.551962
O8    O     O_R   0.663600 0.481600 0.377630 -0.564782
S1    S     S_3+6 0.556211 0.000139 0.786243 0.043316
O9    O     O_2   0.687744 0.068584 0.812877 -0.195138
O10   O     O_2   0.466537 0.101887 0.818161 -0.331235
O11   O     O_3   0.546273 0.922471 0.902637 -0.460898
H15   H     H_    0.455219 0.906184 0.905959 0.376341
S2    S     S_3+6 0.324692 0.418475 0.847607 0.060103
O12   O     O_2   0.251006 0.530063 0.858366 -0.231765
O13   O     O_2   0.317927 0.323585 0.692471 -0.283317
O14   O     O_3   0.248275 0.336312 0.933926 -0.493736
H16   H     H_    0.252816 0.241698 0.877815 0.391462
Br1   Br    Br    0.107012 0.212481 0.429006 -0.387712
Br2   Br    Br    0.886573 0.399458 0.742126 -0.344272
Br3   Br    Br    0.178433 0.741862 0.776490 -0.397232
S3    S     S_3+6 0.825696 0.307356 0.186774 0.088016
O15   O     O_2   0.913543 0.213888 0.109677 -0.163827
O16   O     O_2   0.735620 0.235235 0.245675 -0.302677
O17   O     O_3   0.744412 0.352145 0.062653 -0.479962
H17   H     H_    0.661074 0.298286 0.036545 0.394236

loop_
_geom_bond_atom_site_label_1
_geom_bond_atom_site_label_2
_ccdc_geom_bond_type
C3    H12   S    
Cu2   O6    S    
C11   C18   S    
C15   H11   S    
C12   O5    A    
C2    C15   S    
C4    H2    S    
C9    C10   S    
C14   C18   S    
S2    O13   D    
Cu1   Cu2   S    
C1    O1    A    
Cu1   N2    S    
C15   Br2   S    
S3    O17   S    
C17   C18   S    
C7    C8    D    
C5    H7    S    
O14   H16   S    
C11   O3    A    
C8    H5    S    
H9    N2    S    
C3    H4    S    
C6    H6    S    
C17   H13   S    
C1    O2    A    
C1    C5    S    
C2    C4    S    
H10   N1    S    
C14   H1    S    
C16   C18   S    
O11   H15   S    
Cu2   O8    S    
Cu1   O7    S    
C14   Br1   S    
C16   H3    S    
C2    C3    S    
C16   Br3   S    
S1    O10   D    
O17   H17   S    
Cu2   O4    S    
C9    N1    D    
C7    C12   S    
S2    O14   S    
C17   H14   S    
C4    C17   S    
C12   O6    A    
C11   O4    A    
C10   S2    S    
C7    S1    S    
C13   O7    A    
Cu2   O2    S    
Cu1   O3    S    
S1    O11   S    
C4    S3    S    
C5    C6    D    
C2    C13   S    
C14   C15   S    
C6    C8    S    
Cu1   O1    S    
S2    O12   D    
S3    O15   D    
S1    O9    D    
Cu2   N1    S    
S3    O16   D    
C13   O8    A    
C3    C16   S    
Cu1   O5    S    
C9    H8    S    
C10   N2    D    
