data_mof_unit_pretest_1374.cif
_audit_creation_date              2012-12-10T20:49:10-0500
_audit_creation_method            fapswitch 2.2
_symmetry_space_group_name_H-M    P1
_symmetry_Int_Tables_number       1
_space_group_crystal_system       triclinic
_cell_length_a                    9.085302
_cell_length_b                    8.170013
_cell_length_c                    10.590499
_cell_angle_alpha                 88.907653
_cell_angle_beta                  93.153301
_cell_angle_gamma                 89.504707
_cell_volume                      784.731495509

loop_
_atom_site_label
_atom_site_type_symbol
_atom_type_description
_atom_site_fract_x
_atom_site_fract_y
_atom_site_fract_z
_atom_type_partial_charge
C1    C     C_R   0.217875 0.500457 0.498215 0.912321
C2    C     C_3   0.635078 0.533496 0.057778 0.083415
C3    C     C_3   0.516745 0.498134 0.878136 -0.186863
C4    C     C_3   0.488908 0.506506 0.121419 -0.164065
C5    C     C_1   0.064754 0.500536 0.496945 -0.205296
C6    C     C_1   0.934901 0.499383 0.497020 -0.195353
C7    C     C_3   0.238293 0.433066 0.850764 -0.341298
C8    C     C_3   0.091019 0.426872 0.911587 -0.368084
C9    C     C_3   0.967994 0.474441 0.813653 -0.934094
C10   C     C_3   0.783334 0.566008 0.131016 -0.417862
C11   C     C_3   0.791621 0.732092 0.197295 -0.339372
C12   C     C_R   0.781994 0.499537 0.499311 0.912017
C13   C     C_3   0.949460 0.788743 0.221185 -0.924168
C14   C     C_3   0.299004 0.755602 0.062016 -0.390848
C15   C     C_3   0.214768 0.838896 0.948571 -0.900249
C16   C     C_3   0.691516 0.236949 0.937408 -0.387020
C17   C     C_3   0.791486 0.169542 0.047286 -0.900893
C18   C     C_3   0.598208 0.815900 0.907771 -0.374961
C19   C     C_3   0.749530 0.815578 0.851887 -0.875205
C20   C     C_3   0.388611 0.194209 0.082928 -0.372834
C21   C     C_3   0.254257 0.213784 0.163740 -0.831133
C22   C     C_R   0.487433 0.502007 0.256713 0.898908
C23   C     C_R   0.519750 0.498687 0.742648 0.869966
C24   C     C_3   0.405941 0.622370 0.023762 0.083530
C25   C     C_3   0.598448 0.382771 0.974691 0.071979
C26   C     C_3   0.552453 0.648292 0.959246 0.150233
C27   C     C_3   0.451855 0.357797 0.038959 0.126790
C28   C     C_3   0.370379 0.472415 0.941315 0.063918
H1    H     H_    0.992710 0.589841 0.762440 0.263992
H2    H     H_    0.951735 0.897055 0.283041 0.269485
H3    H     H_    0.730594 0.828782 0.143117 0.230033
H4    H     H_    0.742551 0.723446 0.289063 0.273773
H5    H     H_    0.804650 0.467474 0.203523 0.194773
H6    H     H_    0.870999 0.559305 0.064002 0.216408
H7    H     H_    0.289911 0.893360 0.881485 0.250874
H8    H     H_    0.142650 0.752938 0.896585 0.280996
H9    H     H_    0.143177 0.938076 0.980838 0.239901
H10   H     H_    0.220304 0.698546 0.125159 0.197328
H11   H     H_    0.361712 0.848343 0.117203 0.219758
H12   H     H_    0.951912 0.374905 0.744548 0.271194
H13   H     H_    0.877018 0.259069 0.075261 0.255594
H14   H     H_    0.727401 0.139181 0.130497 0.262499
H15   H     H_    0.849485 0.058031 0.018071 0.261672
H16   H     H_    0.613830 0.143527 0.902315 0.206876
H17   H     H_    0.756748 0.265750 0.855668 0.214863
H18   H     H_    0.751983 0.729912 0.772398 0.273858
H19   H     H_    0.773048 0.938967 0.813018 0.253289
H20   H     H_    0.837479 0.782967 0.924570 0.265925
H21   H     H_    0.517264 0.860235 0.832938 0.227601
H22   H     H_    0.593611 0.903719 0.984976 0.187631
H23   H     H_    0.864997 0.496415 0.860580 0.256977
H24   H     H_    0.283409 0.176702 0.263392 0.276504
H25   H     H_    0.211968 0.341671 0.162387 0.233703
H26   H     H_    0.163448 0.133542 0.129770 0.231563
H27   H     H_    0.357161 0.125227 0.997010 0.198252
H28   H     H_    0.475301 0.122577 0.137722 0.207847
H29   H     H_    0.072254 0.300736 0.947102 0.236110
H30   H     H_    0.090290 0.510573 0.992219 0.228999
H31   H     H_    0.234532 0.528797 0.774741 0.211559
H32   H     H_    0.257890 0.313692 0.805627 0.199696
H33   H     H_    0.018663 0.689856 0.267470 0.267879
H34   H     H_    0.994248 0.825122 0.130071 0.265996
N1    N     N_1   0.500000 0.073640 0.500000 -0.053577
N2    N     N_1   0.500000 0.926360 0.500000 -0.050239
O1    O     O_R   0.285350 0.636850 0.500000 -0.613847
O2    O     O_R   0.714650 0.363150 0.500000 -0.615910
O3    O     O_R   0.714650 0.636850 0.500000 -0.631785
O4    O     O_R   0.285350 0.363150 0.500000 -0.618714
O5    O     O_R   0.499970 0.636850 0.313950 -0.651777
O6    O     O_R   0.500030 0.363150 0.686050 -0.634185
O7    O     O_R   0.500030 0.636850 0.686050 -0.614238
O8    O     O_R   0.499970 0.363150 0.313950 -0.609401
Zn1   Zn    Zn3+2 0.500000 0.682780 0.500000 0.946448
Zn2   Zn    Zn3+2 0.500000 0.317220 0.500000 0.950339

loop_
_geom_bond_atom_site_label_1
_geom_bond_atom_site_label_2
_ccdc_geom_bond_type
C16   H17   S    
O6    Zn2   S    
C2    C4    S    
N2    Zn1   S    
C17   H15   S    
O5    Zn1   S    
O3    Zn1   S    
C20   C27   S    
C8    H29   S    
C14   H10   S    
O8    Zn2   S    
C4    C22   S    
C7    H32   S    
C22   O5    A    
C3    C23   S    
C9    H12   S    
C9    H23   S    
C9    H1    S    
C20   H28   S    
C1    O4    A    
C19   H18   S    
C13   H33   S    
C7    C8    S    
C2    C26   S    
C11   H3    S    
C20   C21   S    
C21   H25   S    
C11   C13   S    
C23   O6    A    
O7    Zn1   S    
C5    C6    T    
C7    H31   S    
C20   H27   S    
C1    C5    S    
C22   O8    A    
C3    C28   S    
N1    Zn2   S    
C24   C26   S    
C11   H4    S    
C18   C19   S    
C2    C25   S    
C19   H19   S    
C21   H24   S    
C6    C12   S    
C21   H26   S    
C4    C24   S    
C12   O3    A    
C17   H13   S    
C25   C27   S    
C10   C11   S    
C13   H34   S    
O4    Zn2   S    
N1    N2    T    
C2    C10   S    
C16   C17   S    
C23   O7    A    
C15   H8    S    
C3    C25   S    
C4    C27   S    
O1    Zn1   S    
C13   H2    S    
C18   H22   S    
C10   H6    S    
C10   H5    S    
O2    Zn2   S    
C14   C24   S    
C16   C25   S    
C15   H7    S    
C16   H16   S    
C14   C15   S    
C15   H9    S    
C19   H20   S    
C8    H30   S    
C14   H11   S    
C17   H14   S    
C12   O2    A    
C1    O1    A    
C3    C26   S    
C7    C28   S    
C24   C28   S    
C18   H21   S    
C8    C9    S    
C27   C28   S    
C18   C26   S    
