data_mof_unit_pretest_258.cif
_audit_creation_date              2012-12-11T15:35:56-0500
_audit_creation_method            fapswitch 2.2
_symmetry_space_group_name_H-M    P1
_symmetry_Int_Tables_number       1
_space_group_crystal_system       triclinic
_cell_length_a                    7.024322
_cell_length_b                    12.415342
_cell_length_c                    35.331669
_cell_angle_alpha                 89.999941
_cell_angle_beta                  90.801638
_cell_angle_gamma                 90.00037
_cell_volume                      3080.95066004

loop_
_atom_site_label
_atom_site_type_symbol
_atom_type_description
_atom_site_fract_x
_atom_site_fract_y
_atom_site_fract_z
_atom_type_partial_charge
O1    O     O_R   0.379730 0.148600 0.662710 -0.551057
O2    O     O_R   0.620270 0.851400 0.337290 -0.540351
O3    O     O_R   0.120270 0.648600 0.337290 -0.551066
O4    O     O_R   0.879730 0.351400 0.662710 -0.540377
O5    O     O_R   0.722480 0.134490 0.741330 -0.538036
O6    O     O_R   0.277520 0.865510 0.258670 -0.537934
O7    O     O_R   0.777520 0.634490 0.258670 -0.538039
O8    O     O_R   0.222480 0.365510 0.741330 -0.537936
O9    O     O_R   0.892880 0.345890 0.741600 -0.517721
O10   O     O_R   0.107120 0.654110 0.258400 -0.520771
O11   O     O_R   0.607120 0.845890 0.258400 -0.517722
O12   O     O_R   0.392880 0.154110 0.741600 -0.520773
C1    C     C_R   0.552000 0.108724 0.753308 0.720471
C2    C     C_R   0.447723 0.890344 0.246354 0.726730
C3    C     C_R   0.947999 0.608724 0.246692 0.720473
C4    C     C_R   0.052277 0.390343 0.753646 0.726720
O13   O     O_R   0.709490 0.135560 0.662990 -0.531072
O14   O     O_R   0.290510 0.864440 0.337010 -0.551596
O15   O     O_R   0.790510 0.635560 0.337010 -0.531083
O16   O     O_R   0.209490 0.364440 0.662990 -0.551582
C5    C     C_R   0.539304 0.106216 0.652146 0.707350
C6    C     C_R   0.460568 0.893213 0.348077 0.689871
C7    C     C_R   0.960693 0.606215 0.347852 0.707430
C8    C     C_R   0.039435 0.393221 0.651926 0.689843
O17   O     O_3   0.552800 0.316610 0.702160 -0.372343
O18   O     O_3   0.447200 0.683390 0.297840 -0.370679
O19   O     O_3   0.947200 0.816610 0.297840 -0.372344
O20   O     O_3   0.052800 0.183390 0.702160 -0.370670
V1    V     V_3+5 0.827630 0.234380 0.702160 1.488121
V2    V     V_3+5 0.172370 0.765620 0.297840 1.461206
V3    V     V_3+5 0.672370 0.734380 0.297840 1.488147
V4    V     V_3+5 0.327630 0.265620 0.702160 1.461222
C9    C     C_R   0.064382 0.665606 0.913318 0.554131
C10   C     C_R   0.964404 0.309626 0.093965 0.574344
C11   C     C_R   0.435621 0.165604 0.086682 0.554117
C12   C     C_R   0.535600 0.809622 0.906034 0.574353
O21   O     O_2   0.105822 0.560522 0.918071 -0.534852
O22   O     O_2   0.959078 0.416306 0.087276 -0.522380
O23   O     O_2   0.394180 0.060520 0.081930 -0.534864
O24   O     O_2   0.540921 0.916301 0.912723 -0.522382
N1    N     N_R   0.034079 0.704208 0.877212 -0.547788
N2    N     N_R   0.975274 0.273445 0.130699 -0.546569
N3    N     N_R   0.465919 0.204209 0.122788 -0.547782
N4    N     N_R   0.524727 0.773442 0.869300 -0.546572
C13   C     C_R   0.007621 0.813181 0.872229 0.590402
C14   C     C_R   0.976868 0.164001 0.137267 0.580401
C15   C     C_R   0.492371 0.313182 0.127771 0.590398
C16   C     C_R   0.523133 0.663998 0.862732 0.580394
C17   C     C_R   0.122071 0.650603 0.810418 -0.074748
C18   C     C_R   0.869407 0.342021 0.194479 -0.027385
C19   C     C_R   0.377927 0.150604 0.189582 -0.074752
C20   C     C_R   0.630587 0.842019 0.805519 -0.027367
C21   C     C_R   0.127319 0.574072 0.780929 -0.238158
C22   C     C_R   0.858266 0.425031 0.221538 -0.225804
C23   C     C_R   0.372679 0.074073 0.219071 -0.238163
C24   C     C_R   0.641727 0.925030 0.778460 -0.225792
C25   C     C_R   0.942478 0.450063 0.818302 0.199868
C26   C     C_R   0.083096 0.531282 0.186200 0.185241
C27   C     C_R   0.557527 0.950067 0.181699 0.199874
C28   C     C_R   0.416911 0.031282 0.813801 0.185230
C29   C     C_R   0.935792 0.528023 0.847512 -0.090065
C30   C     C_R   0.095762 0.446551 0.159577 -0.093376
C31   C     C_R   0.564212 0.028026 0.152488 -0.090062
C32   C     C_R   0.404243 0.946549 0.840423 -0.093363
C33   C     C_R   0.028710 0.628760 0.844794 0.262149
C34   C     C_R   0.983198 0.352338 0.162044 0.269383
C35   C     C_R   0.471290 0.128762 0.155206 0.262149
C36   C     C_R   0.516801 0.852335 0.837955 0.269422
C37   C     C_R   0.017594 0.844536 0.940784 -0.121149
C38   C     C_R   0.966215 0.125345 0.069168 -0.124014
C39   C     C_R   0.482411 0.344532 0.059215 -0.121136
C40   C     C_R   0.533795 0.625340 0.930830 -0.124006
C41   C     C_R   0.059309 0.734911 0.945565 -0.023022
C42   C     C_R   0.955146 0.237168 0.062878 -0.018974
C43   C     C_R   0.440701 0.234906 0.054435 -0.023030
C44   C     C_R   0.544869 0.737163 0.937121 -0.018980
C45   C     C_R   0.095765 0.697481 0.982631 0.195063
C46   C     C_R   0.947346 0.274047 0.025288 0.222781
C47   C     C_R   0.404255 0.197472 0.017368 0.195071
C48   C     C_R   0.552684 0.774042 0.974711 0.222783
C49   C     C_R   0.988978 0.884381 0.903712 -0.083819
C50   C     C_R   0.984556 0.087898 0.106701 -0.067586
C51   C     C_R   0.511013 0.384381 0.096287 -0.083816
C52   C     C_R   0.515448 0.587894 0.893297 -0.067587
C53   C     C_R   0.038831 0.472958 0.784481 -0.082087
C54   C     C_R   0.963138 0.520844 0.217719 -0.080567
C55   C     C_R   0.461170 0.972960 0.215520 -0.082096
C56   C     C_R   0.536861 0.020843 0.782281 -0.080555
H1    H     H_    0.861687 0.508195 0.873091 0.144783
H2    H     H_    0.189215 0.456786 0.135878 0.162162
H3    H     H_    0.638319 0.008200 0.126910 0.144780
H4    H     H_    0.310790 0.956784 0.864122 0.162141
C57   C     C_R   0.005487 0.941462 0.043317 0.030428
C58   C     C_R   0.944590 0.021272 0.968262 -0.071617
C59   C     C_R   0.494525 0.441456 0.956681 0.030421
C60   C     C_R   0.555424 0.521266 0.031736 -0.071647
C61   C     C_R   0.946683 0.091853 0.000142 0.023426
C62   C     C_R   0.033778 0.873801 0.010545 0.029917
C63   C     C_R   0.553334 0.591846 0.999856 0.023398
C64   C     C_R   0.466239 0.373793 0.989454 0.029901
C65   C     C_R   0.970372 0.052274 0.037613 0.057766
C66   C     C_R   0.000171 0.913592 0.973229 0.034101
C67   C     C_R   0.529640 0.552268 0.962385 0.057774
C68   C     C_R   0.499841 0.413586 0.026770 0.034098
C69   C     C_R   0.008326 0.903131 0.081425 0.302873
C70   C     C_R   0.888277 0.055045 0.931276 0.318578
C71   C     C_R   0.491681 0.403126 0.918573 0.302875
C72   C     C_R   0.611734 0.555040 0.068722 0.318608
C73   C     C_R   0.012986 0.975813 0.112602 0.161963
C74   C     C_R   0.927740 0.992159 0.899320 0.242379
C75   C     C_R   0.487016 0.475809 0.887396 0.161966
C76   C     C_R   0.572241 0.492161 0.100679 0.242351
O25   O     O_2   0.969694 0.128192 0.173171 -0.533072
O26   O     O_2   0.998616 0.853521 0.836969 -0.529976
O27   O     O_2   0.530303 0.628190 0.826828 -0.533072
O28   O     O_2   0.501375 0.353524 0.163030 -0.529975
C77   C     C_R   0.099432 0.767790 0.013438 -0.202355
C78   C     C_R   0.945091 0.203006 0.995070 -0.237948
C79   C     C_R   0.400593 0.267780 0.986561 -0.202349
C80   C     C_R   0.554935 0.703000 0.004929 -0.237949
H5    H     H_    0.765776 0.414518 0.245531 0.135198
H6    H     H_    0.203934 0.593332 0.755416 0.140425
H7    H     H_    0.734212 0.914517 0.754467 0.135195
H8    H     H_    0.296062 0.093331 0.244585 0.140430
H9    H     H_    0.780370 0.272024 0.198316 0.183653
H10   H     H_    0.200068 0.724717 0.806691 0.178854
H11   H     H_    0.719621 0.772022 0.801681 0.183648
H12   H     H_    0.299928 0.224717 0.193309 0.178861
H13   H     H_    0.159307 0.736615 0.039318 0.193858
H14   H     H_    0.958971 0.238263 0.967307 0.176452
H15   H     H_    0.340720 0.236602 0.960680 0.193858
H16   H     H_    0.541062 0.738256 0.032692 0.176448
C81   C     C_R   0.974210 0.529282 0.378556 -0.019281
C82   C     C_R   0.026316 0.468170 0.620614 -0.064414
C83   C     C_R   0.525755 0.029261 0.621448 -0.019295
C84   C     C_R   0.473716 0.968172 0.379387 -0.064460
C85   C     C_R   0.064622 0.354104 0.401838 -0.167380
C86   C     C_R   0.945058 0.644058 0.596789 -0.174240
C87   C     C_R   0.434843 0.854165 0.598164 -0.167393
C88   C     C_R   0.555489 0.143979 0.403218 -0.174221
C89   C     C_R   0.048778 0.426794 0.372077 -0.240792
C90   C     C_R   0.963540 0.573126 0.626973 -0.223102
C91   C     C_R   0.450856 0.926848 0.627923 -0.240701
C92   C     C_R   0.536845 0.073061 0.373034 -0.223092
C93   C     C_R   0.923026 0.561930 0.414903 0.138083
C94   C     C_R   0.063758 0.431529 0.583864 0.125579
C95   C     C_R   0.577113 0.061842 0.585104 0.138085
C96   C     C_R   0.436084 0.931576 0.416135 0.125677
C97   C     C_R   0.977193 0.496743 0.446237 0.039906
C98   C     C_R   0.012001 0.496985 0.552528 0.081142
C99   C     C_R   0.522777 0.996705 0.553767 0.039922
C100  C     C_R   0.488007 0.996980 0.447475 0.081147
C101  C     C_R   0.028334 0.388149 0.438827 0.105886
C102  C     C_R   0.970345 0.607185 0.559739 0.087285
C103  C     C_R   0.471284 0.888166 0.561176 0.105919
C104  C     C_R   0.530027 0.107135 0.440266 0.087291
C105  C     C_R   0.983634 0.534366 0.484314 0.038770
C106  C     C_R   0.004922 0.458883 0.514404 0.074085
C107  C     C_R   0.516471 0.034331 0.515690 0.038780
C108  C     C_R   0.494943 0.958871 0.485599 0.074067
C109  C     C_R   0.011258 0.348069 0.505235 -0.153294
C110  C     C_R   0.981519 0.645191 0.493121 -0.203277
C111  C     C_R   0.488242 0.848066 0.494768 -0.153313
C112  C     C_R   0.518944 0.145152 0.506884 -0.203186
C113  C     C_R   0.036836 0.314140 0.468306 -0.208788
C114  C     C_R   0.962042 0.680447 0.530015 -0.190583
C115  C     C_R   0.462558 0.814165 0.531697 -0.208796
C116  C     C_R   0.538541 0.180387 0.469991 -0.190557
H17   H     H_    0.057563 0.229096 0.462691 0.141463
H18   H     H_    0.946720 0.765993 0.535390 0.142930
H19   H     H_    0.441546 0.729145 0.537311 0.141491
H20   H     H_    0.554147 0.265916 0.464617 0.142924
H21   H     H_    0.935424 0.600920 0.655426 0.118633
H22   H     H_    0.086671 0.401893 0.343771 0.118994
H23   H     H_    0.565133 0.100819 0.344584 0.118660
H24   H     H_    0.412809 0.901998 0.656226 0.119018
H25   H     H_    0.110162 0.272326 0.396148 0.133904
H26   H     H_    0.907654 0.727264 0.602302 0.135269
H27   H     H_    0.389028 0.772437 0.603852 0.133913
H28   H     H_    0.593184 0.227142 0.397708 0.135281
H29   H     H_    0.995414 0.285313 0.525916 0.166713
H30   H     H_    0.996124 0.706530 0.471873 0.153353
H31   H     H_    0.503872 0.785291 0.474087 0.166732
H32   H     H_    0.504534 0.206506 0.528132 0.153227
N5    N     N_3   0.860290 0.345287 0.823694 -0.631272
H33   H     H_    0.970693 0.288941 0.822549 0.216407
H34   H     H_    0.806578 0.339073 0.850946 0.229409
N6    N     N_3   0.182598 0.630723 0.179977 -0.643914
H35   H     H_    0.080797 0.692076 0.179361 0.217328
H36   H     H_    0.240763 0.631154 0.152957 0.225287
N7    N     N_3   0.639719 0.845292 0.176307 -0.631258
H37   H     H_    0.529311 0.788944 0.177449 0.216402
H38   H     H_    0.693452 0.839081 0.149056 0.229404
N8    N     N_3   0.317419 0.130724 0.820025 -0.643941
H39   H     H_    0.419220 0.192078 0.820635 0.217334
H40   H     H_    0.259290 0.131162 0.847048 0.225263
N9    N     N_3   0.170254 0.333780 0.578912 -0.699404
H41   H     H_    0.097665 0.269956 0.591559 0.233505
H42   H     H_    0.303290 0.342291 0.592207 0.236853
N10   N     N_3   0.792431 0.650867 0.418011 -0.682405
H43   H     H_    0.711672 0.646107 0.442554 0.234173
H44   H     H_    0.866134 0.723779 0.416275 0.214162
N11   N     N_3   0.329278 0.833935 0.421080 -0.699498
H45   H     H_    0.401697 0.770037 0.408442 0.233433
H46   H     H_    0.196300 0.842575 0.407774 0.236847
N12   N     N_3   0.707994 0.150642 0.582001 -0.682432
H47   H     H_    0.788758 0.145796 0.557461 0.234158
H48   H     H_    0.634524 0.223629 0.583734 0.214120
N13   N     N_3   0.114626 0.585565 0.989732 -0.617876
H49   H     H_    0.977905 0.556768 0.984150 0.248123
H50   H     H_    0.143813 0.570713 0.018371 0.245744
N14   N     N_3   0.960231 0.384907 0.016622 -0.621034
H51   H     H_    0.087740 0.393063 0.002223 0.251444
H52   H     H_    0.850416 0.402369 0.997442 0.221763
N15   N     N_3   0.385372 0.085557 0.010268 -0.617892
H53   H     H_    0.522075 0.056746 0.015862 0.248134
H54   H     H_    0.356232 0.070704 0.981627 0.245739
N16   N     N_3   0.539810 0.884902 0.983376 -0.621056
H55   H     H_    0.412285 0.893063 0.997766 0.251440
H56   H     H_    0.649594 0.902360 0.002562 0.221759
N17   N     N_3   0.057730 0.936066 0.150054 -0.598221
H57   H     H_    0.175940 0.978822 0.159605 0.263994
H58   H     H_    0.111645 0.857974 0.149342 0.216010
N18   N     N_3   0.880592 0.034683 0.862591 -0.579980
H59   H     H_    0.734806 0.050572 0.861610 0.270748
H60   H     H_    0.949535 0.108560 0.859578 0.227495
N19   N     N_3   0.442269 0.436062 0.849944 -0.598214
H61   H     H_    0.324059 0.478818 0.840394 0.263991
H62   H     H_    0.388353 0.357970 0.850656 0.216013
N20   N     N_3   0.619360 0.534694 0.137407 -0.580006
H63   H     H_    0.765165 0.550514 0.138399 0.270747
H64   H     H_    0.550530 0.608605 0.140407 0.227499
O29   O     O_3   0.997581 0.794214 0.088211 -0.661679
H65   H     H_    0.922075 0.781399 0.111159 0.312254
O30   O     O_3   0.771663 0.142467 0.925473 -0.651104
H66   H     H_    0.683089 0.145618 0.947047 0.329910
O31   O     O_3   0.502424 0.294209 0.911786 -0.661685
H67   H     H_    0.577930 0.281396 0.888838 0.312252
O32   O     O_3   0.728368 0.642454 0.074526 -0.651091
H68   H     H_    0.816939 0.645605 0.052950 0.329912

loop_
_geom_bond_atom_site_label_1
_geom_bond_atom_site_label_2
_ccdc_geom_bond_type
C26   C30   A    
N8    H40   S    
N11   H45   S    
C48   C80   A    
O1    C5    A    
C105  C106  A    
O3    V2    S    
O13   V1    S    
C88   C92   A    
C27   N7    S    
O32   H68   S    
C10   N2    A    
C39   C68   A    
C74   N18   S    
N18   H59   S    
C100  C108  A    
C28   C56   A    
C38   C65   A    
C28   N8    S    
C87   H27   S    
C37   C66   A    
C17   H10   S    
C71   O31   S    
C11   C43   A    
C18   C22   A    
C25   C29   A    
C17   C33   A    
C109  C113  A    
C78   H14   S    
C19   H12   S    
C32   C36   A    
O20   V1    S    
C46   C78   A    
O9    C4    A    
C2    C55   S    
C110  H30   S    
C45   C77   A    
C21   H6    S    
N15   H54   S    
C48   N16   S    
O4    C8    A    
O11   C2    A    
N12   H48   S    
C24   C56   A    
O6    C2    A    
C104  C116  A    
C60   C63   A    
C64   C68   A    
C76   N20   S    
N14   H51   S    
C92   H23   S    
N6    H36   S    
N2    C14   A    
C61   C78   A    
N9    H42   S    
N19   H61   S    
C97   C101  A    
C85   C89   A    
C12   C44   A    
C106  C109  A    
C57   C69   A    
C63   C80   A    
C14   C50   A    
O3    C7    A    
C13   O26   S    
O16   C8    A    
C103  C115  A    
N10   H43   S    
C59   C67   A    
C47   C79   A    
C38   C42   A    
C79   H15   S    
O30   H66   S    
C37   C41   A    
O14   V2    S    
C15   C51   A    
N12   H47   S    
O14   C6    A    
C11   N3    A    
O29   H65   S    
O5    C1    A    
O4    V1    S    
C20   C36   A    
C12   N4    A    
O9    V1    S    
C101  C113  A    
C77   H13   S    
C86   C102  A    
O17   V4    S    
C47   N15   S    
N8    H39   S    
C60   C72   A    
O15   V3    S    
O18   V3    S    
O8    C4    A    
C110  C114  A    
O31   H67   S    
O12   V4    S    
O19   V2    S    
C113  H17   S    
N9    H41   S    
C87   C91   A    
C91   H24   S    
O16   V4    S    
C26   C54   A    
C20   H11   S    
C29   H1    S    
N13   H49   S    
C90   H21   S    
C39   C51   A    
O17   V1    S    
C15   O28   S    
C82   C94   A    
C31   C35   A    
C40   C52   A    
C52   C75   A    
O7    V3    S    
C70   O30   S    
C30   C34   A    
C26   N6    S    
N7    H37   S    
O8    V4    S    
C108  C111  A    
C100  C104  A    
C12   O24   S    
C37   C49   A    
C93   N10   S    
C63   C67   A    
C86   C90   A    
C57   C65   A    
C22   C54   A    
C7    C81   S    
C59   C64   A    
N1    C33   S    
C58   C61   A    
C62   C66   A    
O19   V3    S    
O1    V4    S    
O13   C5    A    
C16   C52   A    
C6    C84   S    
N6    H35   S    
C99   C107  A    
C95   N12   S    
C11   O23   S    
N15   H53   S    
N7    H38   S    
N3    C35   S    
O2    C6    A    
N17   H57   S    
C112  H32   S    
N13   H50   S    
C29   C33   A    
C82   C90   A    
N11   H46   S    
C71   C75   A    
O10   V2    S    
N16   H56   S    
C107  C108  A    
C107  C112  A    
C72   O32   S    
O20   V4    S    
C111  C115  A    
N16   H55   S    
C24   H7    S    
C85   C101  A    
C40   C44   A    
C64   C79   A    
C19   C35   A    
C49   C74   A    
N20   H64   S    
C18   C34   A    
C50   C73   A    
C84   C96   A    
C59   C71   A    
C10   C42   A    
C3    C54   S    
C102  C114  A    
C112  C116  A    
C9    C41   A    
N19   H62   S    
C22   H5    S    
C88   C104  A    
O18   V2    S    
C83   C95   A    
C16   O27   S    
C98   C102  A    
C4    C53   S    
N4    C36   S    
C81   C93   A    
C32   H4    S    
C86   H26   S    
O5    V1    S    
C46   N14   S    
C80   H16   S    
C73   N17   S    
O15   C7    A    
C62   C77   A    
C9    O21   S    
C18   H9    S    
C70   C74   A    
C8    C82   S    
C69   C73   A    
C23   H8    S    
C58   C70   A    
N1    C13   A    
C98   C106  A    
C14   O25   S    
O6    V2    S    
C10   O22   S    
C69   O29   S    
C25   N5    S    
C84   C92   A    
C13   C49   A    
C96   C100  A    
N14   H52   S    
N3    C15   A    
N18   H60   S    
C115  H19   S    
C44   C48   A    
C94   C98   A    
C40   C67   A    
C45   N13   S    
C87   C103  A    
C27   C31   A    
C99   C103  A    
C28   C32   A    
O10   C3    A    
C75   N19   S    
C57   C62   A    
C94   N9    S    
C60   C68   A    
C9    N1    A    
N17   H58   S    
N4    C16   A    
C39   C43   A    
N5    H33   S    
C89   H22   S    
C97   C105  A    
C17   C21   A    
C95   C99   A    
C30   H2    S    
C1    C56   S    
O7    C3    A    
C83   C91   A    
C88   H28   S    
C114  H18   S    
C25   C53   A    
C19   C23   A    
C85   H25   S    
C111  H31   S    
C23   C55   A    
N20   H63   S    
C38   C50   A    
C27   C55   A    
N5    H34   S    
O11   V3    S    
C72   C76   A    
C116  H20   S    
C93   C97   A    
O12   C1    A    
C58   C66   A    
N10   H44   S    
C42   C46   A    
C31   H3    S    
N2    C34   S    
C41   C45   A    
C51   C76   A    
O2    V3    S    
C21   C53   A    
C81   C89   A    
C43   C47   A    
C105  C110  A    
C5    C83   S    
C109  H29   S    
C61   C65   A    
C20   C24   A    
C96   N11   S    
