data_mof_unit_pretest_6.cif
_audit_creation_date              2012-12-11T14:06:47-0500
_audit_creation_method            fapswitch 2.2
_symmetry_space_group_name_H-M    P1
_symmetry_Int_Tables_number       1
_space_group_crystal_system       triclinic
_cell_length_a                    6.934736
_cell_length_b                    17.287508
_cell_length_c                    24.086203
_cell_angle_alpha                 104.512301
_cell_angle_beta                  90.336599
_cell_angle_gamma                 89.98414
_cell_volume                      2795.37650437

loop_
_atom_site_label
_atom_site_type_symbol
_atom_type_description
_atom_site_fract_x
_atom_site_fract_y
_atom_site_fract_z
_atom_type_partial_charge
O1    O     O_R   0.494290 0.391990 0.999150 -0.534847
O2    O     O_R   0.827170 0.534410 0.082350 -0.542883
O3    O     O_R   0.994360 0.608010 0.000850 -0.535166
C1    C     C_R   0.658615 0.549997 0.106128 0.706813
O4    O     O_R   0.824210 0.388010 0.004470 -0.545691
O5    O     O_R   0.991370 0.460560 0.922410 -0.540304
C2    C     C_R   0.654529 0.354900 0.001478 0.776011
O6    O     O_R   0.497270 0.539440 0.077590 -0.540641
O7    O     O_3   0.659770 0.523970 0.973170 -0.371689
V1    V     V_3+5 0.935840 0.495550 0.004980 1.415323
O8    O     O_R   0.320910 0.465590 0.917650 -0.543589
C3    C     C_R   0.151602 0.450034 0.893866 0.706121
O9    O     O_R   0.323870 0.611990 0.995530 -0.546030
C4    C     C_R   0.154392 0.645105 0.998527 0.774797
V2    V     V_3+5 0.435470 0.504450 0.995020 1.414520
O10   O     O_3   0.161670 0.476030 0.026830 -0.371060
C5    C     C_2   0.142695 0.730282 0.998119 -0.339936
H1    H     H_    0.276916 0.761156 0.994759 0.150499
C6    C     C_2   0.972864 0.769770 0.002037 -0.338343
H2    H     H_    0.838644 0.738897 0.005401 0.150678
C7    C     C_R   0.073356 0.244277 0.627135 0.590464
N1    N     N_R   0.107577 0.324409 0.648435 -0.563360
C8    C     C_R   0.131099 0.373541 0.612251 0.572464
C9    C     C_R   0.118934 0.342600 0.552304 -0.025906
C10   C     C_R   0.083367 0.260303 0.529760 -0.005318
C11   C     C_R   0.061256 0.210724 0.567435 -0.049470
C12   C     C_R   0.140939 0.392028 0.514546 -0.148890
C13   C     C_R   0.126373 0.360508 0.455379 -0.141800
C14   C     C_R   0.089358 0.278735 0.432377 -0.056465
C15   C     C_R   0.069190 0.227854 0.469576 -0.033116
C16   C     C_R   0.034320 0.145108 0.446773 -0.102595
C17   C     C_R   0.023924 0.094687 0.485471 -0.030098
C18   C     C_R   0.031884 0.128597 0.544890 -0.177250
C19   C     C_R   0.073275 0.246637 0.372828 0.612261
N2    N     N_R   0.030701 0.167426 0.351037 -0.553687
C20   C     C_R   0.005043 0.117373 0.386507 0.586153
O11   O     O_2   0.052557 0.196988 0.663576 -0.508119
O12   O     O_2   0.164444 0.452204 0.634147 -0.512537
H3    H     H_    0.168839 0.455382 0.530576 0.170591
H4    H     H_    0.143476 0.400654 0.427697 0.180655
O13   O     O_2   0.099877 0.294336 0.336930 -0.497795
O14   O     O_2   0.942553 0.042337 0.363483 -0.492759
H5    H     H_    0.022119 0.089713 0.573784 0.199296
C21   C     C_R   0.140034 0.079972 0.259170 -0.179509
H6    H     H_    0.255930 0.058588 0.281692 0.148248
C22   C     C_R   0.126102 0.052452 0.199510 -0.192850
H7    H     H_    0.231856 0.010115 0.176976 0.144524
C23   C     C_R   0.975986 0.078507 0.169254 -0.106509
C24   C     C_R   0.839906 0.132894 0.199882 -0.273766
H8    H     H_    0.723765 0.154114 0.177299 0.145038
C25   C     C_R   0.855603 0.161980 0.259733 0.487905
C26   C     C_R   0.008510 0.136311 0.289673 0.280874
C27   C     C_R   0.295872 0.382376 0.736599 -0.078847
H9    H     H_    0.425766 0.377643 0.711241 0.120272
C28   C     C_R   0.306938 0.412695 0.796246 -0.193280
H10   H     H_    0.446234 0.431016 0.815642 0.131412
C29   C     C_R   0.140243 0.419037 0.830295 -0.058492
C30   C     C_R   0.962380 0.394388 0.802939 -0.192186
H11   H     H_    0.831068 0.398149 0.827574 0.129921
C31   C     C_R   0.951909 0.363681 0.743375 -0.085114
H12   H     H_    0.813939 0.344680 0.723283 0.118193
C32   C     C_R   0.118461 0.357339 0.709771 0.379846
C33   C     C_R   0.475874 0.874723 0.612413 0.587468
N3    N     N_R   0.508286 0.825718 0.648390 -0.562941
C34   C     C_R   0.560106 0.747271 0.626932 0.578906
C35   C     C_R   0.582147 0.715476 0.567409 -0.026287
C36   C     C_R   0.550653 0.765257 0.530064 -0.021389
C37   C     C_R   0.496822 0.845560 0.552589 -0.041886
C38   C     C_R   0.635370 0.635346 0.544411 -0.134916
C39   C     C_R   0.657003 0.605131 0.485218 -0.151700
C40   C     C_R   0.626200 0.654296 0.447491 -0.025387
C41   C     C_R   0.573159 0.734673 0.470056 -0.021407
C42   C     C_R   0.542688 0.784560 0.432746 -0.060170
C43   C     C_R   0.491310 0.864827 0.455771 -0.094620
C44   C     C_R   0.467427 0.894856 0.514887 -0.101304
C45   C     C_R   0.645535 0.624993 0.387616 0.577028
N4    N     N_R   0.613296 0.674064 0.351674 -0.563291
C46   C     C_R   0.563899 0.752751 0.373210 0.593046
O15   O     O_2   0.425958 0.951697 0.634423 -0.509041
O16   O     O_2   0.589571 0.699985 0.663033 -0.511380
H13   H     H_    0.660482 0.595639 0.572070 0.178954
H14   H     H_    0.697818 0.543088 0.469149 0.170484
O17   O     O_2   0.693704 0.547836 0.365530 -0.509449
O18   O     O_2   0.535636 0.800208 0.337160 -0.503896
H15   H     H_    0.470357 0.904832 0.428155 0.209412
H16   H     H_    0.427190 0.956973 0.530926 0.174931
C47   C     C_R   0.459078 0.634207 0.256075 -0.084434
H17   H     H_    0.320381 0.651589 0.275701 0.119723
C48   C     C_R   0.469926 0.603927 0.196568 -0.190834
H18   H     H_    0.338093 0.598975 0.171600 0.130404
C49   C     C_R   0.648362 0.580998 0.169707 -0.058717
C50   C     C_R   0.815526 0.588863 0.204262 -0.191914
H19   H     H_    0.955243 0.571894 0.185238 0.130647
C51   C     C_R   0.804136 0.618894 0.263955 -0.071996
H20   H     H_    0.934307 0.624724 0.289730 0.122449
C52   C     C_R   0.625846 0.642064 0.290268 0.376466
C53   C     C_R   0.314674 0.880188 0.735731 -0.075885
H21   H     H_    0.185060 0.873881 0.709686 0.122724
C54   C     C_R   0.301701 0.910246 0.795418 -0.193578
H22   H     H_    0.161406 0.926733 0.814185 0.130179
C55   C     C_R   0.468170 0.918757 0.830291 -0.058667
C56   C     C_R   0.647450 0.896422 0.803760 -0.191786
H23   H     H_    0.778890 0.901887 0.828950 0.130825
C57   C     C_R   0.659866 0.866138 0.744304 -0.084122
H24   H     H_    0.799232 0.849279 0.724974 0.118980
C58   C     C_R   0.493880 0.857633 0.709774 0.377435
C59   C     C_2   0.642779 0.269710 0.001898 -0.338144
H25   H     H_    0.777123 0.238803 0.005267 0.150534
C60   C     C_2   0.472734 0.230252 0.997979 -0.337827
H26   H     H_    0.338389 0.261160 0.994614 0.150852
O19   O     O_R   0.618210 0.960470 0.922400 -0.540912
O20   O     O_R   0.291310 0.111960 0.995450 -0.545257
O21   O     O_R   0.124210 0.039530 0.077580 -0.538714
C61   C     C_R   0.460988 0.145069 0.998421 0.777181
O22   O     O_R   0.288310 0.965490 0.917650 -0.542924
O23   O     O_R   0.121180 0.892010 0.999220 -0.536424
C62   C     C_R   0.456970 0.949861 0.893864 0.705761
O24   O     O_R   0.621230 0.107990 0.000760 -0.535684
O25   O     O_3   0.455770 0.976060 0.026840 -0.371221
V3    V     V_3+5 0.179680 0.004440 0.995020 1.415066
O26   O     O_R   0.791670 0.888040 0.004570 -0.546270
C63   C     C_R   0.961155 0.854932 0.001590 0.771379
O27   O     O_R   0.794680 0.034510 0.082370 -0.541473
C64   C     C_R   0.963986 0.049737 0.105946 0.727845
V4    V     V_3+5 0.680070 0.995560 0.005010 1.416435
O28   O     O_3   0.953840 0.023940 0.973160 -0.372606
O29   O     O_3   0.726845 0.218870 0.288482 -0.531861
C65   C     C_3   0.582205 0.181953 0.314181 0.091682
H27   H     H_    0.612368 0.118518 0.314517 0.115403
H28   H     H_    0.445798 0.182944 0.290157 0.155714
C66   C     C_3   0.552486 0.229374 0.375899 -0.614356
H29   H     H_    0.501071 0.290567 0.377003 0.243016
H30   H     H_    0.445017 0.198538 0.396715 0.163093
H31   H     H_    0.688529 0.233732 0.400698 0.207017
C67   C     C_2   0.019236 0.006114 0.467034 0.831502
O30   O     O_2   0.126242 0.970165 0.429129 -0.534795
O31   O     O_R   0.901759 0.963552 0.495967 -0.666153
H32   H     H_    0.915709 0.903564 0.480882 0.300092

loop_
_geom_bond_atom_site_label_1
_geom_bond_atom_site_label_2
_ccdc_geom_bond_type
C28   H10   S    
C6    C63   S    
C55   C56   A    
C42   C43   A    
C20   O14   S    
N2    C20   A    
C9    C12   A    
C1    O6    A    
C66   H31   S    
C65   H27   S    
C57   C58   A    
C53   H21   S    
C67   O30   D    
C33   O15   S    
C27   H9    S    
C37   C44   A    
O23   C63   A    
C13   C14   A    
C36   C41   A    
O5    C3    A    
C15   C16   A    
C56   C57   A    
V3    O28   S    
O27   V4    S    
C35   C38   A    
C13   H4    S    
C30   C31   A    
V2    O10   S    
C31   C32   A    
C19   N2    A    
C44   H16   S    
C33   C37   A    
O8    V2    S    
C16   C17   A    
C12   H3    S    
C24   C25   A    
O19   V4    S    
C8    C9    A    
C39   C40   A    
O1    V2    S    
O24   V4    S    
C48   C49   A    
O7    V1    S    
C1    C49   S    
C21   C26   A    
C35   C36   A    
C34   O16   S    
O9    C4    A    
C59   C60   D    
C4    C5    S    
C38   C39   A    
C19   O13   S    
C45   O17   S    
O20   C61   A    
C57   H24   S    
C53   C54   A    
C7    C11   A    
C21   C22   A    
C27   C28   A    
C22   C23   A    
C43   C44   A    
C36   C37   A    
C18   H5    S    
O27   C64   A    
C45   N4    A    
C49   C50   A    
O20   V3    S    
O22   C62   A    
C30   H11   S    
N4    C46   A    
C14   C19   A    
O23   V3    S    
C31   H12   S    
O2    C1    A    
O26   V4    S    
C14   C15   A    
N1    C32   S    
O21   V3    S    
C27   C32   A    
C11   C18   A    
C54   H22   S    
C42   C46   A    
C47   C52   A    
C50   C51   A    
C5    H1    S    
C7    O11   S    
C51   H20   S    
C28   C29   A    
C9    C10   A    
C51   C52   A    
O26   C63   A    
C61   O24   A    
O3    C4    A    
C60   C61   S    
C3    C29   S    
O25   V4    S    
C23   C24   A    
C54   C55   A    
O22   V3    S    
O6    V2    S    
O9    V2    S    
V4    O28   S    
C2    C59   S    
C53   C58   A    
C59   H25   S    
O29   C65   S    
O2    V1    S    
C65   C66   S    
C12   C13   A    
C21   H6    S    
O4    C2    A    
C10   C15   A    
C67   O31   S    
C22   H7    S    
O1    C2    A    
N1    C8    A    
C41   C42   A    
C66   H30   S    
C65   H28   S    
C23   C64   S    
C17   C67   S    
O25   V3    S    
N3    C58   S    
C8    O12   S    
O31   H32   S    
N4    C52   S    
O19   C62   A    
C55   C62   S    
C17   C18   A    
C6    H2    S    
C47   C48   A    
C10   C11   A    
C25   O29   S    
C25   C26   A    
O3    V1    S    
V1    O10   S    
C60   H26   S    
N3    C34   A    
C29   C30   A    
C40   C45   A    
O21   C64   A    
C50   H19   S    
C5    C6    D    
C34   C35   A    
C43   H15   S    
O7    V2    S    
C56   H23   S    
C39   H14   S    
C38   H13   S    
O5    V1    S    
C33   N3    A    
C46   O18   S    
O4    V1    S    
C40   C41   A    
C47   H17   S    
C24   H8    S    
N2    C26   S    
C16   C20   A    
C48   H18   S    
C7    N1    A    
C66   H29   S    
O8    C3    A    
