data_mof_unit_pretest_502.cif
_audit_creation_date              2012-10-26T20:03:19-0400
_audit_creation_method            fapswitch 2.2
_symmetry_space_group_name_H-M    P1
_symmetry_Int_Tables_number       1
_space_group_crystal_system       triclinic
_cell_length_a                    10.620154
_cell_length_b                    12.480826
_cell_length_c                    13.538738
_cell_angle_alpha                 117.314345
_cell_angle_beta                  75.207539
_cell_angle_gamma                 100.922558
_cell_volume                      1536.13209952

loop_
_atom_site_label
_atom_site_type_symbol
_atom_type_description
_atom_site_fract_x
_atom_site_fract_y
_atom_site_fract_z
_atom_type_partial_charge
C1    C     C_R   0.519858 0.854317 0.286801 0.520923
C2    C     C_R   0.514653 0.564193 0.011929 0.031696
C3    C     C_R   0.538055 0.644699 0.121397 0.021543
C4    C     C_R   0.739541 0.000831 0.501515 0.537344
C5    C     C_R   0.518815 0.437555 0.974127 0.028072
C6    C     C_R   0.514646 0.392412 0.053753 0.047661
C7    C     C_R   0.548761 0.473356 0.157553 -0.139403
C8    C     C_R   0.573188 0.595876 0.184286 -0.123035
C9    C     C_R   0.536918 0.355374 0.859155 -0.025103
C10   C     C_R   0.468140 0.188915 0.913667 -0.137021
C11   C     C_R   0.525510 0.770828 0.164861 -0.005469
C12   C     C_3   0.021401 0.056447 0.606714 0.000202
C13   C     C_R   0.727136 0.359048 0.350767 -0.142193
C14   C     C_R   0.302728 0.751182 0.621453 0.048538
C15   C     C_R   0.238236 0.642138 0.616448 -0.172205
C16   C     C_R   0.489681 0.145340 0.711621 0.538455
C17   C     C_R   0.304448 0.538025 0.556893 -0.139799
C18   C     C_R   0.440638 0.543475 0.514226 0.004147
C19   C     C_R   0.496396 0.654050 0.508535 0.181940
C20   C     C_R   0.521490 0.443192 0.468389 -0.002778
C21   C     C_R   0.646878 0.453188 0.403372 0.003921
C22   C     C_R   0.693603 0.557823 0.389996 -0.203260
C23   C     C_3   0.927794 0.942592 0.561413 0.034110
C24   C     C_R   0.620392 0.655732 0.442169 -0.128588
C25   C     C_R   0.490156 0.337855 0.489840 0.130224
C26   C     C_R   0.689562 0.254536 0.365881 0.139321
C27   C     C_R   0.260503 0.999638 0.499220 0.554995
C28   C     C_3   0.978207 0.944450 0.394244 -0.139908
C29   C     C_3   0.030848 0.886641 0.453404 0.008455
C30   C     C_3   0.123837 0.000133 0.499155 0.057418
C31   C     C_3   0.072724 0.059309 0.440725 -0.146191
C32   C     C_3   0.968386 0.116257 0.549570 -0.127791
C33   C     C_3   0.067589 0.756768 0.397601 -0.385991
C34   C     C_3   0.876057 0.001140 0.503197 0.035569
C35   C     C_3   0.630951 0.395705 0.774341 -0.371564
C36   C     C_3   0.785357 0.158926 0.306656 -0.338256
C37   C     C_3   0.369223 0.332391 0.576113 -0.339296
C38   C     C_3   0.048965 0.120932 0.726389 -0.409174
C39   C     C_3   0.848769 0.878184 0.632487 -0.382302
C40   C     C_3   0.471809 0.216011 0.108457 -0.406702
C41   C     C_R   0.486011 0.267176 0.024097 -0.007994
C42   C     C_R   0.496756 0.230855 0.829817 -0.006145
C43   C     C_R   0.500093 0.814915 0.093922 -0.138239
C44   C     C_R   0.477700 0.735746 0.985803 -0.148751
C45   C     C_R   0.480679 0.611532 0.946375 -0.123390
Cu1   Cu    Cu3+1 0.529830 0.098270 0.475420 0.889542
Cu2   Cu    Cu3+1 0.470170 0.901730 0.524580 0.903628
H1    H     H_    0.452631 0.770503 0.933883 0.115344
H2    H     H_    0.096014 0.736113 0.460028 0.152598
H3    H     H_    0.703356 0.327917 0.719982 0.150566
H4    H     H_    0.578005 0.409081 0.720574 0.151985
H5    H     H_    0.689836 0.481431 0.817004 0.117697
H6    H     H_    0.490061 0.910274 0.124265 0.130900
H7    H     H_    0.452081 0.553042 0.865917 0.112178
H8    H     H_    0.739908 0.067235 0.289078 0.186778
H9    H     H_    0.834711 0.155665 0.222486 0.071707
H10   H     H_    0.861669 0.181278 0.357584 0.127022
H11   H     H_    0.369877 0.277551 0.618223 0.196834
H12   H     H_    0.620184 0.652337 0.253762 0.130079
H13   H     H_    0.355517 0.422100 0.649495 0.079255
H14   H     H_    0.283222 0.293788 0.534648 0.110193
H15   H     H_    0.957811 0.898081 0.307003 0.098033
H16   H     H_    0.135225 0.637099 0.653114 0.094736
H17   H     H_    0.134569 0.107027 0.391037 0.115603
H18   H     H_    0.940287 0.210550 0.589665 0.107647
H19   H     H_    0.957181 0.153016 0.787904 0.131542
H20   H     H_    0.088421 0.057674 0.745389 0.131122
H21   H     H_    0.121720 0.199575 0.733822 0.122434
H22   H     H_    0.915376 0.855171 0.669837 0.114532
H23   H     H_    0.787860 0.563861 0.337134 0.103480
H24   H     H_    0.776515 0.938075 0.701576 0.143147
H25   H     H_    0.797245 0.793573 0.578666 0.149285
H26   H     H_    0.440430 0.093669 0.891337 0.128534
H27   H     H_    0.563268 0.441975 0.215613 0.133338
H28   H     H_    0.396143 0.261651 0.183872 0.135928
H29   H     H_    0.442132 0.117334 0.071953 0.119620
H30   H     H_    0.566466 0.229853 0.135128 0.134304
H31   H     H_    0.821313 0.367698 0.298538 0.096746
H32   H     H_    0.249222 0.830990 0.662809 0.126757
H33   H     H_    0.244406 0.454837 0.541015 0.107916
H34   H     H_    0.662105 0.727276 0.420364 0.168220
H35   H     H_    0.982830 0.694094 0.366182 0.110469
H36   H     H_    0.150655 0.744255 0.325281 0.145157
N1    N     N_R   0.575030 0.246270 0.438190 -0.214849
N2    N     N_R   0.425760 0.754330 0.561190 -0.238262
O1    O     O_R   0.537510 0.972500 0.318130 -0.515999
O2    O     O_R   0.487140 0.806530 0.359650 -0.504992
O3    O     O_R   0.708330 0.082950 0.479220 -0.515592
O4    O     O_R   0.657960 0.916980 0.520740 -0.527212
O5    O     O_R   0.512860 0.193470 0.640350 -0.525631
O6    O     O_R   0.462490 0.027500 0.681870 -0.507706
O7    O     O_R   0.342040 0.083020 0.479260 -0.518502
O8    O     O_R   0.291670 0.917050 0.520780 -0.510096

loop_
_geom_bond_atom_site_label_1
_geom_bond_atom_site_label_2
_ccdc_geom_bond_type
C1    O2    A    
C16   O5    A    
C10   C42   A    
C1    C11   S    
C43   C44   A    
C7    C8    A    
C12   C23   S    
C9    C42   A    
C23   C29   S    
C28   C29   S    
C10   C41   A    
C8    H12   S    
C5    C6    A    
C10   H26   S    
Cu1   O7    S    
C20   C25   A    
C33   H2    S    
C29   C33   S    
C18   C19   A    
C25   C37   S    
C13   H31   S    
C43   H6    S    
C38   H19   S    
C6    C41   A    
C25   N1    A    
C39   H25   S    
C11   C43   A    
C33   H35   S    
C37   H11   S    
C28   C34   S    
C39   H24   S    
C21   C22   A    
C12   C32   S    
C27   C30   S    
Cu2   O4    S    
C7    H27   S    
Cu1   O3    S    
C2    C45   A    
Cu2   O8    S    
C4    C34   S    
C36   H10   S    
C17   H33   S    
C40   H29   S    
C32   C34   S    
C24   H34   S    
C5    C9    A    
C29   C30   S    
C36   H9    S    
C31   C32   S    
Cu2   N2    S    
C23   C34   S    
C35   H3    S    
C17   C18   A    
C39   H22   S    
C13   C21   A    
C27   O7    A    
C14   H32   S    
C38   H20   S    
C33   H36   S    
C4    O3    A    
C26   C36   S    
C40   C41   S    
C38   H21   S    
C45   H7    S    
C3    C8    A    
C35   H4    S    
C22   C24   A    
C13   C26   A    
C27   O8    A    
C2    C5    A    
C16   C42   S    
C44   C45   A    
C4    O4    A    
C1    O1    A    
C15   C17   A    
Cu1   Cu2   S    
C26   N1    A    
C12   C30   S    
C14   C15   A    
Cu2   O6    S    
C31   H17   S    
C28   C31   S    
C14   N2    A    
C19   N2    A    
C37   H14   S    
C6    C7    A    
Cu1   O5    S    
C40   H28   S    
C2    C3    A    
C36   H8    S    
C30   C31   S    
C23   C39   S    
C19   C24   A    
C18   C20   A    
C12   C38   S    
C37   H13   S    
C3    C11   A    
Cu1   N1    S    
C20   C21   A    
C16   O6    A    
C35   H5    S    
C9    C35   S    
C15   H16   S    
C40   H30   S    
C22   H23   S    
C44   H1    S    
Cu2   O2    S    
C32   H18   S    
Cu1   O1    S    
C28   H15   S    
