data_mof_unit_pretest_129.cif
_audit_creation_date              2012-12-11T14:15:36-0500
_audit_creation_method            fapswitch 2.2
_symmetry_space_group_name_H-M    P1
_symmetry_Int_Tables_number       1
_space_group_crystal_system       triclinic
_cell_length_a                    11.195336
_cell_length_b                    12.665177
_cell_length_c                    23.622193
_cell_angle_alpha                 89.892743
_cell_angle_beta                  95.98459
_cell_angle_gamma                 68.458162
_cell_volume                      3095.55516661

loop_
_atom_site_label
_atom_site_type_symbol
_atom_type_description
_atom_site_fract_x
_atom_site_fract_y
_atom_site_fract_z
_atom_type_partial_charge
C1    C     C_R   0.148569 0.616894 0.428447 0.543245
C2    C     C_R   0.584436 0.598780 0.330495 -0.122858
C3    C     C_R   0.670858 0.747123 0.324013 -0.106300
C4    C     C_R   0.618959 0.770398 0.266724 0.047438
C5    C     C_R   0.560231 0.698339 0.240138 0.045066
C6    C     C_R   0.532548 0.703090 0.180382 -0.004076
C7    C     C_R   0.597155 0.868128 0.176112 -0.113319
C8    C     C_R   0.632265 0.858103 0.234603 0.079224
C9    C     C_1   0.233530 0.164281 0.121973 0.020723
C10   C     C_2   0.176255 0.239179 0.224494 0.017307
C11   C     C_2   0.162189 0.167284 0.263669 0.126048
C12   C     C_R   0.744976 0.607170 0.406111 0.543027
C13   C     C_1   0.136654 0.200932 0.321150 0.000484
C14   C     C_1   0.207141 0.201147 0.168088 0.016643
C15   C     C_1   0.118324 0.233555 0.368649 0.007481
C16   C     C_1   0.161668 0.746939 0.121987 0.013597
C17   C     C_2   0.137193 0.677783 0.224861 -0.110177
C18   C     C_2   0.214397 0.690925 0.269449 -0.108040
C19   C     C_1   0.204449 0.658528 0.326958 -0.030226
C20   C     C_1   0.146812 0.715127 0.168135 -0.025352
C21   C     C_1   0.188037 0.636112 0.374584 0.006908
C22   C     C_1   0.604934 0.767447 0.861039 0.028797
C23   C     C_R   0.101614 0.283023 0.423385 0.550388
C24   C     C_2   0.617098 0.747262 0.750840 -0.074240
C25   C     C_2   0.695075 0.651828 0.730213 0.134261
C26   C     C_1   0.692846 0.639594 0.669951 -0.007630
C27   C     C_1   0.614950 0.759537 0.811015 0.001897
C28   C     C_1   0.706371 0.626181 0.620427 0.017756
C29   C     C_R   0.192566 0.201773 0.859920 0.025100
C30   C     C_R   0.096855 0.247758 0.646467 0.027062
C31   C     C_R   0.983465 0.219110 0.724029 -0.061385
C32   C     C_R   0.991611 0.225687 0.665473 -0.000829
C33   C     C_R   0.190951 0.260853 0.686845 -0.124279
C34   C     C_R   0.143210 0.615508 0.592626 0.555254
C35   C     C_R   0.182671 0.252571 0.744789 0.004938
C36   C     C_R   0.080641 0.227557 0.764288 0.065426
C37   C     C_R   0.081036 0.209000 0.823426 -0.017380
C38   C     C_R   0.276083 0.252151 0.841226 0.098765
C39   C     C_R   0.272706 0.274294 0.783530 -0.098276
C40   C     C_R   0.124849 0.737033 0.857380 0.003292
C41   C     C_R   0.174406 0.640894 0.651990 0.004214
C42   C     C_R   0.314169 0.586227 0.741449 0.089994
C43   C     C_R   0.298059 0.583397 0.681683 -0.032333
C44   C     C_R   0.072920 0.718092 0.681005 0.102851
C45   C     C_R   0.748584 0.602009 0.565486 0.552002
C46   C     C_R   0.094872 0.731029 0.739425 0.033581
C47   C     C_R   0.210877 0.656659 0.770238 -0.001647
C48   C     C_R   0.224149 0.661310 0.829400 -0.107477
C49   C     C_R   0.003595 0.794797 0.827639 0.014942
C50   C     C_R   0.998481 0.809709 0.769240 0.136500
C51   C     C_R   0.265384 0.109970 0.069255 0.538652
C52   C     C_R   0.532334 0.797805 0.085171 0.564765
C53   C     C_R   0.188483 0.787035 0.069433 0.542326
C54   C     C_R   0.239140 0.121373 0.910031 0.556116
C55   C     C_R   0.572817 0.777274 0.917980 0.559427
C56   C     C_R   0.097307 0.283410 0.587099 0.546622
C57   C     C_R   0.162606 0.783458 0.909433 0.551994
C58   C     C_R   0.554041 0.789123 0.147897 -0.000027
C59   C     C_R   0.661573 0.655640 0.354046 0.004885
C60   C     C_R   0.537091 0.617600 0.274119 -0.141413
Cr1   Cr    Cr6+3 0.189770 0.415650 0.511620 1.032309
Cr2   Cr    Cr6+3 0.930400 0.667320 0.496770 1.076696
Cr3   Cr    Cr6+3 0.879870 0.417010 0.491650 1.027225
Cr4   Cr    Cr6+3 0.149500 0.973980 0.985330 1.034533
Cr5   Cr    Cr6+3 0.457000 0.976510 0.994660 1.064989
Cr6   Cr    Cr6+3 0.411170 0.724270 0.995270 1.039417
H1    H     H_    0.066891 0.639330 0.230735 0.137278
H2    H     H_    0.547827 0.814337 0.722385 0.121998
H3    H     H_    0.899917 0.207816 0.737684 0.156498
H4    H     H_    0.343067 0.305108 0.768895 0.159420
H5    H     H_    0.269117 0.282588 0.673385 0.140350
H6    H     H_    0.315071 0.613270 0.853937 0.192477
H7    H     H_    0.609472 0.935846 0.152282 0.169572
H8    H     H_    0.487626 0.563253 0.257947 0.116765
H9    H     H_    0.569975 0.531889 0.354204 0.146902
H10   H     H_    0.727383 0.792930 0.344018 0.166591
H11   H     H_    0.281759 0.732052 0.263204 0.169730
O1    O     O_R   0.196340 0.303200 0.448500 -0.502152
O2    O     O_R   0.811960 0.658090 0.547150 -0.466152
O3    O     O_R   0.757930 0.506140 0.547110 -0.528704
O4    O     O_R   0.988670 0.321620 0.556040 -0.505641
O5    O     O_3   0.000020 0.499990 0.500010 -0.258022
O6    O     O_R   0.113660 0.883270 0.047820 -0.487738
O7    O     O_R   0.186930 0.068530 0.043990 -0.492226
O8    O     O_R   0.377770 0.089040 0.054220 -0.508061
O9    O     O_R   0.562800 0.872960 0.056970 -0.497145
O10   O     O_R   0.555390 0.700940 0.062700 -0.518489
O11   O     O_R   0.295020 0.731920 0.049950 -0.539767
O12   O     O_R   0.199310 0.519670 0.454880 -0.500358
O13   O     O_R   0.094290 0.884230 0.921550 -0.514967
O14   O     O_R   0.168980 0.069410 0.926940 -0.506358
O15   O     O_R   0.358400 0.089990 0.927950 -0.475819
O16   O     O_R   0.544850 0.873850 0.939920 -0.491101
O17   O     O_R   0.536020 0.701900 0.936430 -0.478987
O18   O     O_R   0.277070 0.732810 0.932890 -0.499528
O19   O     O_3   0.339220 0.891590 0.991750 -0.279244
O20   O     O_R   0.045660 0.691380 0.441680 -0.492835
O21   O     O_R   0.811930 0.659460 0.430950 -0.503211
O22   O     O_R   0.757900 0.507620 0.421760 -0.516526
O23   O     O_R   0.988630 0.322990 0.439840 -0.487440
O24   O     O_R   0.196380 0.301720 0.573850 -0.515205
O25   O     O_R   0.199350 0.518300 0.571080 -0.508113
O26   O     O_R   0.045700 0.689900 0.567030 -0.477174
C61   C     C_3   0.491311 0.608509 0.155161 -0.359282
H12   H     H_    0.401545 0.611782 0.171765 0.107424
H13   H     H_    0.469458 0.605382 0.109411 0.198232
H14   H     H_    0.568705 0.524945 0.168103 0.134004
I1    I     I_    0.842465 0.522742 0.782552 -0.366353
C62   C     C_3   0.965328 0.198450 0.847342 -0.349212
H15   H     H_    0.965471 0.216787 0.893243 0.158007
H16   H     H_    0.874055 0.262910 0.826671 0.172509
H17   H     H_    0.964435 0.111991 0.841260 0.171907
I2    I     I_    0.409147 0.298356 0.897172 -0.304846
C63   C     C_3   0.885944 0.210396 0.625023 -0.350670
H18   H     H_    0.928788 0.150284 0.591916 0.153739
H19   H     H_    0.825278 0.175268 0.647269 0.160866
H20   H     H_    0.820364 0.293553 0.604962 0.169627
C64   C     C_3   0.886308 0.855809 0.857942 -0.334412
H21   H     H_    0.797931 0.856830 0.831643 0.159188
H22   H     H_    0.892756 0.811215 0.899347 0.135878
H23   H     H_    0.876219 0.945039 0.865351 0.176481
I3    I     I_    0.497482 0.483756 0.786934 -0.389482
I4    I     I_    0.896350 0.983375 0.740621 -0.449060
C65   C     C_3   0.413186 0.519455 0.650498 -0.355352
H24   H     H_    0.498215 0.539310 0.667577 0.160976
H25   H     H_    0.436477 0.426609 0.655464 0.160540
H26   H     H_    0.397572 0.545141 0.604643 0.137046
I5    I     I_    0.872485 0.796875 0.643847 -0.287974
I6    I     I_    0.707262 0.978324 0.270223 -0.355738
I7    I     I_    0.182629 0.997848 0.245339 -0.363826
C66   C     C_3   0.163377 0.358902 0.238242 -0.399031
H27   H     H_    0.176037 0.404992 0.200638 0.136302
H28   H     H_    0.066022 0.406354 0.251278 0.134246
H29   H     H_    0.238129 0.357280 0.273418 0.144742

loop_
_geom_bond_atom_site_label_1
_geom_bond_atom_site_label_2
_ccdc_geom_bond_type
Cr5   O15   S    
C1    C21   S    
C6    C58   A    
Cr1   O24   S    
C35   C36   A    
C9    C51   S    
C24   C27   S    
Cr4   O13   S    
C4    C8    A    
C66   H29   S    
C51   O8    A    
C61   H13   S    
C63   H18   S    
C7    C8    A    
C7    H7    S    
C16   C53   S    
C34   O25   A    
Cr3   O4    S    
Cr6   O19   S    
C36   C37   A    
C19   C21   T    
C56   O24   A    
Cr1   O5    S    
C62   H16   S    
Cr6   O11   S    
C5    C6    A    
C2    C60   A    
C29   C54   S    
C40   C49   A    
C17   C20   S    
C18   C19   S    
C64   H21   S    
Cr4   O7    S    
C12   O22   A    
Cr3   O22   S    
Cr2   O21   S    
C12   C59   S    
Cr5   O19   S    
C31   C32   A    
C44   C46   A    
C29   C38   A    
C6    C61   S    
C53   O11   A    
C7    C58   A    
C37   C62   S    
C30   C33   A    
C55   O16   A    
Cr6   O17   S    
C15   C23   S    
Cr5   O16   S    
C23   O23   A    
Cr2   O5    S    
C41   C43   A    
C34   C41   S    
C48   H6    S    
C55   O17   A    
C61   H12   S    
Cr1   O12   S    
Cr3   O3    S    
C28   C45   S    
C17   H1    S    
C57   O13   A    
Cr3   O5    S    
Cr2   O2    S    
Cr5   O9    S    
C24   C25   D    
Cr4   O19   S    
C10   C14   S    
C62   H17   S    
C1    O20   A    
Cr6   O10   S    
C38   I2    S    
C33   H5    S    
C2    C59   A    
C25   C26   S    
C30   C56   S    
C64   H23   S    
C35   C39   A    
C9    C14   T    
Cr4   O6    S    
C54   O15   A    
Cr3   O23   S    
Cr2   O20   S    
C47   C48   A    
Cr1   O1    S    
C16   C20   T    
C17   C18   D    
C45   O2    A    
C3    H10   S    
C52   C58   S    
C65   H26   S    
C22   C27   T    
C13   C15   T    
C41   C44   A    
C42   C43   A    
C3    C4    A    
C11   I7    S    
C42   I3    S    
C65   H25   S    
Cr2   O26   S    
C40   C48   A    
C46   C47   A    
C44   I5    S    
C1    O12   A    
C40   C57   S    
C5    C60   A    
C12   O21   A    
C52   O10   A    
C50   I4    S    
C10   C66   S    
C4    C5    A    
C66   H28   S    
C63   H19   S    
Cr5   O8    S    
C22   C55   S    
C46   C50   A    
C26   C28   T    
C34   O26   A    
C53   O6    A    
C52   O9    A    
Cr1   O25   S    
C54   O14   A    
C62   H15   S    
C30   C32   A    
C11   C13   S    
C38   C39   A    
C18   H11   S    
C43   C65   S    
C60   H8    S    
C33   C35   A    
C39   H4    S    
C56   O4    A    
C45   O3    A    
C42   C47   A    
C23   O1    A    
C64   H22   S    
C63   H20   S    
C10   C11   D    
C24   H2    S    
C49   C64   S    
C31   H3    S    
C49   C50   A    
C57   O18   A    
C29   C37   A    
C8    I6    S    
C31   C36   A    
C65   H24   S    
Cr4   O14   S    
C32   C63   S    
C51   O7    A    
C61   H14   S    
C2    H9    S    
C66   H27   S    
C25   I1    S    
Cr6   O18   S    
C3    C59   A    
