data_mof_unit_pretest_634.cif
_audit_creation_date              2012-12-10T16:42:41-0500
_audit_creation_method            fapswitch 2.2
_symmetry_space_group_name_H-M    P1
_symmetry_Int_Tables_number       1
_space_group_crystal_system       triclinic
_cell_length_a                    15.838832
_cell_length_b                    17.950413
_cell_length_c                    29.158843
_cell_angle_alpha                 90.183836
_cell_angle_beta                  90.39405
_cell_angle_gamma                 89.652478
_cell_volume                      8289.86479466

loop_
_atom_site_label
_atom_site_type_symbol
_atom_type_description
_atom_site_fract_x
_atom_site_fract_y
_atom_site_fract_z
_atom_type_partial_charge
C1    C     C_R   0.500343 0.389874 0.058972 0.722526
C2    C     C_R   0.499981 0.610430 0.058821 0.741808
C3    C     C_R   0.588155 0.995593 0.662138 -0.220222
C4    C     C_R   0.212498 0.007388 0.734844 -0.193712
C5    C     C_R   0.657083 0.998387 0.574278 -0.255640
C6    C     C_R   0.048741 0.017703 0.698728 -0.185782
C7    C     C_1   0.471844 0.931679 0.810293 -0.008585
C8    C     C_1   0.473432 0.066202 0.809363 -0.015276
C9    C     C_1   0.509534 0.997171 0.741695 -0.023672
C10   C     C_1   0.368751 0.999876 0.767078 -0.029405
C11   C     C_1   0.481228 0.876248 0.833141 -0.005548
C12   C     C_1   0.483323 0.123105 0.830854 0.002410
C13   C     C_1   0.297213 0.002417 0.752866 0.119174
C14   C     C_1   0.547737 0.996463 0.706170 0.105722
C15   C     C_R   0.590859 0.025055 0.296368 -0.257179
C16   C     C_R   0.409463 0.899350 0.317353 -0.252278
C17   C     C_R   0.374542 0.016942 0.281270 -0.286998
C18   C     C_R   0.621087 0.892982 0.301203 -0.282786
C19   C     C_R   0.652460 0.039083 0.329822 0.559557
C20   C     C_R   0.348839 0.912729 0.350806 0.563409
C21   C     C_R   0.313519 0.030305 0.314856 0.566211
C22   C     C_R   0.682909 0.907036 0.334290 0.548942
C23   C     C_R   0.568474 0.024237 0.189868 -0.285212
C24   C     C_R   0.426734 0.812459 0.226276 -0.264851
C25   C     C_R   0.422409 0.990557 0.178655 -0.294376
C26   C     C_R   0.572689 0.831275 0.206277 -0.295004
C27   C     C_R   0.566833 0.064255 0.148565 0.409802
C28   C     C_R   0.430072 0.740657 0.207517 0.421050
C29   C     C_R   0.418025 0.033976 0.138476 0.408187
C30   C     C_R   0.578904 0.757327 0.190264 0.408284
C31   C     C_R   0.499528 0.611248 0.942140 0.894310
C32   C     C_R   0.499887 0.389377 0.941088 0.860356
C33   C     C_3   0.498068 0.937205 0.248775 0.142757
C34   C     C_R   0.574919 0.951822 0.280601 -0.061387
C35   C     C_R   0.422608 0.950246 0.281265 -0.065506
C36   C     C_R   0.698430 0.979956 0.348930 -0.110115
C37   C     C_R   0.300804 0.978272 0.349765 -0.123098
C38   C     C_R   0.495858 0.988175 0.206190 0.004765
C39   C     C_R   0.499164 0.857712 0.228083 -0.006051
C40   C     C_R   0.491055 0.070489 0.123563 -0.053736
C41   C     C_R   0.507084 0.711900 0.191377 -0.075576
C42   C     C_1   0.238875 0.991115 0.384818 0.134931
C43   C     C_1   0.759743 0.992619 0.384642 0.113448
C44   C     C_1   0.186821 0.997581 0.414495 -0.131573
C45   C     C_1   0.812044 0.998636 0.414533 -0.171459
C46   C     C_1   0.488794 0.113341 0.081717 0.093523
C47   C     C_1   0.512831 0.634871 0.177314 0.057685
C48   C     C_1   0.486957 0.149142 0.046796 -0.022199
C49   C     C_1   0.517696 0.570217 0.166260 -0.020620
C50   C     C_R   0.123610 0.999642 0.449356 0.840434
C51   C     C_R   0.875905 0.999964 0.449453 0.829824
C52   C     C_R   0.543739 0.752522 0.848721 -0.245917
C53   C     C_R   0.421157 0.240005 0.858144 -0.254500
C54   C     C_R   0.438899 0.803771 0.900010 -0.276656
C55   C     C_R   0.564730 0.210008 0.879402 -0.251209
C56   C     C_R   0.892825 0.000214 0.569374 0.716102
C57   C     C_R   0.107360 0.999934 0.569495 0.682635
C58   C     C_R   0.550370 0.687967 0.875949 0.373731
C59   C     C_R   0.423428 0.304779 0.885439 0.392183
C60   C     C_R   0.441218 0.738198 0.926566 0.380848
C61   C     C_R   0.570549 0.276528 0.904950 0.385132
C62   C     C_R   0.567341 0.939479 0.630196 0.308944
C63   C     C_R   0.189053 0.069113 0.707852 0.274295
C64   C     C_R   0.154123 0.950576 0.743599 0.297950
C65   C     C_R   0.643981 0.052911 0.650165 0.344378
C66   C     C_R   0.605928 0.938593 0.587041 0.351402
C67   C     C_R   0.105566 0.075612 0.691410 0.304625
C68   C     C_R   0.072677 0.954674 0.723773 0.305712
C69   C     C_R   0.674321 0.056787 0.605020 0.297845
C70   C     C_3   0.456789 0.998528 0.782555 -0.003290
C71   C     C_R   0.488653 0.810272 0.860939 0.025890
C72   C     C_R   0.490314 0.191797 0.856259 0.016345
C73   C     C_R   0.497240 0.679961 0.914220 -0.185380
C74   C     C_R   0.498591 0.323457 0.909590 -0.215839
Cu1   Cu    Cu3+1 0.415470 0.500000 0.000080 0.966406
Cu2   Cu    Cu3+1 0.584530 0.500000 0.000080 0.988435
Cu3   Cu    Cu3+1 1.000000 0.072960 0.508900 0.985862
Cu4   Cu    Cu3+1 0.000000 0.927040 0.508900 0.949894
H1    H     H_    0.581275 0.757407 0.817983 0.154321
H2    H     H_    0.364678 0.226739 0.838706 0.155978
H3    H     H_    0.398797 0.850171 0.909721 0.143612
H4    H     H_    0.618409 0.172425 0.877869 0.152768
H5    H     H_    0.553973 0.071423 0.283299 0.193573
H6    H     H_    0.447504 0.849209 0.319974 0.193402
H7    H     H_    0.385578 0.060287 0.256425 0.184928
H8    H     H_    0.607595 0.835351 0.293525 0.183457
H9    H     H_    0.627844 0.019866 0.208099 0.163377
H10   H     H_    0.366785 0.832510 0.238930 0.165989
H11   H     H_    0.368373 0.958175 0.188785 0.156430
H12   H     H_    0.626530 0.867691 0.203620 0.159205
O1    O     O_R   0.429360 0.416280 0.044700 -0.590506
O2    O     O_R   0.570640 0.583720 0.044700 -0.576012
O3    O     O_R   0.570640 0.416280 0.044700 -0.566599
O4    O     O_R   0.429360 0.583720 0.044700 -0.586535
O5    O     O_R   0.427420 0.583550 0.955440 -0.566455
O6    O     O_R   0.572580 0.416450 0.955440 -0.554390
O7    O     O_R   0.572580 0.583550 0.955440 -0.585045
O8    O     O_R   0.427420 0.416450 0.955440 -0.562197
O9    O     O_R   0.093410 0.059470 0.464300 -0.574609
O10   O     O_R   0.906590 0.940530 0.464300 -0.575778
O11   O     O_R   0.906590 0.059470 0.464300 -0.585804
O12   O     O_R   0.093410 0.940530 0.464300 -0.564239
O13   O     O_R   0.920740 0.061400 0.553530 -0.540424
O14   O     O_R   0.079260 0.938600 0.553530 -0.557587
O15   O     O_R   0.079260 0.061400 0.553530 -0.529638
O16   O     O_R   0.920740 0.938600 0.553530 -0.581394
O17   O     O_3   0.601858 0.629031 0.862829 -0.604721
C75   C     C_3   0.687840 0.650442 0.862188 0.075617
H13   H     H_    0.722592 0.615233 0.887375 0.164222
H14   H     H_    0.699662 0.709600 0.872304 0.123411
C76   C     C_3   0.723995 0.635891 0.814466 -0.336772
H15   H     H_    0.716543 0.576003 0.805592 0.229173
H16   H     H_    0.688608 0.669449 0.788705 0.218761
C77   C     C_3   0.817358 0.656047 0.812365 -0.928777
H17   H     H_    0.826109 0.716151 0.820123 0.259048
H18   H     H_    0.841637 0.644554 0.777399 0.259790
H19   H     H_    0.854309 0.622280 0.837366 0.254086
O18   O     O_3   0.355435 0.353989 0.885143 -0.588751
C78   C     C_3   0.280363 0.319365 0.900279 0.085873
H20   H     H_    0.257800 0.350324 0.930942 0.165996
H21   H     H_    0.288352 0.260097 0.911141 0.119606
C79   C     C_3   0.212707 0.324831 0.862674 -0.342220
H22   H     H_    0.200996 0.384407 0.854342 0.230211
H23   H     H_    0.235187 0.296314 0.831137 0.218247
C80   C     C_3   0.129996 0.289420 0.877641 -0.936925
H24   H     H_    0.139792 0.229328 0.885111 0.257769
H25   H     H_    0.082328 0.294726 0.849711 0.258259
H26   H     H_    0.105368 0.317859 0.908728 0.258317
O19   O     O_3   0.396839 0.731954 0.967424 -0.603099
C81   C     C_3   0.312836 0.758160 0.963185 0.069152
H27   H     H_    0.284539 0.743578 0.929174 0.140998
H28   H     H_    0.311348 0.819564 0.968241 0.147424
C82   C     C_3   0.259683 0.722425 0.000599 -0.299200
H29   H     H_    0.259847 0.660947 0.995860 0.228814
H30   H     H_    0.287801 0.735154 0.034750 0.219675
C83   C     C_3   0.168788 0.751069 0.999199 -0.957531
H31   H     H_    0.167068 0.812266 0.004978 0.264186
H32   H     H_    0.131781 0.723723 0.026533 0.263045
H33   H     H_    0.139103 0.738049 0.965517 0.256609
O20   O     O_3   0.644452 0.292211 0.928653 -0.585770
C84   C     C_3   0.710710 0.307966 0.897717 0.083266
H34   H     H_    0.731009 0.366349 0.903784 0.164759
H35   H     H_    0.692847 0.303872 0.860625 0.122626
C85   C     C_3   0.785514 0.255870 0.907349 -0.338981
H36   H     H_    0.807156 0.263576 0.943389 0.230729
H37   H     H_    0.765381 0.197093 0.902901 0.214469
C86   C     C_3   0.858939 0.271156 0.875110 -0.936456
H38   H     H_    0.839310 0.261721 0.838916 0.257547
H39   H     H_    0.912303 0.232920 0.883259 0.262311
H40   H     H_    0.880897 0.329466 0.879232 0.258194
O21   O     O_3   0.586458 0.882264 0.556273 -0.571474
C87   C     C_3   0.660468 0.843999 0.542322 0.100405
H41   H     H_    0.645997 0.783508 0.542367 0.171481
H42   H     H_    0.715501 0.851345 0.566101 0.109165
C88   C     C_3   0.684434 0.866650 0.493557 -0.354998
H43   H     H_    0.628907 0.860265 0.470384 0.253952
H44   H     H_    0.703920 0.925974 0.493204 0.207722
C89   C     C_3   0.756832 0.818477 0.475659 -0.812870
H45   H     H_    0.812857 0.823340 0.498574 0.251265
H46   H     H_    0.774476 0.837091 0.440798 0.307109
H47   H     H_    0.737405 0.759193 0.473714 0.251734
O22   O     O_3   0.080600 0.135893 0.665145 -0.590649
C90   C     C_3   0.061174 0.197007 0.694103 0.128553
H48   H     H_    0.070378 0.248714 0.673958 0.163603
H49   H     H_    0.104058 0.201279 0.724542 0.149639
C91   C     C_3   0.968808 0.193971 0.709332 -0.390779
H50   H     H_    0.926881 0.191226 0.678650 0.236917
H51   H     H_    0.958868 0.143237 0.730144 0.219437
C92   C     C_3   0.944922 0.261900 0.738133 -0.930624
H52   H     H_    0.984837 0.264561 0.769571 0.258066
H53   H     H_    0.877783 0.257821 0.748504 0.254225
H54   H     H_    0.953087 0.313755 0.718005 0.263387
O23   O     O_3   0.014170 0.899223 0.731025 -0.600724
C93   C     C_3   0.028984 0.839438 0.700293 0.092355
H55   H     H_    0.006082 0.787783 0.716866 0.162159
H56   H     H_    0.097312 0.829898 0.692988 0.151006
C94   C     C_3   0.979438 0.851078 0.655528 -0.370073
H57   H     H_    0.911210 0.857976 0.663277 0.220329
H58   H     H_    0.001599 0.902380 0.638342 0.221438
C95   C     C_3   0.991069 0.785297 0.622873 -0.872426
H59   H     H_    0.058696 0.778875 0.613699 0.254499
H60   H     H_    0.953946 0.795068 0.590997 0.263867
H61   H     H_    0.968639 0.733132 0.639019 0.244321
O24   O     O_3   0.722621 0.117255 0.592106 -0.595126
C96   C     C_3   0.686671 0.153075 0.553273 0.094810
H62   H     H_    0.690621 0.214149 0.559109 0.161468
H63   H     H_    0.618170 0.140834 0.547907 0.134098
C97   C     C_3   0.737073 0.133759 0.510201 -0.364777
H64   H     H_    0.802671 0.154362 0.514400 0.246387
H65   H     H_    0.739421 0.072414 0.505399 0.213034
C98   C     C_3   0.697804 0.168993 0.467492 -0.820401
H66   H     H_    0.633113 0.147174 0.461678 0.266887
H67   H     H_    0.736853 0.155146 0.437121 0.290460
H68   H     H_    0.694889 0.230545 0.471286 0.250162
O25   O     O_3   0.513440 0.882429 0.642135 -0.570075
C99   C     C_3   0.429769 0.904552 0.631629 0.078273
H69   H     H_    0.422187 0.913917 0.594044 0.166543
H70   H     H_    0.412566 0.956458 0.650447 0.124977
C100  C     C_3   0.369269 0.843245 0.646340 -0.287526
H71   H     H_    0.385412 0.790696 0.628040 0.233192
H72   H     H_    0.376312 0.833635 0.683830 0.231408
C101  C     C_3   0.277582 0.864079 0.635724 -0.937901
H73   H     H_    0.259037 0.915002 0.654926 0.241810
H74   H     H_    0.235619 0.817899 0.646147 0.261095
H75   H     H_    0.268844 0.873990 0.598404 0.257355
O26   O     O_3   0.246835 0.124823 0.699439 -0.591229
C102  C     C_3   0.288605 0.109277 0.657750 0.075023
H76   H     H_    0.249736 0.130666 0.628661 0.172377
H77   H     H_    0.300269 0.048506 0.652394 0.105778
C103  C     C_3   0.374132 0.148334 0.658200 -0.308766
H78   H     H_    0.364366 0.209260 0.662823 0.229159
H79   H     H_    0.412545 0.127335 0.687542 0.232227
C104  C     C_3   0.422426 0.134560 0.613800 -0.924414
H80   H     H_    0.434023 0.074082 0.608647 0.238280
H81   H     H_    0.484358 0.163140 0.615583 0.269877
H82   H     H_    0.386165 0.156752 0.584053 0.259506
O27   O     O_3   0.179362 0.887930 0.767788 -0.598914
C105  C     C_3   0.145131 0.889353 0.812527 0.120724
H83   H     H_    0.121977 0.832445 0.820145 0.163638
H84   H     H_    0.089996 0.927866 0.816752 0.138400
C106  C     C_3   0.214189 0.909425 0.847358 -0.365333
H85   H     H_    0.269561 0.871875 0.842623 0.234282
H86   H     H_    0.234727 0.967688 0.841629 0.219044
C107  C     C_3   0.182763 0.902365 0.896482 -0.954739
H87   H     H_    0.127765 0.939885 0.902138 0.263589
H88   H     H_    0.233937 0.918261 0.920741 0.254882
H89   H     H_    0.164118 0.844011 0.903578 0.255913
O28   O     O_3   0.660539 0.109946 0.680976 -0.577712
C108  C     C_3   0.742251 0.100463 0.700234 0.109859
H90   H     H_    0.765303 0.156479 0.710454 0.171041
H91   H     H_    0.789306 0.077671 0.675455 0.135861
C109  C     C_3   0.738785 0.051356 0.743134 -0.389739
H92   H     H_    0.689702 0.073261 0.766780 0.236875
H93   H     H_    0.721776 0.993589 0.733106 0.217605
C110  C     C_3   0.823502 0.049239 0.768291 -0.909291
H94   H     H_    0.873565 0.027292 0.745335 0.274322
H95   H     H_    0.819028 0.012104 0.798544 0.264189
H96   H     H_    0.840692 0.105921 0.780406 0.253890
F1    F     F_    0.665689 0.110044 0.344282 -0.654536
F2    F     F_    0.338026 0.862057 0.384714 -0.641609
F3    F     F_    0.268254 0.094747 0.313839 -0.647717
F4    F     F_    0.725875 0.848881 0.353093 -0.672346
O29   O     O_3   0.638132 0.101121 0.133588 -0.598784
C111  C     C_3   0.703269 0.049822 0.122329 0.050563
H97   H     H_    0.717767 0.056773 0.085361 0.166514
H98   H     H_    0.686656 0.989912 0.127171 0.119474
C112  C     C_3   0.782448 0.067800 0.150507 -0.314047
H99   H     H_    0.800331 0.126816 0.144787 0.237522
H100  H     H_    0.769085 0.060451 0.187565 0.219294
C113  C     C_3   0.856399 0.017433 0.137251 -0.930934
H101  H     H_    0.840235 0.958128 0.142969 0.257067
H102  H     H_    0.912441 0.031356 0.158633 0.265769
H103  H     H_    0.872632 0.025505 0.100610 0.256904
O30   O     O_3   0.358132 0.697387 0.206871 -0.591967
C114  C     C_3   0.313674 0.708581 0.165072 0.059614
H104  H     H_    0.295339 0.652970 0.151598 0.169264
H105  H     H_    0.351573 0.735513 0.137511 0.115100
C115  C     C_3   0.233356 0.754165 0.173847 -0.329536
H106  H     H_    0.193700 0.724818 0.199291 0.238921
H107  H     H_    0.250237 0.809508 0.188169 0.206456
C116  C     C_3   0.182399 0.765531 0.129799 -0.934900
H108  H     H_    0.219732 0.797501 0.104557 0.259655
H109  H     H_    0.123838 0.797344 0.137507 0.262052
H110  H     H_    0.164650 0.710921 0.114663 0.259808
O31   O     O_3   0.346500 0.035501 0.110471 -0.608608
C117  C     C_3   0.271233 0.048132 0.135433 0.065794
H111  H     H_    0.237324 0.095575 0.119090 0.165437
H112  H     H_    0.281374 0.064801 0.171965 0.140307
C118  C     C_3   0.214834 0.979294 0.132180 -0.350181
H113  H     H_    0.197921 0.968838 0.095669 0.227855
H114  H     H_    0.249484 0.929681 0.145137 0.218256
C119  C     C_3   0.134122 0.989505 0.159833 -0.902178
H115  H     H_    0.149605 0.997735 0.196714 0.269259
H116  H     H_    0.094298 0.939094 0.156286 0.255076
H117  H     H_    0.097659 0.038366 0.147081 0.257742
O32   O     O_3   0.652264 0.729911 0.170269 -0.607498
C120  C     C_3   0.724086 0.740901 0.198746 0.081404
H118  H     H_    0.755612 0.685958 0.203399 0.169485
H119  H     H_    0.709506 0.761590 0.233996 0.143195
C121  C     C_3   0.785946 0.793250 0.175067 -0.365263
H120  H     H_    0.807320 0.767440 0.142413 0.230011
H121  H     H_    0.754042 0.846788 0.166720 0.209100
C122  C     C_3   0.862716 0.808967 0.205414 -0.888529
H122  H     H_    0.842929 0.837367 0.237538 0.273452
H123  H     H_    0.907088 0.845749 0.186945 0.251889
H124  H     H_    0.896066 0.756190 0.214073 0.262120

loop_
_geom_bond_atom_site_label_1
_geom_bond_atom_site_label_2
_ccdc_geom_bond_type
C57   O15   A    
C114  H105  S    
C30   O32   S    
Cu4   O12   S    
C29   O31   S    
C92   H52   S    
C60   C73   A    
Cu3   O11   S    
C90   H48   S    
C121  C122  S    
C9    C14   T    
C107  H87   S    
C7    C70   S    
C77   H17   S    
C53   C59   A    
Cu1   O5    S    
C47   C49   T    
C54   C60   A    
O23   C93   S    
C111  H97   S    
C40   C46   S    
C104  H82   S    
C4    C63   A    
C50   O9    A    
C33   C39   S    
C101  H74   S    
C64   O27   S    
C97   C98   S    
C17   H7    S    
C64   C68   A    
C21   F3    S    
C90   H49   S    
C31   O5    A    
C28   O30   S    
O19   C81   S    
C106  C107  S    
C19   C36   A    
C83   H33   S    
C16   C35   A    
C32   C74   S    
C116  H108  S    
C25   C38   A    
C11   C71   S    
C26   C39   A    
C3    C62   A    
C122  H123  S    
C45   C51   S    
C113  H102  S    
O29   C111  S    
C100  C101  S    
C28   C41   A    
C16   H6    S    
C24   C39   A    
C75   H13   S    
C97   H65   S    
C58   O17   S    
C99   H69   S    
C4    C13   S    
C119  H117  S    
O18   C78   S    
C111  H98   S    
C5    C69   A    
C89   H47   S    
C15   C19   A    
C53   H2    S    
C103  H78   S    
C96   H62   S    
C54   C71   A    
C86   H38   S    
C75   H14   S    
C119  H115  S    
C94   H58   S    
C101  H75   S    
C102  C103  S    
C110  H94   S    
C30   C41   A    
Cu3   O9    S    
C23   C27   A    
C8    C12   T    
C52   H1    S    
O31   C117  S    
C15   C34   A    
C55   C72   A    
C95   H61   S    
Cu1   O1    S    
C113  H103  S    
C104  H81   S    
C80   H24   S    
C12   C72   S    
O21   C87   S    
C100  H71   S    
C1    O1    A    
C23   H9    S    
C120  H118  S    
C88   C89   S    
C89   H46   S    
C110  H95   S    
C3    C65   A    
C42   C44   T    
C62   O25   S    
C85   C86   S    
C100  H72   S    
O28   C108  S    
C108  H90   S    
C95   H60   S    
C7    C11   T    
C46   C48   T    
C112  H100  S    
C25   C29   A    
C63   C67   A    
C86   H39   S    
C101  H73   S    
C62   C66   A    
Cu4   O14   S    
C102  H76   S    
C92   H54   S    
C2    O4    A    
C91   H51   S    
O20   C84   S    
C120  C121  S    
C85   H37   S    
C117  H111  S    
C84   C85   S    
C116  H109  S    
C118  H114  S    
O26   C102  S    
C85   H36   S    
C96   C97   S    
C15   H5    S    
O25   C99   S    
O27   C105  S    
Cu3   Cu4   S    
C63   O26   S    
Cu1   O8    S    
C17   C21   A    
C98   H66   S    
C65   O28   S    
C27   O29   S    
C97   H64   S    
C55   H4    S    
C89   H45   S    
C81   H28   S    
Cu1   Cu2   S    
C98   H67   S    
C103  C104  S    
C106  H85   S    
C19   F1    S    
Cu2   O3    S    
C82   C83   S    
C18   C34   A    
Cu2   O7    S    
C105  H84   S    
C59   C74   A    
C87   C88   S    
C104  H80   S    
C27   C40   A    
C16   C20   A    
C94   C95   S    
C6    C68   A    
C90   C91   S    
C37   C42   S    
C109  H93   S    
C33   C34   S    
C41   C47   S    
C76   H16   S    
C18   H8    S    
C121  H120  S    
C78   H20   S    
C2    O2    A    
C88   H44   S    
C43   C45   T    
C93   C94   S    
C56   O16   A    
C78   H21   S    
C52   C58   A    
Cu2   O2    S    
C10   C70   S    
C99   H70   S    
C6    C67   A    
C32   O6    A    
C87   H42   S    
C50   O12   A    
C59   O18   S    
C103  H79   S    
C120  H119  S    
Cu4   O10   S    
C91   H50   S    
C108  H91   S    
C110  H96   S    
Cu3   O13   S    
C115  C116  S    
C26   H12   S    
C96   H63   S    
O17   C75   S    
C79   H23   S    
C114  H104  S    
C23   C38   A    
C107  H89   S    
C86   H40   S    
C22   F4    S    
C95   H59   S    
C105  C106  S    
C80   H25   S    
O22   C90   S    
C92   H53   S    
C112  C113  S    
C44   C50   S    
C51   O10   A    
C1    O3    A    
C57   O14   A    
C76   H15   S    
C99   C100  S    
C18   C22   A    
C8    C70   S    
C24   H10   S    
C78   C79   S    
C24   C28   A    
C56   O13   A    
C121  H121  S    
C5    C66   A    
C10   C13   T    
C107  H88   S    
C60   O19   S    
C116  H110  S    
C77   H18   S    
C112  H99   S    
C111  C112  S    
C61   O20   S    
C26   C30   A    
C31   O7    A    
C3    C14   S    
C61   C74   A    
C108  C109  S    
C115  H107  S    
C22   C36   A    
C4    C64   A    
C25   H11   S    
C33   C38   S    
C75   C76   S    
Cu4   O16   S    
C68   O23   S    
C122  H122  S    
O30   C114  S    
C84   H35   S    
C81   H27   S    
C113  H101  S    
C98   H68   S    
C66   O21   S    
C106  H86   S    
C52   C71   A    
C20   F2    S    
C84   H34   S    
Cu2   O6    S    
C20   C37   A    
C67   O22   S    
C105  H83   S    
C82   H29   S    
C117  C118  S    
C79   C80   S    
C80   H26   S    
C65   C69   A    
C55   C61   A    
C29   C40   A    
Cu3   O15   S    
C109  H92   S    
C33   C35   S    
C32   O8    A    
C115  H106  S    
C76   C77   S    
C109  C110  S    
C93   H56   S    
C114  C115  S    
C77   H19   S    
C31   C73   S    
C117  H112  S    
C69   O24   S    
C9    C70   S    
C81   C82   S    
C21   C37   A    
O32   C120  S    
Cu1   O4    S    
C91   C92   S    
C119  H116  S    
C94   H57   S    
C118  C119  S    
C83   H32   S    
C88   H43   S    
C102  H77   S    
C82   H30   S    
C83   H31   S    
C36   C43   S    
O24   C96   S    
C87   H41   S    
C17   C35   A    
C79   H22   S    
C118  H113  S    
C53   C72   A    
C54   H3    S    
C51   O11   A    
C58   C73   A    
C122  H124  S    
C93   H55   S    
