data_mof_unit_pretest_1580.cif
_audit_creation_date              2012-10-26T21:20:31-0400
_audit_creation_method            fapswitch 2.2
_symmetry_space_group_name_H-M    P1
_symmetry_Int_Tables_number       1
_space_group_crystal_system       triclinic
_cell_length_a                    15.144081
_cell_length_b                    13.974453
_cell_length_c                    14.34261
_cell_angle_alpha                 90.0
_cell_angle_beta                  91.593259
_cell_angle_gamma                 89.999987
_cell_volume                      3034.15663427

loop_
_atom_site_label
_atom_site_type_symbol
_atom_type_description
_atom_site_fract_x
_atom_site_fract_y
_atom_site_fract_z
_atom_type_partial_charge
C1    C     C_R   0.330019 0.499976 0.499843 0.553295
C2    C     C_R   0.951418 0.499408 0.500138 0.032434
C3    C     C_R   0.499823 0.499998 0.331138 0.559786
C4    C     C_R   0.500177 0.499998 0.668862 0.559786
C5    C     C_R   0.560064 0.108128 0.555906 -0.110633
C6    C     C_R   0.448287 0.891932 0.435486 -0.109360
C7    C     C_R   0.439936 0.108128 0.444094 -0.110633
C8    C     C_R   0.551713 0.891932 0.564513 -0.109360
C9    C     C_R   0.558227 0.208638 0.556538 0.347824
C10   C     C_R   0.447669 0.791418 0.437382 0.349174
C11   C     C_R   0.441773 0.208638 0.443462 0.347824
C12   C     C_R   0.669981 0.499976 0.500157 0.553295
C13   C     C_R   0.552331 0.791418 0.562618 0.349174
C14   C     C_1   0.499806 0.500002 0.228802 0.020160
C15   C     C_1   0.500194 0.500002 0.771198 0.020160
C16   C     C_1   0.499846 0.500010 0.143379 0.000674
C17   C     C_1   0.500154 0.500010 0.856621 0.000674
C18   C     C_1   0.499949 0.500016 0.042713 0.029319
C19   C     C_1   0.500051 0.500016 0.957287 0.029319
C20   C     C_R   0.500000 0.054657 0.500000 -0.042753
C21   C     C_R   0.500000 0.945403 0.500000 -0.043011
C22   C     C_R   0.094418 0.581457 0.472040 -0.110501
C23   C     C_R   0.186211 0.581900 0.472794 -0.105720
C24   C     C_R   0.903851 0.417484 0.472455 -0.105187
C25   C     C_R   0.905582 0.581457 0.527959 -0.110501
C26   C     C_R   0.096149 0.417485 0.527546 -0.105187
C27   C     C_R   0.812063 0.417440 0.473195 -0.101847
C28   C     C_R   0.813789 0.581901 0.527204 -0.105720
C29   C     C_R   0.187937 0.417440 0.526805 -0.101847
C30   C     C_R   0.233513 0.499797 0.499815 0.023135
C31   C     C_R   0.766487 0.499797 0.500185 0.023134
C32   C     C_R   0.048582 0.499408 0.499862 0.032434
Cl1   Cl    Cl    0.633001 0.266530 0.633549 -0.562532
Cl2   Cl    Cl    0.376560 0.733680 0.356522 -0.584319
Cl3   Cl    Cl    0.366999 0.266530 0.366451 -0.562532
Cl4   Cl    Cl    0.623440 0.733680 0.643478 -0.584319
Cu1   Cu    Cu3+1 0.500000 0.596430 0.500000 1.090892
Cu2   Cu    Cu3+1 0.500000 0.403570 0.500000 1.090532
H1    H     H_    0.220004 0.646061 0.451087 0.182351
H2    H     H_    0.937471 0.353834 0.449078 0.122488
H3    H     H_    0.940626 0.644996 0.551310 0.122846
H4    H     H_    0.062529 0.353835 0.550924 0.122488
H5    H     H_    0.776792 0.353464 0.451348 0.152446
H6    H     H_    0.779996 0.646062 0.548910 0.182350
H7    H     H_    0.223208 0.353465 0.548654 0.152445
H8    H     H_    0.609546 0.073956 0.599841 0.144288
H9    H     H_    0.407723 0.926114 0.382347 0.145762
H10   H     H_    0.390454 0.073956 0.400159 0.144288
H11   H     H_    0.592277 0.926114 0.617653 0.145762
H12   H     H_    0.059373 0.644995 0.448688 0.122846
N1    N     N_R   0.500000 0.258690 0.500000 -0.211117
N2    N     N_R   0.500000 0.741310 0.500000 -0.207102
O1    O     O_R   0.371460 0.581430 0.500010 -0.473854
O2    O     O_R   0.628540 0.418570 0.499990 -0.465436
O3    O     O_R   0.628540 0.581430 0.499990 -0.473853
O4    O     O_R   0.371460 0.418570 0.500010 -0.465436
O5    O     O_R   0.500000 0.581450 0.376050 -0.444104
O6    O     O_R   0.500000 0.418550 0.623950 -0.451207
O7    O     O_R   0.500000 0.581450 0.623950 -0.444104
O8    O     O_R   0.500000 0.418550 0.376050 -0.451207

loop_
_geom_bond_atom_site_label_1
_geom_bond_atom_site_label_2
_ccdc_geom_bond_type
C6    C10   A    
C7    C11   A    
C26   C32   A    
C8    C13   A    
C23   H1    S    
C13   N2    A    
C5    H8    S    
C9    N1    A    
C24   C27   A    
C22   H12   S    
C10   N2    A    
C7    H10   S    
C4    C15   S    
C11   Cl3   S    
C8    C21   A    
Cu1   O1    S    
C10   Cl2   S    
C5    C20   A    
C12   O2    A    
C3    O8    A    
C25   C28   A    
C9    Cl1   S    
C5    C9    A    
Cu1   O7    S    
C3    C14   S    
C22   C32   A    
C26   C29   A    
Cu2   O8    S    
C3    O5    A    
C4    O7    A    
C2    C32   S    
C1    C30   S    
C17   C19   S    
Cu1   Cu2   S    
C28   H6    S    
C18   C19   T    
C2    C25   A    
C12   C31   S    
C2    C24   A    
C14   C16   T    
C12   O3    A    
C11   N1    A    
C6    H9    S    
C29   C30   A    
Cu1   O3    S    
C23   C30   A    
C27   H5    S    
Cu2   O4    S    
C20   C21   S    
C26   H4    S    
C13   Cl4   S    
C16   C18   S    
C7    C20   A    
C25   H3    S    
C15   C17   T    
Cu1   N2    S    
C1    O1    A    
C22   C23   A    
C24   H2    S    
Cu2   N1    S    
C4    O6    A    
Cu2   O6    S    
C6    C21   A    
C27   C31   A    
C8    H11   S    
C1    O4    A    
C28   C31   A    
Cu1   O5    S    
C29   H7    S    
Cu2   O2    S    
