data_mof_unit_pretest_1032.cif
_audit_creation_date              2012-12-10T20:43:43-0500
_audit_creation_method            fapswitch 2.2
_symmetry_space_group_name_H-M    P1
_symmetry_Int_Tables_number       1
_space_group_crystal_system       triclinic
_cell_length_a                    18.771214
_cell_length_b                    18.802842
_cell_length_c                    18.893682
_cell_angle_alpha                 109.934355
_cell_angle_beta                  109.781616
_cell_angle_gamma                 109.3088
_cell_volume                      5094.25739534

loop_
_atom_site_label
_atom_site_type_symbol
_atom_type_description
_atom_site_fract_x
_atom_site_fract_y
_atom_site_fract_z
_atom_type_partial_charge
C1    C     C_R   0.379193 0.499744 0.379756 0.924547
C2    C     C_R   0.312225 0.468221 0.029086 -0.246577
C3    C     C_R   0.120782 0.119739 0.500088 0.979053
C4    C     C_R   0.004214 0.380227 0.884002 0.884717
C5    C     C_R   0.120007 0.498137 0.117789 0.901744
C6    C     C_R   0.001814 0.620423 0.121288 0.933933
C7    C     C_R   0.879729 0.497160 0.877530 0.862643
C8    C     C_R   0.083991 0.771535 0.552088 -0.132643
C9    C     C_R   0.079565 0.781677 0.481644 -0.115701
C10   C     C_R   0.003040 0.726800 0.399084 -0.033887
C11   C     C_R   0.931327 0.654922 0.385156 0.457070
C12   C     C_R   0.936850 0.644060 0.458007 0.479666
C13   C     C_R   0.328793 0.551513 0.043407 0.415611
C14   C     C_R   0.857270 0.894046 0.826316 0.394267
C15   C     C_R   0.013456 0.703880 0.540743 -0.188730
C16   C     C_R   0.006494 0.678009 0.260774 0.400960
C17   C     C_R   0.005575 0.687758 0.190002 -0.203424
C18   C     C_R   0.008372 0.761642 0.185112 0.086663
C19   C     C_R   0.000685 0.819989 0.245999 -0.130931
C20   C     C_R   0.998827 0.809948 0.315482 -0.158390
C21   C     C_R   0.002697 0.739024 0.324563 0.018078
C22   C     C_R   0.111121 0.823869 0.136662 0.374565
C23   C     C_R   0.126314 0.829793 0.070228 0.302779
C24   C     C_R   0.081783 0.260696 0.753908 0.555109
C25   C     C_R   0.055079 0.783846 0.983965 0.348368
C26   C     C_3   0.471191 0.945897 0.666776 -0.170513
C27   C     C_3   0.584422 0.947485 0.570659 -0.238036
C28   C     C_3   0.634509 0.875927 0.841860 -0.168527
C29   C     C_3   0.832991 0.085753 0.812890 -0.306258
C30   C     C_3   0.253343 0.838010 0.416095 -0.184033
C31   C     C_3   0.397489 0.556833 0.857576 -0.261914
C32   C     C_3   0.367841 0.341008 0.781227 -0.145309
C33   C     C_3   0.780863 0.548086 0.287691 -0.149351
C34   C     C_3   0.842743 0.592819 0.504537 -0.356882
C35   C     C_R   0.817525 0.828728 0.573408 -0.214275
C36   C     C_3   0.249748 0.959210 0.131389 -0.169523
C37   C     C_3   0.108418 0.845522 0.913377 -0.172042
C38   C     C_3   0.879206 0.734241 0.846193 -0.175305
C39   C     C_3   0.169569 0.324741 0.709861 -0.344056
C40   C     C_3   0.675091 0.205030 0.478382 -0.234312
C41   C     C_3   0.600664 0.830432 0.374221 -0.180808
C42   C     C_R   0.000124 0.186956 0.685924 -0.208213
C43   C     C_R   0.921314 0.181672 0.679299 -0.016662
C44   C     C_R   0.925857 0.244725 0.747938 -0.303927
C45   C     C_R   0.006767 0.315078 0.819092 -0.166743
C46   C     C_R   0.086498 0.325327 0.822420 -0.067627
C47   C     C_R   0.794907 0.155557 0.553177 -0.280354
C48   C     C_R   0.787996 0.898376 0.835756 -0.187362
C49   C     C_R   0.716227 0.100282 0.471866 0.552945
C50   C     C_R   0.681336 0.009663 0.433129 -0.351054
C51   C     C_R   0.719974 0.972938 0.477394 0.529299
C52   C     C_R   0.796703 0.029734 0.559663 -0.192431
C53   C     C_R   0.811914 0.809506 0.493188 -0.027704
C54   C     C_R   0.835343 0.120728 0.597005 0.006929
C55   C     C_R   0.739954 0.732416 0.414740 0.037286
C56   C     C_R   0.681106 0.671643 0.422475 -0.281742
C57   C     C_R   0.687384 0.689911 0.503323 -0.082683
C58   C     C_R   0.754213 0.772074 0.580127 0.079925
C59   C     C_R   0.968909 0.740066 0.967124 0.465177
C60   C     C_R   0.636137 0.670347 0.254839 -0.149624
C61   C     C_R   0.618659 0.646698 0.169631 -0.069330
C62   C     C_R   0.686929 0.663696 0.152246 -0.126699
C63   C     C_R   0.622553 0.621285 0.502960 0.842468
C64   C     C_R   0.772609 0.703601 0.219897 -0.092159
C65   C     C_R   0.790449 0.727506 0.305370 -0.087645
C66   C     C_R   0.722748 0.712068 0.324565 0.082846
C67   C     C_R   0.365100 0.750106 0.540186 0.200446
C68   C     C_R   0.319451 0.675408 0.456900 0.303216
C69   C     C_R   0.362316 0.659630 0.410109 -0.077254
C70   C     C_R   0.954289 0.740486 0.035221 -0.389734
C71   C     C_R   0.448073 0.723493 0.443123 -0.364942
C72   C     C_R   0.491519 0.803073 0.521897 0.425830
C73   C     C_R   0.451267 0.815144 0.573107 0.346141
C74   C     C_R   0.254735 0.575635 0.254311 -0.122819
C75   C     C_R   0.618155 0.498265 0.620507 0.887966
C76   C     C_R   0.185883 0.495732 0.181192 -0.136526
C77   C     C_R   0.175585 0.415571 0.174281 -0.070097
C78   C     C_R   0.241605 0.417179 0.238538 0.366204
C79   C     C_R   0.311155 0.498566 0.313336 -0.182830
C80   C     C_R   0.313781 0.577883 0.323885 0.065634
C81   C     C_R   0.024668 0.780941 0.119979 -0.085349
C82   C     C_R   0.032752 0.283819 0.116284 -0.092463
C83   C     C_R   0.956430 0.205409 0.047045 -0.170021
C84   C     C_R   0.940614 0.172936 0.961294 0.622773
C85   C     C_R   0.005244 0.219852 0.946916 -0.185580
C86   C     C_R   0.080533 0.298853 0.016181 -0.157340
C87   C     C_R   0.379028 0.380061 0.499198 0.983222
C88   C     C_R   0.095755 0.330654 0.101298 0.152135
C89   C     C_R   0.233668 0.526568 0.593437 0.376521
C90   C     C_R   0.266024 0.468904 0.583162 -0.331359
C91   C     C_R   0.228193 0.395311 0.500927 0.031719
C92   C     C_R   0.273222 0.559889 0.979809 -0.166890
C93   C     C_R   0.160734 0.382958 0.427407 0.409543
C94   C     C_R   0.127704 0.440045 0.437943 -0.240722
C95   C     C_R   0.162378 0.510504 0.520908 0.448709
C96   C     C_R   0.176350 0.255160 0.497030 0.344944
C97   C     C_R   0.188741 0.187400 0.502875 -0.233815
C98   C     C_R   0.267243 0.186901 0.514924 -0.029036
C99   C     C_R   0.704752 0.857975 0.761208 0.504707
C100  C     C_R   0.329630 0.250500 0.512968 0.353514
C101  C     C_R   0.314579 0.315287 0.501886 -0.221734
C102  C     C_R   0.240239 0.320523 0.498303 -0.028530
C103  C     C_R   0.198299 0.485384 0.904584 -0.259276
C104  C     C_R   0.339054 0.142275 0.614698 -0.201252
C105  C     C_R   0.347155 0.078228 0.632081 0.417026
C106  C     C_R   0.303021 0.991789 0.563879 -0.450514
C107  C     C_R   0.253452 0.969087 0.476225 0.488453
C108  C     C_R   0.243268 0.034022 0.460064 0.389306
C109  C     C_R   0.284566 0.120086 0.529489 -0.027455
C110  C     C_R   0.558193 0.594693 0.851567 -0.371170
C111  C     C_R   0.694703 0.816196 0.678481 -0.098183
C112  C     C_R   0.612867 0.587848 0.817932 0.418274
C113  C     C_R   0.611111 0.507779 0.781080 -0.061244
C114  C     C_R   0.174548 0.402093 0.895150 0.041430
C115  C     C_R   0.555088 0.436306 0.780982 -0.368201
C116  C     C_R   0.501776 0.443437 0.816802 0.490323
C117  C     C_R   0.502509 0.523314 0.851799 0.414442
C118  C     C_R   0.744621 0.498583 0.821682 -0.190227
C119  C     C_R   0.812628 0.494393 0.809665 -0.024577
C120  C     C_R   0.818096 0.493395 0.736927 0.070053
C121  C     C_R   0.752714 0.494560 0.675651 -0.273850
C122  C     C_R   0.684180 0.498678 0.687497 -0.046644
C123  C     C_R   0.761699 0.805363 0.667907 -0.033574
C124  C     C_R   0.680608 0.502705 0.762259 0.135854
C125  C     C_R   0.236431 0.393210 0.954219 0.354290
C126  C     C_R   0.951597 0.565855 0.730041 -0.162682
C127  C     C_R   0.022662 0.566470 0.720803 0.468768
C128  C     C_R   0.032612 0.492952 0.703335 -0.142218
C129  C     C_R   0.972183 0.419280 0.696128 -0.197881
C130  C     C_R   0.902160 0.419170 0.707286 -0.174217
C131  C     C_R   0.891427 0.492482 0.724164 0.060081
C132  C     C_R   0.998438 0.877787 0.380100 0.881795
C133  C     C_R   0.879417 0.876310 0.495570 0.817345
C134  C     C_R   0.999354 0.119627 0.619927 0.935832
C135  C     C_R   0.843481 0.845109 0.743376 -0.315613
Cl1   Cl    Cl    0.315224 0.759413 0.604426 -0.465492
Cl2   Cl    Cl    0.179778 0.008913 0.352738 -0.556909
Cl3   Cl    Cl    0.688935 0.684212 0.832567 -0.689262
Cl4   Cl    Cl    0.100205 0.660007 0.732864 -0.537848
Cl5   Cl    Cl    0.963008 0.954936 0.918565 -0.634493
Cl6   Cl    Cl    0.021754 0.594175 0.274445 -0.487914
Cl7   Cl    Cl    0.200924 0.853436 0.233637 -0.505166
Cl8   Cl    Cl    0.418831 0.645535 0.140930 -0.701520
Cl9   Cl    Cl    0.221202 0.289853 0.937387 -0.552711
Cl10  Cl    Cl    0.207298 0.602228 0.409707 -0.519892
Cl11  Cl    Cl    0.233077 0.316283 0.226339 -0.492952
Cl12  Cl    Cl    0.112688 0.574972 0.532598 -0.397534
Cl13  Cl    Cl    0.279149 0.614228 0.698831 -0.508308
Cl14  Cl    Cl    0.107907 0.289102 0.324125 -0.528117
Cl15  Cl    Cl    0.083403 0.262968 0.494709 -0.612944
Cl16  Cl    Cl    0.428803 0.251153 0.529142 -0.616715
Cl17  Cl    Cl    0.410361 0.106062 0.740238 -0.593139
H1    H     H_    0.801090 0.936627 0.900934 0.186660
H2    H     H_    0.126551 0.336647 0.003799 0.158137
H3    H     H_    0.316544 0.477758 0.640256 0.179658
H4    H     H_    0.072714 0.427705 0.381980 0.234042
H5    H     H_    0.634218 0.793552 0.622030 0.219247
H6    H     H_    0.373457 0.208968 0.667802 0.199890
H7    H     H_    0.306835 0.942793 0.579925 0.182152
H8    H     H_    0.563405 0.657748 0.882944 0.203005
H9    H     H_    0.898060 0.842309 0.737468 0.175161
H10   H     H_    0.556735 0.375931 0.757656 0.224733
H11   H     H_    0.743030 0.501532 0.879502 0.152866
H12   H     H_    0.673287 0.644742 0.086135 0.160780
H13   H     H_    0.755832 0.493336 0.618952 0.147848
H14   H     H_    0.944045 0.622861 0.743239 0.181871
H15   H     H_    0.087280 0.492969 0.695756 0.184232
H16   H     H_    0.980127 0.362564 0.682436 0.164198
H17   H     H_    0.856254 0.362184 0.702632 0.116133
H18   H     H_    0.020353 0.695683 0.596123 0.215637
H19   H     H_    0.143328 0.815216 0.615531 0.205170
H20   H     H_    0.136373 0.833199 0.491827 0.195907
H21   H     H_    0.999723 0.875574 0.241256 0.203690
H22   H     H_    0.870002 0.891581 0.631089 0.151511
H23   H     H_    0.824678 0.714090 0.205244 0.142097
H24   H     H_    0.887975 0.702561 0.020223 0.204104
H25   H     H_    0.287597 0.624073 0.988805 0.193838
H26   H     H_    0.156302 0.493081 0.855578 0.190579
H27   H     H_    0.357612 0.461798 0.076679 0.200393
H28   H     H_    0.865572 0.241430 0.743614 0.168360
H29   H     H_    0.826706 0.225776 0.581378 0.155559
H30   H     H_    0.628562 0.609408 0.364335 0.161701
H31   H     H_    0.623368 0.969024 0.368718 0.177548
H32   H     H_    0.827433 0.002763 0.593922 0.138766
H33   H     H_    0.581389 0.654717 0.265622 0.160594
H34   H     H_    0.856411 0.754279 0.355816 0.080095
H35   H     H_    0.551991 0.614104 0.116683 0.209181
H36   H     H_    0.422967 0.932720 0.688657 0.243049
H37   H     H_    0.443645 0.948655 0.606119 0.095026
H38   H     H_    0.528013 0.012094 0.718676 0.200383
H39   H     H_    0.608604 0.986901 0.641195 0.198707
H40   H     H_    0.523397 0.944094 0.529013 0.128915
H41   H     H_    0.635531 0.983865 0.560281 0.168276
H42   H     H_    0.680989 0.945212 0.895410 0.162775
H43   H     H_    0.649338 0.830297 0.860645 0.173702
H44   H     H_    0.568199 0.861167 0.831198 0.223410
H45   H     H_    0.480494 0.711959 0.406496 0.192229
H46   H     H_    0.870316 0.066588 0.783033 0.178298
H47   H     H_    0.834822 0.146361 0.815350 0.159639
H48   H     H_    0.763540 0.032288 0.769595 0.215494
H49   H     H_    0.244312 0.812399 0.459202 0.170331
H50   H     H_    0.324201 0.878729 0.440306 0.139847
H51   H     H_    0.224795 0.780137 0.351362 0.227574
H52   H     H_    0.356310 0.511977 0.785463 0.142570
H53   H     H_    0.430639 0.626094 0.874339 0.206525
H54   H     H_    0.352645 0.550112 0.883662 0.202952
H55   H     H_    0.344194 0.336464 0.716302 0.078835
H56   H     H_    0.256654 0.636116 0.261220 0.169878
H57   H     H_    0.348277 0.379548 0.821436 0.228820
H58   H     H_    0.334376 0.273753 0.769360 0.222128
H59   H     H_    0.729638 0.528860 0.222732 0.176415
H60   H     H_    0.769639 0.587762 0.337068 0.138180
H61   H     H_    0.771878 0.486573 0.287379 0.228033
H62   H     H_    0.837333 0.652400 0.514936 0.148043
H63   H     H_    0.885433 0.601623 0.567986 0.188131
H64   H     H_    0.776131 0.538151 0.476455 0.206648
H65   H     H_    0.262401 0.984905 0.199345 0.230429
H66   H     H_    0.209102 0.981487 0.097098 0.142617
H67   H     H_    0.041851 0.309150 0.181208 0.212547
H68   H     H_    0.313894 0.988548 0.135408 0.195559
H69   H     H_    0.180542 0.873995 0.946523 0.224662
H70   H     H_    0.091416 0.895016 0.942828 0.162460
H71   H     H_    0.085324 0.829019 0.844517 0.190801
H72   H     H_    0.930284 0.767148 0.833465 0.172224
H73   H     H_    0.868669 0.782517 0.888625 0.220719
H74   H     H_    0.817700 0.689374 0.781884 0.202685
H75   H     H_    0.215925 0.394547 0.761427 0.172077
H76   H     H_    0.108348 0.318623 0.664602 0.191726
H77   H     H_    0.199103 0.304079 0.670970 0.191909
H78   H     H_    0.908446 0.170216 0.059927 0.175848
H79   H     H_    0.738131 0.265844 0.508902 0.166356
H80   H     H_    0.660970 0.197906 0.529100 0.147386
H81   H     H_    0.622552 0.211880 0.437042 0.213283
H82   H     H_    0.598000 0.827608 0.313608 0.190932
H83   H     H_    0.556225 0.851987 0.388737 0.171007
H84   H     H_    0.576576 0.763149 0.362736 0.187416
H85   H     H_    0.998084 0.196539 0.882790 0.163337
O1    O     O_R   0.408360 0.551710 0.460090 -0.616470
O2    O     O_R   0.948290 0.356630 0.908390 -0.640631
O3    O     O_R   0.143340 0.551690 0.091580 -0.613612
O4    O     O_R   0.408400 0.448280 0.356670 -0.575016
O5    O     O_R   0.039900 0.448270 0.091610 -0.597288
O6    O     O_R   0.051710 0.643320 0.091560 -0.609950
O7    O     O_R   0.948270 0.539900 0.091590 -0.574816
O8    O     O_R   0.960100 0.551680 0.908340 -0.585478
O9    O     O_R   0.856660 0.448270 0.908370 -0.637631
O10   O     O_R   0.591600 0.643340 0.551710 -0.628496
O11   O     O_R   0.591630 0.539900 0.448290 -0.636766
O12   O     O_R   0.948280 0.908380 0.356650 -0.624432
O13   O     O_R   0.591600 0.551720 0.643330 -0.586949
O14   O     O_R   0.591640 0.448290 0.539910 -0.618496
O15   O     O_R   0.408370 0.460100 0.551710 -0.645561
O16   O     O_R   0.408400 0.356660 0.448290 -0.542052
O17   O     O_R   0.051730 0.908360 0.460060 -0.637000
O18   O     O_3   0.500445 0.884794 0.658479 -0.537092
O19   O     O_3   0.575841 0.864317 0.549558 -0.588980
O20   O     O_3   0.633714 0.864374 0.763769 -0.566663
O21   O     O_3   0.863395 0.094047 0.896210 -0.611179
O22   O     O_3   0.207746 0.883790 0.405845 -0.558447
O23   O     O_R   0.960110 0.908350 0.551690 -0.642593
O24   O     O_3   0.458343 0.534309 0.896623 -0.602132
O25   O     O_3   0.459108 0.375265 0.827117 -0.575127
O26   O     O_3   0.863600 0.594721 0.298344 -0.600500
O27   O     O_3   0.873047 0.569791 0.445910 -0.583029
O28   O     O_3   0.211019 0.867096 0.085723 -0.561000
O29   O     O_3   0.068413 0.767474 0.913550 -0.574469
O30   O     O_3   0.899170 0.684572 0.882360 -0.591770
O31   O     O_3   0.156167 0.272718 0.748482 -0.578536
O32   O     O_3   0.675025 0.131361 0.424251 -0.581421
O33   O     O_3   0.687671 0.883483 0.444980 -0.592691
O34   O     O_R   0.856660 0.908370 0.448270 -0.588989
O35   O     O_R   0.051720 0.091580 0.643310 -0.568870
O36   O     O_R   0.948270 0.091600 0.539890 -0.606014
O37   O     O_R   0.143340 0.091590 0.551680 -0.641065
O38   O     O_R   0.039890 0.091610 0.448270 -0.537825
O39   O     O_R   0.051730 0.460050 0.908360 -0.619618
Zn1   Zn    Zn3+2 0.499980 0.569060 0.569060 1.038029
Zn2   Zn    Zn3+2 0.500020 0.430940 0.430940 1.060356
Zn3   Zn    Zn3+2 0.069070 0.999960 0.569030 1.012838
Zn4   Zn    Zn3+2 0.930930 0.999990 0.430930 1.068378
Zn5   Zn    Zn3+2 0.069070 0.569030 0.999960 1.049192
Zn6   Zn    Zn3+2 0.930930 0.430930 0.000000 1.020692

loop_
_geom_bond_atom_site_label_1
_geom_bond_atom_site_label_2
_ccdc_geom_bond_type
C8    C9    A    
C89   Cl13  S    
C48   H1    S    
C89   C95   A    
C16   C21   A    
C5    O3    A    
C96   C102  A    
C35   C53   A    
C75   C122  S    
C24   C42   A    
C36   O28   S    
C93   Cl14  S    
C50   H31   S    
C100  C101  A    
C47   H29   S    
O1    Zn1   S    
C128  C129  A    
C44   H28   S    
C19   H21   S    
C97   C98   A    
C26   H38   S    
C121  H13   S    
C47   C49   A    
C74   H56   S    
C45   C46   A    
C56   C57   A    
C65   C66   A    
C30   H51   S    
C7    O9    A    
C58   C123  S    
C60   H33   S    
C74   C76   A    
C35   C58   A    
C69   C80   S    
C84   O21   S    
C105  Cl17  S    
C72   O19   S    
C37   H70   S    
C39   H77   S    
C34   H63   S    
C108  Cl2   S    
C33   H60   S    
C86   C88   A    
C133  O34   A    
C106  C107  A    
C99   O20   S    
C130  H17   S    
C134  O35   A    
C115  C116  A    
C120  C131  S    
C61   H35   S    
C18   C81   S    
C108  C109  A    
C107  O22   S    
C18   C19   A    
C12   O27   S    
C38   H72   S    
C79   C80   A    
C69   C71   A    
C2    C13   A    
C118  C119  A    
C112  C113  A    
C33   O26   S    
C62   C64   A    
C92   C103  A    
C73   O18   S    
C26   H36   S    
C133  O23   A    
C62   H12   S    
C82   H67   S    
C19   C20   A    
C77   C88   S    
C68   C69   A    
C29   H47   S    
O38   Zn4   S    
C128  H15   S    
C28   H42   S    
C107  C108  A    
C71   H45   S    
C67   C73   A    
C11   O26   S    
C5    O5    A    
C40   H80   S    
C75   O13   A    
C9    C10   A    
O11   Zn2   S    
C28   H43   S    
C8    H19   S    
C77   C78   A    
C38   H74   S    
C117  O24   S    
C28   O20   S    
C120  C121  A    
C60   C66   A    
C100  Cl16  S    
C98   C109  S    
C74   C80   A    
C24   O31   S    
C135  H9    S    
C6    O7    A    
C61   C62   A    
C27   H39   S    
C20   C132  S    
C75   O14   A    
C110  C117  A    
C104  C105  A    
C26   H37   S    
C52   C54   A    
C132  O12   A    
C57   C63   S    
C57   C58   A    
C4    C45   S    
C53   C55   A    
C10   C21   S    
C87   O15   A    
C30   H50   S    
O2    Zn6   S    
C118  H11   S    
O36   Zn4   S    
C121  C122  A    
C46   C114  S    
C111  C123  A    
C67   C68   A    
C4    O39   A    
O13   Zn1   S    
C7    C119  S    
C103  C114  A    
C95   Cl12  S    
C76   C77   A    
C37   H71   S    
C31   H54   S    
C34   H62   S    
C87   O16   A    
C36   H66   S    
C114  C125  A    
C33   H61   S    
C78   C79   A    
C16   C17   A    
C14   C48   A    
C41   H83   S    
C50   C51   A    
C85   C86   A    
C23   O28   S    
O37   Zn3   S    
C15   H18   S    
C123  C135  A    
C60   C61   A    
C64   H23   S    
O10   Zn1   S    
C38   O30   S    
C22   C81   A    
C25   C59   A    
C63   O11   A    
C112  Cl3   S    
C91   C93   A    
C32   H58   S    
O17   Zn3   S    
C3    C97   S    
C43   C54   S    
C40   H81   S    
C83   C84   A    
C12   C15   A    
C87   C101  S    
C11   C12   A    
C29   H48   S    
C99   C111  A    
C96   C97   A    
C22   Cl7   S    
C55   C56   A    
C17   C18   A    
C31   H52   S    
C53   C133  S    
C41   O33   S    
C93   C94   A    
C118  C124  A    
C84   C85   A    
C32   H55   S    
C32   O25   S    
O15   Zn1   S    
C39   H76   S    
C1    O4    A    
C47   C54   A    
C27   H41   S    
C40   H79   S    
O34   Zn4   S    
C41   H84   S    
C14   Cl5   S    
C31   O24   S    
C29   H46   S    
O35   Zn3   S    
C98   C100  A    
C10   C11   A    
C38   H73   S    
C43   C44   A    
O8    Zn5   S    
C101  C102  A    
C1    C79   S    
C6    O6    A    
C2    H27   S    
C42   C43   A    
C91   C102  S    
C122  C124  A    
C127  C128  A    
C6    C17   S    
C55   C66   S    
C110  H8    S    
C44   C45   A    
C3    O37   A    
C129  C130  A    
C70   C81   A    
C68   Cl10  S    
O23   Zn3   S    
C30   H49   S    
C40   O32   S    
C65   H34   S    
C36   H68   S    
C129  H16   S    
C116  C117  A    
C39   O31   S    
C35   H22   S    
C39   H75   S    
O4    Zn2   S    
C52   H32   S    
C104  H6    S    
C72   C73   A    
C126  H14   S    
C92   H25   S    
C36   H65   S    
C119  C120  A    
C3    O38   A    
C83   H78   S    
C132  O17   A    
C1    O1    A    
C8    C15   A    
C63   O10   A    
C105  C106  A    
C7    O8    A    
O7    Zn6   S    
C29   O21   S    
C127  Cl4   S    
O12   Zn4   S    
C59   O30   S    
C26   O18   S    
C103  H26   S    
C24   C46   A    
C64   C65   A    
C115  H10   S    
C130  C131  A    
C86   H2    S    
O14   Zn2   S    
C37   H69   S    
C51   C52   A    
C13   C92   A    
C34   O27   S    
O6    Zn5   S    
C32   H57   S    
C16   Cl6   S    
C90   C91   A    
C104  C109  A    
C113  C124  S    
C56   H30   S    
C126  C131  A    
C5    C76   S    
C126  C127  A    
C82   C88   A    
C96   Cl15  S    
C27   O19   S    
C48   C99   A    
C28   H44   S    
C4    O2    A    
O5    Zn6   S    
C42   C134  S    
O9    Zn6   S    
C85   H85   S    
C37   O29   S    
C13   Cl8   S    
C111  H5    S    
C94   C95   A    
C33   H59   S    
C67   Cl1   S    
C110  C112  A    
C116  O25   S    
O16   Zn2   S    
C78   Cl11  S    
C59   C70   A    
C30   O22   S    
C2    C125  A    
C41   H82   S    
C71   C72   A    
C23   C25   A    
C20   C21   A    
C94   H4    S    
C49   C50   A    
C27   H40   S    
C51   O33   S    
C134  O36   A    
C22   C23   A    
C9    H20   S    
C34   H64   S    
C125  Cl9   S    
C82   C83   A    
C90   H3    S    
C89   C90   A    
O39   Zn5   S    
C70   H24   S    
O3    Zn5   S    
C31   H53   S    
C14   C135  A    
C106  H7    S    
C49   O32   S    
C113  C115  A    
C25   O29   S    
