data_mof_unit_pretest_1856.cif
_audit_creation_date              2012-12-10T21:20:00-0500
_audit_creation_method            fapswitch 2.2
_symmetry_space_group_name_H-M    P1
_symmetry_Int_Tables_number       1
_space_group_crystal_system       triclinic
_cell_length_a                    16.76804
_cell_length_b                    16.768034
_cell_length_c                    17.542294
_cell_angle_alpha                 90.629308
_cell_angle_beta                  89.555576
_cell_angle_gamma                 84.505793
_cell_volume                      4909.16731204

loop_
_atom_site_label
_atom_site_type_symbol
_atom_type_description
_atom_site_fract_x
_atom_site_fract_y
_atom_site_fract_z
_atom_type_partial_charge
C1    C     C_R   0.500368 0.498930 0.353107 0.884104
C2    C     C_R   0.499794 0.499314 0.646890 0.891482
C3    C     C_R   0.574068 0.478960 0.846828 -0.149415
C4    C     C_R   0.431477 0.470104 0.153326 -0.144329
C5    C     C_R   0.573063 0.489317 0.768583 -0.194392
C6    C     C_R   0.430167 0.480566 0.231800 -0.191630
C7    C     C_R   0.500149 0.492637 0.729399 -0.045337
C8    C     C_R   0.501383 0.491393 0.270518 -0.044714
C9    C     C_R   0.428298 0.485778 0.769313 -0.161313
C10   C     C_R   0.573865 0.491414 0.229990 -0.154087
C11   C     C_R   0.429540 0.475460 0.847649 -0.153428
C12   C     C_R   0.574939 0.480952 0.151447 -0.149511
C13   C     C_R   0.502416 0.471877 0.885785 0.154866
C14   C     C_R   0.503777 0.470349 0.113701 0.153742
C15   C     C_1   0.503192 0.466665 0.965841 -0.049759
C16   C     C_1   0.503761 0.466163 0.033489 -0.049216
C17   C     C_R   0.838771 0.449054 0.453150 -0.273559
C18   C     C_R   0.161260 0.550795 0.547020 -0.274116
C19   C     C_R   0.754844 0.448996 0.453153 0.397055
C20   C     C_R   0.245190 0.550819 0.547032 0.396368
C21   C     C_R   0.742244 0.551518 0.547393 -0.037223
C22   C     C_R   0.257730 0.448760 0.452335 -0.036164
C23   C     C_R   0.511435 0.346695 0.495885 0.901215
C24   C     C_R   0.488533 0.653547 0.500981 0.909245
C25   C     C_R   0.826368 0.553112 0.548799 -0.250394
C26   C     C_R   0.173604 0.447208 0.450900 -0.249856
C27   C     C_R   0.875689 0.501271 0.501106 0.102282
C28   C     C_R   0.124311 0.498822 0.498826 0.101244
C29   C     C_1   0.963429 0.500749 0.500598 -0.009489
C30   C     C_1   0.036569 0.499370 0.499320 -0.009502
C31   C     C_R   0.518989 0.263198 0.472006 -0.085444
C32   C     C_R   0.480846 0.740373 0.500337 -0.090649
C33   C     C_R   0.457258 0.234704 0.429038 -0.223293
C34   C     C_R   0.545933 0.781316 0.522548 -0.217680
C35   C     C_R   0.463190 0.155761 0.403888 0.293495
C36   C     C_R   0.542490 0.863786 0.515528 0.298111
C37   C     C_R   0.530799 0.104359 0.423482 0.092456
C38   C     C_R   0.473611 0.905264 0.484310 0.091083
C39   C     C_R   0.595387 0.134315 0.460717 -0.150639
C40   C     C_R   0.406639 0.865160 0.466908 -0.172895
C41   C     C_R   0.589633 0.213887 0.484836 -0.152748
C42   C     C_R   0.410150 0.782669 0.474877 -0.164415
C43   C     C_2   0.526797 0.018335 0.423869 -0.127965
C44   C     C_2   0.470732 0.989949 0.467818 -0.141846
H1    H     H_    0.404236 0.273680 0.414980 0.176264
H2    H     H_    0.599720 0.749200 0.544910 0.180773
H3    H     H_    0.874985 0.408241 0.415650 0.176629
H4    H     H_    0.125068 0.591455 0.584676 0.176623
H5    H     H_    0.704935 0.591704 0.584403 0.144522
H6    H     H_    0.295014 0.408795 0.415105 0.142273
H7    H     H_    0.359005 0.751774 0.458349 0.179603
H8    H     H_    0.638812 0.236024 0.515777 0.177241
H9    H     H_    0.422155 0.029669 0.492779 0.180313
H10   H     H_    0.576384 0.978880 0.400431 0.181190
H11   H     H_    0.647573 0.094784 0.476078 0.187892
H12   H     H_    0.352958 0.897303 0.444349 0.174419
H13   H     H_    0.630385 0.477136 0.876980 0.141493
H14   H     H_    0.376224 0.462761 0.123514 0.142573
H15   H     H_    0.629211 0.494365 0.738899 0.161830
H16   H     H_    0.373652 0.479882 0.262005 0.160943
H17   H     H_    0.371459 0.487927 0.740134 0.184324
H18   H     H_    0.629444 0.499600 0.258789 0.184346
H19   H     H_    0.373923 0.470895 0.878476 0.144610
H20   H     H_    0.630784 0.482088 0.120125 0.144209
N1    N     N_R   0.707230 0.500020 0.500030 -0.111854
N2    N     N_R   0.292770 0.499980 0.499970 -0.112554
O1    O     O_R   0.566570 0.500000 0.389130 -0.584762
O2    O     O_R   0.433430 0.500000 0.610870 -0.583426
O3    O     O_R   0.433480 0.499990 0.389100 -0.636158
O4    O     O_R   0.566520 0.500010 0.610900 -0.633930
O5    O     O_R   0.574410 0.384200 0.500000 -0.579471
O6    O     O_R   0.425590 0.615800 0.500000 -0.580680
O7    O     O_R   0.441320 0.384200 0.499980 -0.630311
O8    O     O_R   0.558680 0.615800 0.500020 -0.630144
Zn1   Zn    Zn3+2 0.588860 0.500000 0.500020 0.988586
Zn2   Zn    Zn3+2 0.411140 0.500000 0.499980 0.986796
Br1   Br    Br    0.710698 0.375045 0.385413 -0.509494
Br2   Br    Br    0.289431 0.624515 0.614968 -0.505390
H21   H     H_    0.852551 0.594504 0.586847 0.160646
H22   H     H_    0.147397 0.406034 0.412641 0.161823
Br3   Br    Br    0.631992 0.916489 0.551801 -0.537690
Br4   Br    Br    0.376435 0.119617 0.346081 -0.515796

loop_
_geom_bond_atom_site_label_1
_geom_bond_atom_site_label_2
_ccdc_geom_bond_type
O5    Zn1   S    
C27   C29   S    
C1    C8    S    
C33   H1    S    
C2    C7    S    
O6    Zn2   S    
C21   H5    S    
C39   C41   A    
C9    H17   S    
C20   N2    A    
C35   C37   A    
C11   H19   S    
C12   H20   S    
C15   C16   T    
O3    Zn2   S    
C19   Br1   S    
C22   N2    A    
C1    O1    A    
C2    O2    A    
C44   H9    S    
C39   H11   S    
C40   H12   S    
C31   C33   A    
C34   H2    S    
C41   H8    S    
C34   C36   A    
C3    C13   A    
C42   H7    S    
C22   H6    S    
C40   C42   A    
C10   H18   S    
C23   O7    A    
C35   Br4   S    
O8    Zn1   S    
C5    H15   S    
C17   C27   A    
C6    H16   S    
C18   C28   A    
C4    C6    A    
C5    C7    A    
C17   C19   A    
C6    C8    A    
C1    O3    A    
C23   C31   S    
C37   C43   S    
C43   C44   D    
C24   C32   S    
C38   C44   S    
C29   C30   T    
C23   O5    A    
C43   H10   S    
C36   Br3   S    
N2    Zn2   S    
C9    C11   A    
C10   C12   A    
C3    H13   S    
C12   C14   A    
C13   C15   S    
C25   C27   A    
O7    Zn2   S    
C14   C16   S    
O1    Zn1   S    
C24   O6    A    
C7    C9    A    
C21   C25   A    
C31   C41   A    
C21   N1    A    
C25   H21   S    
C17   H3    S    
C3    C5    A    
C18   H4    S    
O2    Zn2   S    
C26   C28   A    
N1    Zn1   S    
C20   Br2   S    
C28   C30   S    
C37   C39   A    
C38   C40   A    
C11   C13   A    
C24   O8    A    
C36   C38   A    
C33   C35   A    
C19   N1    A    
C18   C20   A    
C4    C14   A    
C26   H22   S    
C8    C10   A    
C22   C26   A    
C4    H14   S    
O4    Zn1   S    
C32   C42   A    
C2    O4    A    
C32   C34   A    
