data_mof_unit_pretest_1035.cif
_audit_creation_date              2013-03-05T16:01:05-0500
_audit_creation_method            fapswitch 2.2
_symmetry_space_group_name_H-M    P1
_symmetry_Int_Tables_number       1
_space_group_crystal_system       triclinic
_cell_length_a                    8.408817
_cell_length_b                    12.970434
_cell_length_c                    18.709937
_cell_angle_alpha                 100.627902
_cell_angle_beta                  91.495116
_cell_angle_gamma                 98.536492
_cell_volume                      1980.39012784

loop_
_atom_site_label
_atom_site_type_symbol
_atom_site_description
_atom_site_fract_x
_atom_site_fract_y
_atom_site_fract_z
_atom_type_partial_charge
P1    P     P_3+3 0.041040 0.394770 0.336330 0.540122
O1    O     O_2   0.873090 0.425890 0.325140 -0.394169
O2    O     O_3   0.122420 0.434370 0.414380 -0.276326
O3    O     O_3   0.659500 0.627100 0.368810 -0.293563
O4    O     O_2   0.774904 0.536519 0.246337 -0.334116
O5    O     O_3   0.013780 0.256557 0.308130 -0.674092
O6    O     O_3   0.697127 0.719201 0.243029 -0.458975
H1    H     H_    0.549040 0.813524 0.300098 0.136390
C1    C     C_3   0.595597 0.854592 0.193792 -0.715223
H2    H     H_    0.519837 0.917300 0.208691 0.252748
H3    H     H_    0.723034 0.892790 0.199314 0.256554
P2    P     P_3+3 0.672880 0.754030 0.556100 0.568898
P3    P     P_3+3 0.130824 0.824263 0.410433 0.609270
O7    O     O_2   0.848200 0.768190 0.534530 -0.300630
O8    O     O_3   0.081160 0.685950 0.404810 -0.306928
O9    O     O_2   0.027503 0.876108 0.469274 -0.302211
O10   O     O_3   0.727570 0.804290 0.649013 -0.586885
O11   O     O_3   0.055790 0.863315 0.332432 -0.505578
C2    C     C_3   0.155775 0.842828 0.273847 0.726199
H4    H     H_    0.285143 0.865514 0.292291 -0.145567
C3    C     C_3   0.122754 0.911494 0.217920 -0.180604
H5    H     H_    0.993620 0.894642 0.199654 0.153557
C4    C     C_3   0.093772 0.799593 0.699269 0.844117
H6    H     H_    0.972239 0.751853 0.692009 0.038185
C5    C     C_3   0.134201 0.848924 0.779269 -0.931266
H7    H     H_    0.248050 0.905728 0.785077 0.313474
H8    H     H_    0.040508 0.894409 0.802242 0.215718
H9    H     H_    0.143285 0.786217 0.811443 0.244961
Ba1   Ba    Ba6+2 0.852780 0.548340 0.465070 1.758659
C6    C     C_3   0.901714 0.202888 0.346987 0.648552
H10   H     H_    0.806732 0.250094 0.366762 0.010120
C7    C     C_3   0.822638 0.101140 0.295807 -0.057122
H11   H     H_    0.733343 0.119730 0.257596 0.113141
H12   H     H_    0.914165 0.064558 0.262838 0.137946
C8    C     C_3   0.633473 0.760353 0.699519 0.629882
H13   H     H_    0.508937 0.776619 0.693722 0.119963
C9    C     C_3   0.714402 0.810795 0.776000 -0.129081
H14   H     H_    0.775334 0.892120 0.775966 0.195765
H15   H     H_    0.809409 0.765226 0.789218 0.076989
P4    P     P_3+3 0.148670 0.605320 0.663680 0.532036
O12   O     O_2   0.316610 0.574140 0.674900 -0.292242
O13   O     O_3   0.067290 0.565720 0.585630 -0.352435
O14   O     O_3   0.530210 0.372990 0.631200 -0.356580
O15   O     O_3   0.213403 0.741506 0.671719 -0.569458
P5    P     P_3+3 0.056519 0.177057 0.597682 0.557211
O16   O     O_3   0.611340 0.366290 0.463630 -0.355502
O17   O     O_3   0.108550 0.314140 0.595200 -0.292313
O18   O     O_2   0.170187 0.121294 0.545293 -0.323780
O19   O     O_3   0.117096 0.147003 0.681084 -0.600041
Ba2   Ba    Ba6+2 0.337060 0.451750 0.534940 1.711428
P6    P     P_3+3 0.640223 0.599954 0.273248 0.569420
C10   C     C_3   0.565319 0.774037 0.243548 0.342385
H16   H     H_    0.451812 0.722218 0.222179 0.090293
H17   H     H_    0.566878 0.814862 0.136065 0.251985
O20   O     O_3   0.578370 0.633800 0.536380 -0.305906
C11   C     C_3   0.455077 0.255158 0.313533 0.367950
H18   H     H_    0.343220 0.280695 0.335819 0.162874
H19   H     H_    0.555575 0.322495 0.318181 0.120394
C12   C     C_3   0.416769 0.209805 0.233060 -0.947608
H20   H     H_    0.307811 0.148816 0.226275 0.292563
H21   H     H_    0.392030 0.273942 0.204404 0.199271
H22   H     H_    0.518966 0.174675 0.207853 0.267827
P7    P     P_3+3 0.520645 0.229248 0.443664 0.481086
O21   O     O_2   0.341510 0.231850 0.465510 -0.293206
O22   O     O_3   0.501506 0.178086 0.349567 -0.555462
H23   H     H_    0.150417 0.995981 0.245410 0.114522
C13   C     C_3   0.036360 0.195746 0.740013 0.626458
H24   H     H_    0.914542 0.209428 0.722831 -0.022027
C14   C     C_3   0.015899 0.121924 0.795619 0.056140
H25   H     H_    0.134487 0.113961 0.819677 0.142819
H26   H     H_    0.959313 0.041832 0.768223 0.162406
P8    P     P_3+3 0.566174 0.385854 0.724956 0.537363
C15   C     C_3   0.495732 0.184399 0.686360 0.298830
H27   H     H_    0.618432 0.187139 0.665504 0.016763
O23   O     O_2   0.453367 0.461181 0.761070 -0.305248
O24   O     O_3   0.494613 0.263595 0.748618 -0.501489
H28   H     H_    0.410676 0.194871 0.642946 0.137566
C16   C     C_3   0.441232 0.075545 0.704443 -0.059932
H29   H     H_    0.408199 0.016767 0.653109 0.114377
H30   H     H_    0.335082 0.077189 0.738098 0.170155
C17   C     C_R   0.999523 0.445451 0.048219 0.035060
C18   C     C_R   0.898146 0.396433 0.095203 0.125052
C19   C     C_R   0.737387 0.355454 0.071883 -0.168350
C20   C     C_R   0.678238 0.362361 0.002624 -0.102328
C21   C     C_R   0.778670 0.410180 0.955155 0.122445
C22   C     C_R   0.939438 0.452874 0.977996 0.038658
C23   C     C_R   0.721779 0.412308 0.884449 -0.160540
C24   C     C_R   0.823720 0.454907 0.834627 -0.047893
C25   C     C_R   0.982190 0.505019 0.858775 0.059236
C26   C     C_R   0.040440 0.501320 0.930332 0.031269
C27   C     C_R   0.774241 0.444423 0.760556 0.182553
C28   C     C_R   0.880613 0.485155 0.712424 -0.322774
C29   C     C_R   0.029048 0.548374 0.736377 0.154918
C30   C     C_R   0.084625 0.554455 0.810702 -0.035343
C31   C     C_R   0.161556 0.484565 0.070681 0.030199
C32   C     C_R   0.221027 0.479368 0.141690 0.071864
C33   C     C_R   0.115414 0.437565 0.191441 -0.048837
C34   C     C_R   0.957576 0.390063 0.165018 -0.106775
H31   H     H_    0.656976 0.318286 0.107356 0.133403
H32   H     H_    0.553843 0.329521 0.985962 0.159785
H33   H     H_    0.842534 0.472181 0.655341 0.174298
H34   H     H_    0.598251 0.377643 0.868637 0.202013
H35   H     H_    0.877760 0.348914 0.198417 0.143716
C35   C     C_R   0.243945 0.597372 0.836461 -0.087908
C36   C     C_R   0.305019 0.586222 0.905010 0.135249
C37   C     C_R   0.202381 0.540308 0.952830 0.038732
C38   C     C_R   0.263597 0.530219 0.022284 0.054883
C39   C     C_R   0.469512 0.616518 0.925437 -0.059797
C40   C     C_R   0.530165 0.606501 0.993673 -0.212989
C41   C     C_R   0.427809 0.564479 0.042756 0.127242
C42   C     C_R   0.385025 0.518619 0.163059 -0.071779
C43   C     C_R   0.487810 0.556165 0.111713 -0.239324
C44   C     C_R   0.440290 0.524012 0.236048 0.051878
C45   C     C_R   0.334344 0.486003 0.285712 0.079263
C46   C     C_R   0.170896 0.445867 0.265717 0.232228
H36   H     H_    0.325233 0.633660 0.801798 0.195291
H37   H     H_    0.552514 0.645123 0.887809 0.166522
H38   H     H_    0.657692 0.631124 0.007880 0.160831
H39   H     H_    0.615170 0.581296 0.125150 0.192220
C47   C     C_R   0.752686 0.182628 0.535344 -0.460165
C48   C     C_R   0.431349 0.810480 0.472807 -0.369788
C49   C     C_R   0.399604 0.984336 0.450918 -0.134203
C50   C     C_R   0.340574 0.876561 0.444220 0.150801
C51   C     C_R   0.579697 0.850488 0.510979 0.217274
C52   C     C_R   0.639728 0.962277 0.519765 -0.045260
C53   C     C_R   0.547720 0.029487 0.488865 0.005021
C54   C     C_R   0.608271 0.139861 0.495534 0.212565
C55   C     C_R   0.847710 0.118044 0.562607 0.244085
C56   C     C_R   0.790105 0.009005 0.555955 -0.072294
H40   H     H_    0.326472 0.032367 0.427500 0.206623
H41   H     H_    0.864393 0.961462 0.578229 0.228307
H42   H     H_    0.797099 0.266560 0.540837 0.169006
H43   H     H_    0.381441 0.727585 0.468611 0.179319
N1    N     N_R   0.988190 0.179109 0.408149 0.225917
O25   O     O_R   0.036465 0.258106 0.460757 -0.358253
O26   O     O_R   0.064362 0.097742 0.399253 -0.362676
Cl1   Cl    Cl    0.727379 0.006518 0.344717 -0.651382
Cl2   Cl    Cl    0.642809 0.624291 0.686557 -0.650536
N2    N     N_R   0.606615 0.816969 0.835729 0.260598
O27   O     O_R   0.453773 0.815161 0.824048 -0.419996
O28   O     O_R   0.668685 0.847550 0.902046 -0.323158
N3    N     N_R   0.133458 0.297020 0.772682 0.226092
O29   O     O_R   0.168227 0.366598 0.731986 -0.359858
O30   O     O_R   0.202776 0.314130 0.837775 -0.392530
Cl3   Cl    Cl    0.894641 0.169896 0.867383 -0.520286
N4    N     N_R   0.570391 0.043353 0.743383 0.254935
O31   O     O_R   0.560081 0.036748 0.811655 -0.278781
O32   O     O_R   0.696690 0.020717 0.709221 -0.487242
N5    N     N_R   0.121996 0.730430 0.240940 0.232513
O33   O     O_R   0.192152 0.665090 0.270224 -0.495254
O34   O     O_R   0.999560 0.692881 0.194773 -0.331767
Cl4   Cl    Cl    0.409587 0.489168 0.374749 -0.572554
N6    N     N_R   0.219292 0.893806 0.154055 0.243642
O35   O     O_R   0.304100 0.974420 0.133482 -0.375273
O36   O     O_R   0.199789 0.801736 0.110457 -0.351240
Cl5   Cl    Cl    0.095211 0.903244 0.649864 -0.668146

loop_
_geom_bond_atom_site_label_1
_geom_bond_atom_site_label_2
_geom_bond_distance
_ccdc_geom_bond_type
C23   C24   1.414247 A    
P7    O22   1.757368 S    
O14   P8    1.745219 S    
P2    Ba1   3.458809 S    
C14   Cl3   1.783611 S    
C15   H27   1.110543 S    
C31   C32   1.424117 A    
C45   Cl4   1.757625 S    
P4    C29   1.904940 S    
P8    O24   1.749937 S    
C55   C56   1.406720 A    
C17   C18   1.409973 A    
C47   C54   1.391968 A    
C21   C22   1.406112 A    
C39   C40   1.397796 A    
C5    H9    1.107398 S    
C53   C54   1.427827 A    
P3    O11   1.761803 S    
O1    Ba1   2.824195 S    
C38   C41   1.406526 A    
C8    C9    1.552565 S    
O6    C10   1.402292 S    
O11   C2    1.409237 S    
N5    O34   1.301084 A    
C8    Cl2   1.750343 S    
C6    H10   1.107566 S    
Ba1   O13   2.805687 S    
C16   H30   1.106213 S    
C37   C38   1.420743 A    
P5    C55   1.858788 S    
C34   H35   1.079054 S    
C33   C34   1.412863 A    
Ba2   O21   2.914015 S    
C11   H18   1.109189 S    
O2    Ba1   2.969123 S    
P1    O1    1.544738 D    
C25   C30   1.432232 A    
C14   H26   1.101101 S    
C48   C51   1.400029 A    
C35   H36   1.072188 S    
C42   C43   1.413516 A    
C6    N1    1.444556 S    
P2    O10   1.763444 S    
C4    H6    1.104591 S    
C33   C46   1.434076 A    
C1    H2    1.106596 S    
H1    C10   1.108609 S    
O3    Ba1   2.819128 S    
P4    O13   1.559306 S    
C30   C35   1.408138 A    
C12   H20   1.105914 S    
C19   H31   1.083853 S    
C3    H5    1.107374 S    
C18   C34   1.407413 A    
C1    C10   1.521623 S    
P8    O23   1.541425 D    
C35   C36   1.409150 A    
C36   C39   1.403341 A    
O2    Ba2   2.806354 S    
C40   H38   1.083846 S    
O8    Ba1   2.825335 S    
O17   Ba2   2.825989 S    
N4    O32   1.296695 A    
Ba1   Ba2   4.658581 S    
P5    O17   1.776382 S    
C32   C42   1.417208 A    
C12   H21   1.110337 S    
N4    O31   1.300169 A    
O3    P6    1.755774 S    
C13   H24   1.114419 S    
C20   H32   1.083740 S    
C20   C21   1.404822 A    
C26   C37   1.405118 A    
C22   C26   1.413936 A    
C27   C28   1.402646 A    
P8    C27   1.854670 S    
C16   H29   1.110847 S    
N1    O26   1.301230 A    
Ba1   O20   2.950870 S    
C5    H7    1.107601 S    
C4    O15   1.397884 S    
P1    O5    1.751407 S    
P1    O2    1.559306 S    
C8    H13   1.104991 S    
C7    H12   1.105979 S    
C49   C53   1.407911 A    
C9    H14   1.102259 S    
C23   H34   1.079298 S    
C19   C20   1.398929 A    
P2    C51   1.880956 S    
C24   C27   1.412733 A    
P5    O19   1.757334 S    
C15   C16   1.519898 S    
P4    Ba2   3.412491 S    
C32   C33   1.426698 A    
P1    Ba1   3.411869 S    
C42   C44   1.416943 A    
C29   C30   1.439830 A    
P6    C44   1.864277 S    
C1    H3    1.105518 S    
C31   C38   1.412217 A    
C28   H33   1.082305 S    
O13   Ba2   2.970048 S    
P4    O12   1.545077 D    
O5    C6    1.388811 S    
P2    O7    1.532308 D    
P3    O8    1.763380 S    
C52   C53   1.433719 A    
C15   O24   1.405060 S    
N3    O30   1.302743 A    
N6    O36   1.301501 A    
O7    Ba1   2.913766 S    
C17   C31   1.405945 A    
O12   Ba2   2.824545 S    
C10   H16   1.101413 S    
C44   C45   1.407807 A    
P5    O18   1.545991 D    
C12   H22   1.107554 S    
C15   H28   1.108599 S    
O19   C13   1.409116 S    
C2    C3    1.538593 S    
C47   H42   1.082222 S    
C39   H37   1.079605 S    
C17   C22   1.420313 A    
C43   H39   1.080954 S    
N2    O27   1.294062 A    
C47   C55   1.391185 A    
O14   Ba2   2.818459 S    
C45   C46   1.410274 A    
N1    O25   1.291170 A    
C5    H8    1.102561 S    
O10   C8    1.395562 S    
C36   C37   1.408650 A    
O16   Ba2   2.949941 S    
C3    H23   1.108904 S    
Ba2   O20   2.871397 S    
C11   C12   1.519368 S    
Ba1   O16   2.872038 S    
C48   H43   1.082358 S    
C7    H11   1.105618 S    
C2    H4    1.112190 S    
N6    O35   1.300550 A    
O6    P6    1.748673 S    
C7    Cl1   1.773681 S    
C9    H15   1.110192 S    
N5    O33   1.292016 A    
C6    C7    1.529987 S    
N2    O28   1.300961 A    
O16   P7    1.793994 S    
P3    C50   1.843641 S    
C28   C29   1.400900 A    
C2    N5    1.456686 S    
C11   H19   1.110658 S    
C4    C5    1.523477 S    
C14   H25   1.109931 S    
C41   C43   1.401526 A    
C48   C50   1.394765 A    
P2    O20   1.613720 S    
C16   N4    1.445765 S    
P7    O21   1.574583 D    
C52   C56   1.414628 A    
C21   C23   1.401442 A    
P4    O15   1.746812 S    
C24   C25   1.416119 A    
C18   C19   1.403780 A    
C9    N2    1.455389 S    
P3    O9    1.539258 D    
C40   C41   1.402783 A    
C49   C50   1.393668 A    
C3    N6    1.464321 S    
N3    O29   1.290892 A    
O4    P6    1.538397 D    
C1    H17   1.111112 S    
P1    C46   1.886911 S    
C13   C14   1.535160 S    
C25   C26   1.425172 A    
C4    Cl5   1.765249 S    
C13   N3    1.457766 S    
C49   H40   1.076380 S    
P7    C54   1.860183 S    
C11   O22   1.398927 S    
C51   C52   1.440370 A    
C56   H41   1.067590 S    
