data_mof_unit_pretest_267.cif
_audit_creation_date              2012-12-11T16:44:16-0500
_audit_creation_method            fapswitch 2.2
_symmetry_space_group_name_H-M    P1
_symmetry_Int_Tables_number       1
_space_group_crystal_system       triclinic
_cell_length_a                    27.1823
_cell_length_b                    7.196374
_cell_length_c                    22.838155
_cell_angle_alpha                 89.99955
_cell_angle_beta                  101.437211
_cell_angle_gamma                 90.00026
_cell_volume                      4378.75058067

loop_
_atom_site_label
_atom_site_type_symbol
_atom_type_description
_atom_site_fract_x
_atom_site_fract_y
_atom_site_fract_z
_atom_type_partial_charge
O1    O     O_R   0.707300 0.594030 0.176840 -0.532841
O2    O     O_R   0.292700 0.405970 0.823160 -0.530548
O3    O     O_R   0.792700 0.094030 0.323160 -0.532842
O4    O     O_R   0.207300 0.905970 0.676840 -0.530549
O5    O     O_R   0.697330 0.262360 0.295660 -0.539429
O6    O     O_R   0.302670 0.737640 0.704340 -0.546720
O7    O     O_R   0.802670 0.762360 0.204340 -0.539427
O8    O     O_R   0.197330 0.237640 0.795660 -0.546716
C1    C     C_R   0.685747 0.431752 0.312635 0.683751
C2    C     C_R   0.316028 0.568033 0.689155 0.668476
C3    C     C_R   0.814253 0.931753 0.187365 0.683751
C4    C     C_R   0.183972 0.068031 0.810845 0.668473
O9    O     O_R   0.701410 0.264250 0.175600 -0.535942
O10   O     O_R   0.298590 0.735750 0.824400 -0.536064
O11   O     O_R   0.798590 0.764250 0.324400 -0.535941
O12   O     O_R   0.201410 0.235750 0.675600 -0.536062
O13   O     O_R   0.796800 0.094950 0.202240 -0.536863
O14   O     O_R   0.203200 0.905050 0.797760 -0.533456
O15   O     O_R   0.703200 0.594950 0.297760 -0.536863
O16   O     O_R   0.296800 0.405050 0.702240 -0.533459
C5    C     C_R   0.689951 0.432421 0.153358 0.687269
C6    C     C_R   0.310277 0.567526 0.846472 0.682487
C7    C     C_R   0.810049 0.932423 0.346642 0.687267
C8    C     C_R   0.189723 0.067524 0.653528 0.682479
O17   O     O_3   0.781290 0.427390 0.258880 -0.372614
O18   O     O_3   0.218710 0.572610 0.741120 -0.371929
O19   O     O_3   0.718710 0.927390 0.241120 -0.372616
O20   O     O_3   0.281290 0.072610 0.758880 -0.371935
V1    V     V_3+5 0.744190 0.152150 0.248350 1.400588
V2    V     V_3+5 0.255810 0.847850 0.751650 1.396168
V3    V     V_3+5 0.755810 0.652150 0.251650 1.400591
V4    V     V_3+5 0.244190 0.347850 0.748350 1.396175
C9    C     C_R   0.154650 0.063010 0.595338 -0.036327
C10   C     C_R   0.844893 0.936849 0.404984 -0.034316
C11   C     C_R   0.345351 0.563015 0.904662 -0.036337
C12   C     C_R   0.655106 0.436847 0.095016 -0.034324
C13   C     C_R   0.138492 0.131200 0.489652 -0.162494
C14   C     C_R   0.860978 0.866850 0.510557 -0.165294
C15   C     C_R   0.361511 0.631255 0.010345 -0.162478
C16   C     C_R   0.639020 0.366825 0.989444 -0.165268
C17   C     C_R   0.171607 0.120091 0.544420 -0.163767
C18   C     C_R   0.827981 0.877175 0.455668 -0.179612
C19   C     C_R   0.328396 0.620136 0.955578 -0.163767
C20   C     C_R   0.672018 0.377156 0.044333 -0.179608
C21   C     C_R   0.103722 0.017407 0.591173 -0.215795
C22   C     C_R   0.895666 0.984879 0.409445 -0.212930
C23   C     C_R   0.396277 0.517385 0.908829 -0.215787
C24   C     C_R   0.604335 0.484885 0.090555 -0.212913
C25   C     C_R   0.068749 0.030718 0.535774 0.086140
C26   C     C_R   0.930596 0.971112 0.464844 0.085404
C27   C     C_R   0.431251 0.530716 0.964226 0.086134
C28   C     C_R   0.569404 0.471110 0.035156 0.085396
C29   C     C_R   0.087466 0.088618 0.484927 0.139172
C30   C     C_R   0.911907 0.911709 0.515545 0.140583
C31   C     C_R   0.412535 0.588653 0.015072 0.139164
C32   C     C_R   0.588091 0.411688 0.984455 0.140571
C33   C     C_R   0.016037 0.991332 0.529040 0.057971
C34   C     C_R   0.983273 0.011020 0.471642 0.057940
C35   C     C_R   0.483962 0.491322 0.970961 0.057967
C36   C     C_R   0.516727 0.511026 0.028357 0.057937
C37   C     C_R   0.004336 0.068797 0.422931 -0.187235
C38   C     C_R   0.994976 0.933173 0.577716 -0.186898
C39   C     C_R   0.495666 0.568834 0.077068 -0.187233
C40   C     C_R   0.505022 0.433142 0.922285 -0.186895
C41   C     C_R   0.055225 0.106129 0.429580 -0.201192
C42   C     C_R   0.944118 0.894657 0.570951 -0.201528
C43   C     C_R   0.444778 0.606179 0.070417 -0.201169
C44   C     C_R   0.555879 0.394626 0.929051 -0.201498
H1    H     H_    0.069502 0.150476 0.390744 0.122754
H2    H     H_    0.929863 0.849431 0.609708 0.123331
H3    H     H_    0.430502 0.650561 0.109253 0.122742
H4    H     H_    0.570135 0.349379 0.890292 0.123315
H5    H     H_    0.906669 0.027204 0.368673 0.092942
H6    H     H_    0.092646 0.977202 0.632108 0.093515
H7    H     H_    0.593331 0.527225 0.131329 0.092934
H8    H     H_    0.407352 0.477143 0.867894 0.093512
H9    H     H_    0.789077 0.837696 0.452622 0.110787
H10   H     H_    0.210610 0.157718 0.547234 0.104021
H11   H     H_    0.710921 0.337667 0.047377 0.110788
H12   H     H_    0.289394 0.657787 0.952764 0.104024
H13   H     H_    0.152735 0.176077 0.450870 0.113686
H14   H     H_    0.846749 0.820548 0.549195 0.114301
H15   H     H_    0.347269 0.676169 0.049127 0.113674
H16   H     H_    0.653249 0.320503 0.950804 0.114285
H17   H     H_    0.982451 0.087024 0.378583 0.122087
H18   H     H_    0.016890 0.914840 0.622052 0.123338
H19   H     H_    0.517552 0.587082 0.121414 0.122084
H20   H     H_    0.483107 0.414798 0.877950 0.123331
C45   C     C_R   0.892812 0.058812 0.163384 -0.206172
C46   C     C_R   0.143911 0.902854 0.885298 -0.171539
C47   C     C_R   0.607190 0.558819 0.336618 -0.206182
C48   C     C_R   0.356099 0.402823 0.614714 -0.171472
H21   H     H_    0.897421 0.141615 0.203734 0.120459
H22   H     H_    0.171728 0.794171 0.887068 0.127530
H23   H     H_    0.602585 0.641633 0.296271 0.120466
H24   H     H_    0.328285 0.294097 0.612957 0.127515
C49   C     C_R   0.929232 0.070236 0.128070 -0.146249
C50   C     C_R   0.108817 0.885471 0.922069 -0.157214
C51   C     C_R   0.570769 0.570240 0.371930 -0.146251
C52   C     C_R   0.391189 0.385436 0.577944 -0.157215
H25   H     H_    0.961134 0.160971 0.142272 0.114785
H26   H     H_    0.110820 0.765196 0.950918 0.113336
H27   H     H_    0.538870 0.660988 0.357731 0.114787
H28   H     H_    0.389191 0.265122 0.549101 0.113306
C53   C     C_R   0.925050 0.963814 0.075754 0.059076
C54   C     C_R   0.072527 0.023098 0.922825 0.047430
C55   C     C_R   0.574947 0.463801 0.424242 0.059076
C56   C     C_R   0.427473 0.523092 0.577172 0.047435
C57   C     C_R   0.883245 0.846266 0.059459 -0.172735
C58   C     C_R   0.071649 0.177609 0.885058 -0.132156
C59   C     C_R   0.616749 0.346240 0.440534 -0.172740
C60   C     C_R   0.428341 0.677640 0.614927 -0.132129
H29   H     H_    0.878805 0.768001 0.018232 0.106902
H30   H     H_    0.042745 0.280282 0.885202 0.120279
H31   H     H_    0.621185 0.267963 0.481758 0.106905
H32   H     H_    0.457243 0.780343 0.614773 0.120257
C61   C     C_R   0.846034 0.833521 0.094412 0.143906
C62   C     C_R   0.106670 0.198665 0.847121 0.117912
C63   C     C_R   0.653961 0.333500 0.405583 0.143904
C64   C     C_R   0.393319 0.698716 0.652858 0.117877
C65   C     C_R   0.851339 0.939898 0.147767 -0.051238
C66   C     C_R   0.144195 0.058565 0.847928 -0.104700
C67   C     C_R   0.648660 0.439893 0.352232 -0.051237
C68   C     C_R   0.355804 0.558572 0.652071 -0.104735
C69   C     C_R   0.978676 0.819694 0.009328 -0.154927
C70   C     C_R   0.020749 0.164327 0.991682 -0.157181
C71   C     C_R   0.521314 0.319676 0.490657 -0.154920
C72   C     C_R   0.479257 0.664323 0.508321 -0.157169
H33   H     H_    0.963311 0.684267 0.015982 0.104845
H34   H     H_    0.036900 0.299203 0.986185 0.103536
H35   H     H_    0.536672 0.184241 0.483995 0.104839
H36   H     H_    0.463111 0.799209 0.513824 0.103518
C73   C     C_R   0.014072 0.833869 0.972511 -0.149289
C74   C     C_R   0.985266 0.150251 0.028291 -0.152150
C75   C     C_R   0.485920 0.333852 0.527476 -0.149274
C76   C     C_R   0.514739 0.650244 0.471713 -0.152147
H37   H     H_    0.024102 0.709706 0.950782 0.100903
H38   H     H_    0.974235 0.275378 0.048656 0.105821
H39   H     H_    0.475885 0.209680 0.549198 0.100881
H40   H     H_    0.525776 0.775377 0.451356 0.105819
C77   C     C_R   0.035447 0.006605 0.962950 0.094764
C78   C     C_R   0.963599 0.977886 0.037515 0.095542
C79   C     C_R   0.464552 0.506596 0.537047 0.094768
C80   C     C_R   0.536398 0.477873 0.462480 0.095536
C81   C     C_3   0.800534 0.712113 0.071930 -0.380592
C82   C     C_3   0.753449 0.828509 0.049997 -0.731271
H41   H     H_    0.742442 0.906556 0.087254 0.221584
H42   H     H_    0.760002 0.928165 0.015194 0.219966
H43   H     H_    0.721844 0.735923 0.030235 0.222282
H44   H     H_    0.806777 0.624549 0.033955 0.170998
H45   H     H_    0.794190 0.613447 0.106962 0.193635
C83   C     C_3   0.103894 0.366839 0.805711 -0.321207
C84   C     C_3   0.057248 0.489871 0.800215 -0.797623
H46   H     H_    0.022599 0.406440 0.785666 0.229639
H47   H     H_    0.056450 0.560344 0.843285 0.226341
H48   H     H_    0.058361 0.599279 0.766193 0.225219
H49   H     H_    0.137000 0.457056 0.821627 0.198177
H50   H     H_    0.105075 0.316868 0.759949 0.178456
C85   C     C_3   0.699459 0.212084 0.428064 -0.380596
C86   C     C_3   0.746545 0.328469 0.450002 -0.731229
H51   H     H_    0.757556 0.406527 0.412750 0.221578
H52   H     H_    0.739991 0.428130 0.484810 0.219949
H53   H     H_    0.778148 0.235878 0.469765 0.222281
H54   H     H_    0.693212 0.124514 0.466035 0.171001
H55   H     H_    0.705803 0.113424 0.393030 0.193632
C87   C     C_3   0.396080 0.866962 0.694241 -0.321106
C88   C     C_3   0.442708 0.990084 0.699705 -0.797551
H56   H     H_    0.477371 0.906741 0.714267 0.229617
H57   H     H_    0.443492 0.060500 0.656617 0.226311
H58   H     H_    0.441583 0.099558 0.733706 0.225201
H59   H     H_    0.362960 0.957125 0.678316 0.198140
H60   H     H_    0.394913 0.817046 0.740017 0.178453

loop_
_geom_bond_atom_site_label_1
_geom_bond_atom_site_label_2
_ccdc_geom_bond_type
O17   V3    S    
C51   H27   S    
O1    C5    A    
O19   V1    S    
C9    C21   A    
C16   H16   S    
O3    C7    A    
C10   C18   A    
O1    V3    S    
C73   H37   S    
C76   H40   S    
O15   V3    S    
C58   C62   A    
C81   C82   S    
C57   C61   A    
C33   C38   A    
C88   H57   S    
C5    C12   S    
C75   H39   S    
C6    C11   S    
C38   H18   S    
C35   C40   A    
C26   C30   A    
C56   C60   A    
C36   C39   A    
C40   C44   A    
O2    V4    S    
O9    V1    S    
C71   C75   A    
C23   H8    S    
C14   C18   A    
C2    C68   S    
C72   C76   A    
C54   C58   A    
O4    C8    A    
C25   C29   A    
C44   H4    S    
C60   H32   S    
C70   H34   S    
C48   H24   S    
O13   V1    S    
C59   C63   A    
C62   C66   A    
O3    V1    S    
C61   C65   A    
C28   C36   A    
C64   C68   A    
C1    O15   A    
C52   H28   S    
C15   C31   A    
C2    O16   A    
C16   C32   A    
O2    C6    A    
C43   H3    S    
C10   C22   A    
C84   H47   S    
C11   C19   A    
C58   H30   S    
C16   C20   A    
O5    V1    S    
C81   H44   S    
C57   H29   S    
C13   C29   A    
C34   C37   A    
O11   C7    A    
C11   C23   A    
C35   C36   A    
O12   C8    A    
C47   C67   A    
C87   H60   S    
C14   H14   S    
C45   H21   S    
C46   C66   A    
C24   H7    S    
C13   H13   S    
C3    C65   S    
O10   V2    S    
C72   H36   S    
C46   H22   S    
C88   H58   S    
C82   H42   S    
C83   H50   S    
C52   C56   A    
O7    V3    S    
C38   C42   A    
C64   C87   S    
C26   C34   A    
C86   H53   S    
C53   C78   S    
C60   C64   A    
O18   V4    S    
C15   C19   A    
C19   H12   S    
C32   C44   A    
C47   H23   S    
C85   H55   S    
C45   C49   A    
C21   H6    S    
O8    V4    S    
O7    C3    A    
C39   C43   A    
O5    C1    A    
C17   H10   S    
C69   H33   S    
C74   C78   A    
C82   H43   S    
C31   C43   A    
C85   C86   S    
C14   C30   A    
C21   C25   A    
C69   C78   A    
O8    C4    A    
C7    C10   S    
C49   H25   S    
O9    C5    A    
C84   H48   S    
C62   C83   S    
C81   H45   S    
C37   H17   S    
O14   V2    S    
O6    V2    S    
C87   C88   S    
C61   C81   S    
C12   C20   A    
C27   C35   A    
C88   H56   S    
C29   C41   A    
C48   C52   A    
C54   C77   S    
C82   H41   S    
O16   V4    S    
C69   C73   A    
C53   C57   A    
C83   H49   S    
C3    O13   A    
C39   H19   S    
C55   C59   A    
C20   H11   S    
C74   H38   S    
C25   C33   A    
C23   C27   A    
O11   V3    S    
C30   C42   A    
C63   C67   A    
O12   V4    S    
C51   C55   A    
C22   C26   A    
C70   C77   A    
C73   C77   A    
C8    C9    S    
C50   C54   A    
C9    C17   A    
C86   H51   S    
O10   C6    A    
C48   C68   A    
C55   C80   S    
C49   C53   A    
C76   C80   A    
C50   H26   S    
C33   C34   A    
C42   H2    S    
C45   C65   A    
C41   H1    S    
O20   V2    S    
C75   C79   A    
C1    C67   S    
C46   C50   A    
C12   C24   A    
C27   C31   A    
C71   C80   A    
C22   H5    S    
C13   C17   A    
C72   C79   A    
C71   H35   S    
C87   H59   S    
O6    C2    A    
C15   H15   S    
C37   C41   A    
C24   C28   A    
C4    C66   S    
C83   C84   S    
C70   C74   A    
C18   H9    S    
C63   C85   S    
C4    O14   A    
C85   H54   S    
C59   H31   S    
C47   C51   A    
C84   H46   S    
C40   H20   S    
C56   C79   S    
O4    V2    S    
C28   C32   A    
C86   H52   S    
