data_mof_unit_pretest_118.cif
_audit_creation_date              2012-12-11T16:08:31-0500
_audit_creation_method            fapswitch 2.2
_symmetry_space_group_name_H-M    P1
_symmetry_Int_Tables_number       1
_space_group_crystal_system       triclinic
_cell_length_a                    12.988747
_cell_length_b                    13.309598
_cell_length_c                    27.670743
_cell_angle_alpha                 94.672263
_cell_angle_beta                  89.839537
_cell_angle_gamma                 119.127124
_cell_volume                      4161.03963215

loop_
_atom_site_label
_atom_site_type_symbol
_atom_type_description
_atom_site_fract_x
_atom_site_fract_y
_atom_site_fract_z
_atom_type_partial_charge
C1    C     C_R   0.630093 0.897195 0.427190 0.561651
C2    C     C_R   0.197533 0.760735 0.298994 0.015020
C3    C     C_3   0.829132 0.100265 0.717884 -0.094506
C4    C     C_3   0.489773 0.560757 0.678395 -0.102412
C5    C     C_3   0.074012 0.550555 0.129220 -0.057650
C6    C     C_3   0.060402 0.607581 0.393708 -0.112300
C7    C     C_3   0.161723 0.496892 0.281398 -0.131357
C8    C     C_R   0.202229 0.766318 0.198134 -0.002774
C9    C     C_R   0.600544 0.222352 0.440441 0.524005
C10   C     C_R   0.242291 0.699844 0.220525 0.092791
C11   C     C_R   0.226444 0.686553 0.270122 0.290631
C12   C     C_R   0.172205 0.746861 0.148283 0.255789
C13   C     C_R   0.131750 0.815160 0.127036 0.004966
C14   C     C_R   0.193220 0.940931 0.358254 0.212776
C15   C     C_R   0.184619 0.938431 0.307486 -0.002285
C16   C     C_R   0.189845 0.849990 0.277839 -0.089962
C17   C     C_R   0.560292 0.249606 0.217843 0.270029
C18   C     C_R   0.179477 0.027184 0.285886 -0.101436
C19   C     C_R   0.169656 0.024757 0.235446 0.121038
C20   C     C_R   0.165491 0.931167 0.205091 0.065243
C21   C     C_R   0.267521 0.875800 0.426046 0.547721
C22   C     C_R   0.185377 0.849111 0.226936 -0.074623
C23   C     C_R   0.139151 0.913769 0.154237 0.037506
C24   C     C_R   0.204789 0.853040 0.378719 -0.028346
C25   C     C_R   0.754187 0.956582 0.354538 0.215350
C26   C     C_R   0.771417 0.935643 0.305775 0.040551
C27   C     C_R   0.756101 0.913968 0.204995 0.000370
C28   C     C_R   0.549628 0.245288 0.268210 -0.109633
C29   C     C_R   0.842118 0.016169 0.229728 -0.107475
C30   C     C_R   0.855817 0.025615 0.279761 0.100774
C31   C     C_R   0.743735 0.907202 0.154798 0.224238
C32   C     C_R   0.677460 0.798982 0.128948 0.026163
C33   C     C_R   0.627079 0.898398 0.564770 0.535495
C34   C     C_R   0.615000 0.752493 0.358686 0.229069
C35   C     C_R   0.620417 0.731565 0.307619 -0.016935
C36   C     C_R   0.693483 0.827046 0.281238 -0.103730
C37   C     C_R   0.558056 0.619636 0.282033 0.300510
C38   C     C_R   0.558314 0.608490 0.230284 0.298054
C39   C     C_R   0.650293 0.295410 0.299443 0.015808
C40   C     C_R   0.612917 0.708500 0.204666 -0.007130
C41   C     C_R   0.688371 0.815769 0.230281 -0.083330
C42   C     C_R   0.598422 0.702520 0.153465 0.236675
C43   C     C_R   0.666867 0.866720 0.379837 -0.013958
C44   C     C_R   0.749079 0.329444 0.650197 0.092954
C45   C     C_R   0.602454 0.227072 0.578641 0.569333
C46   C     C_R   0.765681 0.358715 0.701769 0.016950
C47   C     C_R   0.778477 0.371194 0.804971 0.005566
C48   C     C_R   0.882933 0.414663 0.778253 0.141523
C49   C     C_R   0.876976 0.410334 0.727490 0.126242
C50   C     C_R   0.672767 0.308896 0.198602 0.044834
C51   C     C_R   0.780804 0.367181 0.855767 0.064198
C52   C     C_R   0.686005 0.362924 0.882023 0.029147
C53   C     C_R   0.544525 0.283703 0.655558 -0.144675
C54   C     C_R   0.555145 0.298391 0.705464 0.010058
C55   C     C_R   0.663944 0.332296 0.729329 0.033500
C56   C     C_R   0.454261 0.271135 0.731223 -0.105292
C57   C     C_R   0.270913 0.879001 0.563101 0.530278
C58   C     C_R   0.456585 0.272259 0.781335 0.111176
C59   C     C_R   0.564867 0.306867 0.807198 0.066399
C60   C     C_R   0.669444 0.338009 0.780580 -0.023600
C61   C     C_1   0.683730 0.343217 0.149542 -0.011909
C62   C     C_R   0.574717 0.318111 0.858607 0.081698
C63   C     C_R   0.636073 0.286674 0.628106 0.049367
C64   C     C_1   0.219514 0.861068 0.609517 -0.003406
C65   C     C_R   0.216154 0.784038 0.726912 -0.124783
C66   C     C_R   0.207352 0.780270 0.777471 0.289280
C67   C     C_R   0.095347 0.884176 0.776743 0.064289
C68   C     C_R   0.108279 0.890477 0.726348 0.149124
C69   C     C_1   0.626170 0.265043 0.393256 -0.035941
C70   C     C_R   0.168323 0.839602 0.701664 0.004047
C71   C     C_R   0.145289 0.829148 0.802131 0.034963
C72   C     C_1   0.638094 0.284587 0.351081 -0.026092
C73   C     C_1   0.126361 0.815851 0.853065 -0.010834
C74   C     C_1   0.190021 0.849966 0.650849 -0.012309
C75   C     C_1   0.101817 0.798056 0.894581 -0.001709
C76   C     C_1   0.642656 0.864310 0.610743 0.009535
C77   C     C_R   0.683699 0.926689 0.736664 0.273492
C78   C     C_R   0.681727 0.914241 0.786548 0.087192
C79   C     C_R   0.638119 0.714149 0.768694 0.086145
C80   C     C_R   0.633092 0.724959 0.718708 0.277479
C81   C     C_R   0.762480 0.343537 0.279948 0.127666
C82   C     C_R   0.657611 0.831751 0.702801 -0.022324
C83   C     C_1   0.697027 0.381945 0.110553 -0.028331
C84   C     C_R   0.660135 0.808317 0.802676 -0.062467
C85   C     C_1   0.669546 0.798934 0.853796 -0.070380
C86   C     C_1   0.651101 0.844878 0.651871 0.015819
C87   C     C_1   0.685350 0.790368 0.895707 -0.013960
C88   C     C_R   0.065095 0.772737 0.079472 0.577856
C89   C     C_R   0.716150 0.439938 0.066973 0.533786
C90   C     C_R   0.718873 0.781578 0.081021 0.562793
C91   C     C_R   0.056842 0.766369 0.941374 0.543117
C92   C     C_R   0.709425 0.430558 0.929864 0.566534
C93   C     C_R   0.774188 0.347002 0.229212 0.091454
C94   C     C_R   0.184767 0.753374 0.349036 0.252509
C95   C     C_R   0.716720 0.776434 0.943142 0.545826
C96   C     C_3   0.088054 0.999322 0.406768 -0.109136
C97   C     C_3   0.735986 0.056968 0.125032 -0.129010
C98   C     C_3   0.760357 0.130271 0.363938 -0.036658
C99   C     C_3   0.468178 0.532149 0.107599 -0.024177
C100  C     C_3   0.419332 0.416747 0.210067 -0.070813
C101  C     C_3   0.404115 0.486347 0.323775 -0.056804
C102  C     C_3   0.637362 0.642454 0.411452 -0.095426
C103  C     C_3   0.446485 0.094591 0.165172 -0.116228
C104  C     C_3   0.367674 0.755137 0.792883 -0.112080
Cr1   Cr    Cr6+3 0.416430 0.829200 0.492370 1.062353
Cr2   Cr    Cr6+3 0.674630 0.087020 0.504170 1.050213
Cr3   Cr    Cr6+3 0.408920 0.083740 0.503490 1.046979
Cr4   Cr    Cr6+3 0.914010 0.832750 0.013970 1.056709
Cr5   Cr    Cr6+3 0.922310 0.578600 0.003000 1.033972
Cr6   Cr    Cr6+3 0.656280 0.574630 0.003870 1.011456
H1    H     H_    0.184178 0.100244 0.308084 0.142468
H2    H     H_    0.095351 0.125321 0.228661 0.213909
H3    H     H_    0.017642 0.969242 0.377639 0.118341
H4    H     H_    0.065621 0.930914 0.431836 0.104066
H5    H     H_    0.090797 0.074977 0.428039 0.160197
H6    H     H_    0.714493 0.084828 0.160915 0.104666
H7    H     H_    0.653610 0.998061 0.103014 0.124243
H8    H     H_    0.785895 0.135389 0.105571 0.137880
H9    H     H_    0.666037 0.086022 0.373315 0.112643
H10   H     H_    0.764380 0.143025 0.324724 0.132320
H11   H     H_    0.806921 0.216960 0.384173 0.167487
H12   H     H_    0.900188 0.088923 0.210120 0.145188
H13   H     H_    0.996684 0.191459 0.280297 0.184437
H14   H     H_    0.010078 0.106336 0.318982 0.241359
H15   H     H_    0.380405 0.461380 0.115811 0.110573
H16   H     H_    0.535658 0.507677 0.116757 0.185315
H17   H     H_    0.463724 0.538396 0.068043 0.153923
H18   H     H_    0.355216 0.449057 0.215116 0.084298
H19   H     H_    0.418271 0.364945 0.239507 0.181643
H20   H     H_    0.390473 0.356688 0.176595 0.157524
H21   H     H_    0.384672 0.558312 0.331781 0.219807
H22   H     H_    0.395878 0.445592 0.358029 0.166652
H23   H     H_    0.370748 0.244343 0.712143 0.099576
H24   H     H_    0.335270 0.419557 0.298207 0.062039
H25   H     H_    0.919112 0.331252 0.218920 0.207000
H26   H     H_    0.883664 0.378029 0.171955 0.208502
H27   H     H_    0.697596 0.717417 0.437076 0.093811
H28   H     H_    0.689185 0.619903 0.384894 0.144509
H29   H     H_    0.588666 0.567423 0.432935 0.145561
H30   H     H_    0.879985 0.290288 0.861586 0.220493
H31   H     H_    0.849920 0.331296 0.914400 0.239860
H32   H     H_    0.873398 0.281734 0.633127 0.228475
H33   H     H_    0.905080 0.416587 0.616312 0.225157
H34   H     H_    0.458488 0.255664 0.638588 0.133038
H35   H     H_    0.001137 0.534734 0.829693 0.278052
H36   H     H_    0.020697 0.417051 0.814891 0.245896
H37   H     H_    0.007514 0.411602 0.684999 0.215883
H38   H     H_    0.985974 0.530447 0.683062 0.236684
H39   H     H_    0.436457 0.337444 0.883544 0.273435
H40   H     H_    0.414430 0.197752 0.880539 0.258634
H41   H     H_    0.314381 0.291918 0.796062 0.229132
H42   H     H_    0.287208 0.153408 0.791035 0.238388
H43   H     H_    0.426152 0.030475 0.192145 0.127137
H44   H     H_    0.525446 0.106810 0.145039 0.096749
H45   H     H_    0.260185 0.743461 0.706993 0.117331
H46   H     H_    0.372111 0.058781 0.137981 0.154217
H47   H     H_    0.421818 0.850166 0.790898 0.125088
H48   H     H_    0.372780 0.707328 0.758965 0.111779
H49   H     H_    0.406883 0.732311 0.822779 0.149931
H50   H     H_    0.085407 0.994498 0.828997 0.234422
H51   H     H_    0.958826 0.867380 0.817391 0.242192
H52   H     H_    0.097767 0.033541 0.715205 0.231868
H53   H     H_    0.969473 0.907934 0.704899 0.254568
H54   H     H_    0.865080 0.059659 0.691055 0.109195
H55   H     H_    0.875695 0.118834 0.753920 0.137460
H56   H     H_    0.462570 0.202201 0.282831 0.135769
H57   H     H_    0.847692 0.184037 0.705326 0.136054
H58   H     H_    0.777659 0.032175 0.842247 0.227474
H59   H     H_    0.630823 0.986135 0.842268 0.228715
H60   H     H_    0.697295 0.623510 0.804137 0.237932
H61   H     H_    0.550313 0.575033 0.806931 0.224322
H62   H     H_    0.446254 0.607644 0.664515 0.100770
H63   H     H_    0.473317 0.488648 0.650825 0.140833
H64   H     H_    0.449096 0.522152 0.712362 0.134722
H65   H     H_    0.992404 0.557932 0.133061 0.125195
H66   H     H_    0.088162 0.515390 0.161844 0.118002
H67   H     H_    0.909264 0.343558 0.304310 0.224345
H68   H     H_    0.058125 0.486448 0.097910 0.139652
H69   H     H_    0.987900 0.610496 0.373545 0.094496
H70   H     H_    0.073649 0.653125 0.430494 0.123459
H71   H     H_    0.031464 0.515677 0.398257 0.153216
H72   H     H_    0.266915 0.565252 0.195175 0.232374
H73   H     H_    0.390915 0.690390 0.211269 0.250388
H74   H     H_    0.191769 0.447030 0.257039 0.075605
H75   H     H_    0.080454 0.489008 0.264495 0.132277
H76   H     H_    0.138115 0.455452 0.315924 0.166145
H77   H     H_    0.041448 0.994003 0.145258 0.286265
H78   H     H_    0.919072 0.475753 0.305279 0.253723
H79   H     H_    0.188034 0.072258 0.130994 0.265183
H80   H     H_    0.243585 0.195657 0.229706 0.225787
N1    N     N_3   0.864516 0.389880 0.312097 -0.655567
N2    N     N_3   0.347434 0.237719 0.804822 -0.671918
N3    N     N_3   0.030441 0.933075 0.801433 -0.652639
N4    N     N_3   0.060370 0.947953 0.700085 -0.615744
N5    N     N_3   0.703280 0.010921 0.820247 -0.595667
N6    N     N_3   0.621648 0.607130 0.784160 -0.585964
N7    N     N_3   0.307738 0.654439 0.193877 -0.515602
N8    N     N_3   0.113357 0.990604 0.129796 -0.579865
N9    N     N_3   0.168507 0.120489 0.216003 -0.658154
N10   N     N_3   0.951056 0.128781 0.304237 -0.601450
N11   N     N_3   0.889082 0.387524 0.209766 -0.669930
N12   N     N_3   0.874458 0.359292 0.879924 -0.616116
N13   N     N_3   0.839968 0.331893 0.619974 -0.620324
N14   N     N_3   0.998491 0.475612 0.801735 -0.538976
N15   N     N_3   0.987191 0.469716 0.704376 -0.597092
N16   N     N_3   0.474603 0.285451 0.888452 -0.597100
O1    O     O_R   0.296680 0.802170 0.437540 -0.467631
O2    O     O_R   0.637200 0.461990 0.052510 -0.533430
O3    O     O_R   0.664790 0.681920 0.057970 -0.522405
O4    O     O_R   0.525380 0.838530 0.443500 -0.457908
O5    O     O_R   0.815840 0.852920 0.961840 -0.508951
O6    O     O_R   0.012100 0.822630 0.963670 -0.502542
O7    O     O_R   0.037010 0.668460 0.953040 -0.487409
O8    O     O_R   0.813390 0.478970 0.949660 -0.494068
O9    O     O_R   0.632250 0.456930 0.945520 -0.485313
O10   O     O_R   0.660200 0.677230 0.958780 -0.496894
O11   O     O_3   0.830870 0.661990 0.006950 -0.261235
O12   O     O_R   0.662610 0.183990 0.557860 -0.455810
O13   O     O_R   0.702130 0.995190 0.446810 -0.478709
O14   O     O_R   0.661770 0.181390 0.458760 -0.510807
O15   O     O_R   0.499820 0.198480 0.455280 -0.481869
O16   O     O_R   0.311660 0.976250 0.449080 -0.458039
O17   O     O_R   0.297580 0.804960 0.544440 -0.517253
O18   O     O_R   0.526220 0.841130 0.542590 -0.499369
O19   O     O_R   0.703030 0.997990 0.553710 -0.504649
O20   O     O_3   0.199577 0.033706 0.387265 -0.553326
O21   O     O_3   0.806890 0.004945 0.130419 -0.558608
O22   O     O_3   0.816918 0.068046 0.376533 -0.523701
O23   O     O_R   0.500730 0.201280 0.562180 -0.536782
O24   O     O_3   0.484785 0.635103 0.133206 -0.555500
O25   O     O_3   0.535540 0.504845 0.204995 -0.559786
O26   O     O_3   0.518723 0.521586 0.306831 -0.550356
O27   O     O_3   0.554862 0.664023 0.387864 -0.549338
O28   O     O_3   0.459688 0.199324 0.187866 -0.580860
O29   O     O_3   0.249135 0.720877 0.803094 -0.544977
O30   O     O_3   0.706055 0.031212 0.720955 -0.535225
O31   O     O_3   0.612673 0.633436 0.685269 -0.529712
O32   O     O_3   0.174861 0.656246 0.120651 -0.504152
O33   O     O_3   0.166856 0.653879 0.368839 -0.500555
O34   O     O_R   0.312500 0.978850 0.548170 -0.498646
O35   O     O_3   0.254399 0.611766 0.291178 -0.552554
O36   O     O_3   0.499990 0.999990 0.500010 -0.268818
O37   O     O_R   0.820790 0.857990 0.068830 -0.452128
O38   O     O_R   0.016700 0.827330 0.062850 -0.469018
O39   O     O_R   0.041970 0.673520 0.060040 -0.485252
O40   O     O_R   0.817980 0.483660 0.048840 -0.513855

loop_
_geom_bond_atom_site_label_1
_geom_bond_atom_site_label_2
_ccdc_geom_bond_type
H79   N8    S    
C37   O26   S    
Cr2   O14   S    
C40   C41   A    
H67   N1    S    
C31   O21   S    
C6    H69   S    
C27   C29   A    
C5    H65   S    
C15   C18   A    
H33   N13   S    
C19   C20   A    
C77   C78   A    
C104  H47   S    
C25   C43   A    
C56   H23   S    
C3    H57   S    
C98   H9    S    
H25   N11   S    
C17   O28   S    
C23   N8    S    
C55   C60   A    
C29   C30   A    
C7    H74   S    
H78   N1    S    
C35   C37   A    
C9    C69   S    
C18   C19   A    
C95   O10   A    
C79   C84   A    
C100  H20   S    
H59   N5    S    
C89   O2    A    
C65   C70   A    
C89   O40   A    
C13   C23   A    
C92   O9    A    
C34   C35   A    
C102  H28   S    
C14   C24   A    
C97   H8    S    
H37   N15   S    
Cr6   O11   S    
C81   N1    S    
H36   N14   S    
C7    H76   S    
C47   C60   A    
C84   C85   S    
C1    C43   S    
C104  O29   S    
C32   C90   S    
C35   C36   A    
H58   N5    S    
H30   N12   S    
C46   C55   A    
C70   C74   S    
C44   N13   S    
C8    C22   A    
C4    O31   S    
Cr3   O36   S    
C92   O8    A    
Cr4   O5    S    
C93   N11   S    
H2    N9    S    
C51   N12   S    
C75   C91   S    
C102  H29   S    
Cr3   O16   S    
C6    H70   S    
C82   C86   S    
C12   O32   S    
Cr2   O13   S    
C88   O39   A    
Cr5   O39   S    
Cr4   O38   S    
C4    H64   S    
C90   O37   A    
C45   O12   A    
C73   C75   T    
C96   H4    S    
C36   C41   A    
H72   N7    S    
C45   O23   A    
C78   C84   A    
Cr2   O36   S    
C98   H11   S    
C2    C11   A    
H26   N11   S    
Cr4   O6    S    
C44   C46   A    
H80   N9    S    
Cr1   O1    S    
C99   H16   S    
C98   O22   S    
C85   C87   T    
C44   C63   A    
C65   H45   S    
C83   C89   S    
C54   C56   A    
C5    O32   S    
H60   N6    S    
H77   N8    S    
C27   C31   A    
C67   C68   A    
C47   C48   A    
H13   N10   S    
C2    C94   A    
C13   C88   S    
H31   N12   S    
H40   N16   S    
C99   H15   S    
Cr5   O8    S    
C61   C83   T    
C71   C73   S    
C100  H19   S    
H61   N6    S    
C99   H17   S    
C6    H71   S    
C28   C39   A    
C30   N10   S    
C53   C54   A    
C45   C63   S    
C77   O30   S    
Cr1   O4    S    
C51   C52   A    
C87   C95   S    
C102  H27   S    
C96   O20   S    
C80   O31   S    
H39   N16   S    
C69   C72   T    
Cr6   O10   S    
C33   O18   A    
C66   C71   A    
C37   C38   A    
C24   C94   A    
C3    O30   S    
H35   N14   S    
C81   C93   A    
C21   C24   S    
C27   C41   A    
C103  H44   S    
C31   C32   A    
C46   C49   A    
C20   C23   A    
C8    C12   A    
C29   H12   S    
H52   N4    S    
Cr2   O19   S    
H51   N3    S    
C1    O13   A    
C25   C26   A    
H73   N7    S    
C18   H1    S    
C97   H6    S    
C98   H10   S    
C39   C81   A    
C39   C72   S    
C3    H54   S    
Cr4   O11   S    
H38   N15   S    
C9    O14   A    
C26   C36   A    
H41   N2    S    
C97   O21   S    
C49   N15   S    
Cr5   O40   S    
C26   C30   A    
C103  O28   S    
C4    H63   S    
Cr3   O23   S    
C58   N2    S    
C11   O35   S    
C5    H66   S    
C21   O16   A    
C52   C92   S    
Cr6   O3    S    
C20   C22   A    
C104  H49   S    
C10   N7    S    
C101  H21   S    
Cr1   O36   S    
C99   O24   S    
C2    C16   A    
C3    H55   S    
C57   C64   S    
C57   O17   A    
C33   O19   A    
C48   N14   S    
C54   C55   A    
C48   C49   A    
C59   C62   A    
C16   C22   A    
C4    H62   S    
C96   H5    S    
Cr2   O12   S    
C1    O4    A    
C100  H18   S    
C17   C28   A    
C19   N9    S    
C7    H75   S    
C8    C10   A    
C34   C43   A    
C104  H48   S    
C91   O6    A    
C17   C50   A    
C88   O38   A    
C90   O3    A    
C47   C51   A    
C50   C93   A    
C14   O20   S    
C38   O25   S    
C28   H56   S    
Cr1   O18   S    
C6    O33   S    
H14   N10   S    
C25   O22   S    
Cr5   O7    S    
H53   N4    S    
C66   O29   S    
C53   H34   S    
C95   O5    A    
H32   N13   S    
C21   O1    A    
C100  O25   S    
Cr6   O9    S    
C58   C59   A    
C94   O33   S    
C91   O7    A    
C101  H24   S    
H42   N2    S    
C38   C40   A    
C53   C63   A    
C103  H43   S    
C32   C42   A    
Cr3   O34   S    
C77   C82   A    
C42   O24   S    
Cr4   O37   S    
C40   C42   A    
Cr1   O17   S    
C80   C82   A    
C56   C58   A    
C101  O26   S    
C67   C71   A    
C78   N5    S    
Cr6   O2    S    
C97   H7    S    
C96   H3    S    
C5    H68   S    
C57   O34   A    
Cr5   O11   S    
C10   C11   A    
C79   N6    S    
C79   C80   A    
C101  H22   S    
C9    O15   A    
C103  H46   S    
C59   C60   A    
C33   C76   S    
C12   C13   A    
C102  O27   S    
C68   C70   A    
C65   C66   A    
C76   C86   T    
C52   C62   A    
C50   C61   S    
C64   C74   T    
C14   C15   A    
C68   N4    S    
C67   N3    S    
C34   O27   S    
C7    O35   S    
C62   N16   S    
C15   C16   A    
H50   N3    S    
Cr3   O15   S    
