data_mof_unit_pretest_1693.cif
_audit_creation_date              2013-03-05T16:19:09-0500
_audit_creation_method            fapswitch 2.2
_symmetry_space_group_name_H-M    P1
_symmetry_Int_Tables_number       1
_space_group_crystal_system       triclinic
_cell_length_a                    18.868037
_cell_length_b                    18.702166
_cell_length_c                    18.984915
_cell_angle_alpha                 109.538454
_cell_angle_beta                  109.463533
_cell_angle_gamma                 109.291745
_cell_volume                      5164.69812112

loop_
_atom_site_label
_atom_site_type_symbol
_atom_site_description
_atom_site_fract_x
_atom_site_fract_y
_atom_site_fract_z
_atom_type_partial_charge
O1    O     O_R   0.909480 0.462010 0.051860 -0.597460
O2    O     O_R   0.910180 0.357650 0.948150 -0.551590
C1    C     C_R   0.882843 0.380852 0.001084 0.844773
O3    O     O_R   0.910060 0.552180 0.962250 -0.584392
O4    O     O_R   0.910760 0.447820 0.858550 -0.587177
C2    C     C_R   0.883639 0.502157 0.882120 0.843912
Cu1   Cu    Cu3+1 0.999590 0.561790 0.061400 1.029060
Cu2   Cu    Cu3+1 0.000410 0.438210 0.938600 1.076865
O5    O     O_R   0.089820 0.642350 0.051850 -0.589771
O6    O     O_R   0.090520 0.537990 0.948140 -0.561409
O7    O     O_R   0.089240 0.552180 0.141450 -0.566285
O8    O     O_R   0.089940 0.447820 0.037750 -0.543830
C3    C     C_R   0.118426 0.618907 0.999948 0.839533
C4    C     C_R   0.119131 0.501132 0.117575 0.888301
C5    C     C_2   0.749862 0.492178 0.673712 0.292075
C6    C     C_2   0.679061 0.491695 0.675867 -0.336786
H1    H     H_    0.662622 0.477884 0.721241 0.149347
C7    C     C_2   0.809573 0.481238 0.737365 -0.165704
C8    C     C_2   0.822272 0.509588 0.817766 -0.347660
H2    H     H_    0.846828 0.453125 0.718793 0.198601
H3    H     H_    0.791438 0.545045 0.839416 0.171345
C9    C     C_R   0.736792 0.306098 0.977942 0.058542
C10   C     C_R   0.817271 0.311849 0.999657 -0.195429
C11   C     C_R   0.828434 0.242788 0.006386 0.206409
C12   C     C_R   0.761714 0.174994 0.001783 0.219974
C13   C     C_R   0.685167 0.178089 0.992175 -0.212101
C14   C     C_R   0.672070 0.240523 0.974138 0.113294
C15   C     C_3   0.642173 0.300030 0.012187 -0.434431
C16   C     C_3   0.713739 0.372467 0.016489 -0.417488
H4    H     H_    0.576063 0.281771 0.965648 0.222248
H5    H     H_    0.652520 0.310290 0.076651 0.180957
H6    H     H_    0.688903 0.395930 0.972315 0.210043
H7    H     H_    0.765345 0.424776 0.083531 0.215330
C17   C     C_R   0.178296 0.493672 0.248616 0.031039
C18   C     C_R   0.187961 0.503385 0.182625 -0.142352
C19   C     C_R   0.264874 0.511098 0.180404 0.337744
C20   C     C_R   0.327676 0.509588 0.245655 -0.223670
H8    H     H_    0.387007 0.516857 0.245479 0.196350
C21   C     C_R   0.314130 0.498915 0.310991 -0.143303
C22   C     C_R   0.237667 0.490020 0.308861 0.052711
C23   C     C_3   0.186756 0.478295 0.353597 0.172859
C24   C     C_3   0.118121 0.481253 0.283812 -0.470904
H9    H     H_    0.164982 0.414276 0.351587 0.130637
H10   H     H_    0.056871 0.417568 0.238947 0.195631
H11   H     H_    0.109682 0.539098 0.307788 0.247055
C25   C     C_R   0.250315 0.762538 0.073817 0.069291
C26   C     C_R   0.183977 0.685132 0.998925 -0.072925
C27   C     C_R   0.183872 0.672415 0.921226 -0.156672
H12   H     H_    0.133573 0.613212 0.860794 0.168438
C28   C     C_R   0.248415 0.737520 0.921197 -0.170815
H13   H     H_    0.246833 0.727244 0.860923 0.168124
C29   C     C_R   0.315111 0.814645 0.999204 -0.039155
C30   C     C_R   0.313662 0.823832 0.074140 0.080181
C31   C     C_3   0.358286 0.884792 0.168733 -0.500592
C32   C     C_3   0.286256 0.814490 0.168615 0.159178
H14   H     H_    0.424331 0.894921 0.203282 0.242631
H15   H     H_    0.354707 0.945775 0.183364 0.207969
H16   H     H_    0.242294 0.834981 0.185221 0.130829
O9    O     O_R   0.549550 0.461960 0.407200 -0.579649
O10   O     O_R   0.445180 0.357580 0.407200 -0.589177
C33   C     C_R   0.496832 0.380677 0.378367 0.810456
O11   O     O_R   0.638540 0.552110 0.586390 -0.540995
O12   O     O_R   0.534170 0.447730 0.586390 -0.570723
C34   C     C_R   0.614641 0.497322 0.612615 0.892810
Cu3   Cu    Cu3+1 0.558560 0.561730 0.496790 1.039766
Cu4   Cu    Cu3+1 0.434970 0.438120 0.496790 1.062344
O13   O     O_R   0.548350 0.642270 0.586380 -0.591445
O14   O     O_R   0.443970 0.537890 0.586380 -0.531560
O15   O     O_R   0.459360 0.552110 0.407190 -0.583335
O16   O     O_R   0.354990 0.447740 0.407190 -0.583400
C35   C     C_R   0.497696 0.618687 0.616090 0.853874
C36   C     C_R   0.379031 0.499768 0.378624 0.824080
O17   O     O_R   0.448700 0.909820 0.858480 -0.550879
O18   O     O_R   0.552410 0.909770 0.962140 -0.570148
C37   C     C_R   0.501205 0.881614 0.882171 0.805979
O19   O     O_R   0.538310 0.090150 0.948110 -0.576838
O20   O     O_R   0.642020 0.090090 0.051780 -0.549580
C38   C     C_R   0.618824 0.116745 0.997894 0.824616
Cu5   Cu    Cu3+1 0.438600 0.999980 0.938570 1.091561
Cu6   Cu    Cu3+1 0.561400 0.999920 0.061330 1.046733
O21   O     O_R   0.447590 0.090130 0.037760 -0.551686
O22   O     O_R   0.551300 0.090080 0.141420 -0.585967
O23   O     O_R   0.357980 0.909810 0.948120 -0.559787
O24   O     O_R   0.461690 0.909750 0.051790 -0.582413
C39   C     C_R   0.498748 0.118202 0.117915 0.821308
C40   C     C_R   0.381465 0.881755 0.000365 0.805809
C41   C     C_R   0.573939 0.321898 0.314860 0.145086
C42   C     C_R   0.496916 0.311978 0.313616 -0.143603
C43   C     C_R   0.420279 0.231268 0.252899 -0.209866
H17   H     H_    0.360429 0.220028 0.253546 0.196260
C44   C     C_R   0.419369 0.166504 0.187781 0.235817
C45   C     C_R   0.496422 0.182009 0.184762 -0.140829
C46   C     C_R   0.573796 0.257484 0.252134 0.092297
C47   C     C_3   0.641634 0.322812 0.248196 -0.499497
C48   C     C_3   0.641823 0.393621 0.317272 -0.381363
H18   H     H_    0.703118 0.320978 0.270804 0.222454
H19   H     H_    0.616690 0.320739 0.185258 0.191806
H20   H     H_    0.703386 0.432494 0.379891 0.239617
H21   H     H_    0.617454 0.432671 0.294267 0.209951
C49   C     C_R   0.496436 0.755495 0.680822 0.026712
C50   C     C_R   0.501569 0.685048 0.685931 -0.096808
C51   C     C_R   0.509423 0.680792 0.761231 0.250526
C52   C     C_R   0.510561 0.746375 0.826658 -0.184652
H22   H     H_    0.516934 0.742909 0.884116 0.190335
C53   C     C_R   0.501983 0.815081 0.816867 -0.121289
C54   C     C_R   0.494857 0.816468 0.742416 0.056720
C55   C     C_3   0.487278 0.866331 0.695924 0.156559
C56   C     C_3   0.488108 0.795963 0.625045 -0.452116
H23   H     H_    0.544665 0.932775 0.730687 0.116089
H24   H     H_    0.426223 0.753404 0.562683 0.266076
H25   H     H_    0.547153 0.821347 0.619694 0.190096
Br1   Br    Br    0.771986 0.495118 0.582588 -0.493719
N1    N     N_R   0.281406 0.521919 0.114822 0.150684
O25   O     O_R   0.254532 0.565137 0.082195 -0.319289
O26   O     O_R   0.331619 0.496725 0.094088 -0.321197
N2    N     N_R   0.229903 0.553557 0.439926 0.151500
O27   O     O_R   0.241707 0.541569 0.505639 -0.317202
O28   O     O_R   0.258918 0.632789 0.452361 -0.310250
N3    N     N_R   0.317670 0.772594 0.214454 0.163732
O29   O     O_R   0.288800 0.757267 0.264193 -0.317882
O30   O     O_R   0.373441 0.749416 0.205505 -0.289728
Br2   Br    Br    0.311898 0.059516 0.104287 -0.490025
Br3   Br    Br    0.522987 0.590266 0.779889 -0.462486
N4    N     N_R   0.404477 0.865171 0.667628 0.175624
O31   O     O_R   0.331928 0.793120 0.631309 -0.259032
O32   O     O_R   0.403368 0.937612 0.681203 -0.319490
Br4   Br    Br    0.937322 0.245303 0.030321 -0.424845
Br5   Br    Br    0.775673 0.078866 0.007096 -0.393907

loop_
_geom_bond_atom_site_label_1
_geom_bond_atom_site_label_2
_geom_bond_distance
_ccdc_geom_bond_type
C5    C7    1.477115 S    
Cu4   O14   1.969459 S    
C41   C42   1.393917 A    
C50   C51   1.419403 A    
C9    C16   1.492238 S    
C55   H23   1.112782 S    
C23   C24   1.545423 S    
C1    C10   1.447815 S    
C18   C19   1.426562 A    
C17   C24   1.491530 S    
O19   Cu5   1.971893 S    
Cu6   O24   1.971895 S    
C48   H20   1.111187 S    
Cu1   Cu2   2.687137 S    
C32   N3    1.463502 S    
C30   C31   1.490761 S    
Cu1   O7    1.968148 S    
C2    C8    1.459381 S    
C13   C14   1.394074 A    
C13   C38   1.455995 S    
C17   C22   1.347830 A    
C14   C15   1.492374 S    
C15   C16   1.519557 S    
C8    H3    1.085861 S    
C12   Br5   1.930828 S    
O19   C38   1.295349 A    
C7    C8    1.341420 D    
C16   H6    1.111568 S    
O4    C2    1.298789 A    
Cu2   O6    1.969295 S    
O7    C4    1.292938 A    
C48   H21   1.112172 S    
C54   C55   1.491221 S    
C5    C6    1.347229 D    
C16   H7    1.112187 S    
N2    O27   1.300453 A    
C17   C18   1.385079 A    
O5    C3    1.294716 A    
C45   C46   1.395021 A    
O11   C34   1.298721 A    
C31   C32   1.546314 S    
N2    O28   1.301941 A    
C6    H1    1.085780 S    
Cu3   O13   1.973663 S    
C44   Br2   1.919287 S    
C41   C48   1.492162 S    
C25   C32   1.491517 S    
C11   Br4   1.931161 S    
C28   C29   1.409693 A    
C21   C36   1.440158 S    
C43   C44   1.402238 A    
O13   C35   1.293531 A    
C27   C28   1.409509 A    
C35   C50   1.441709 S    
O12   Cu4   1.969931 S    
O10   Cu4   1.973661 S    
O18   Cu6   1.972819 S    
C23   H9    1.112523 S    
C47   C48   1.518425 S    
C24   H10   1.111576 S    
C55   N4    1.462984 S    
O3    Cu1   1.970583 S    
C19   N1    1.440182 S    
C39   C45   1.447507 S    
N3    O30   1.302077 A    
C31   H14   1.111388 S    
C49   C56   1.490832 S    
O9    C33   1.296686 A    
O18   C37   1.291221 A    
C11   C12   1.413462 A    
Cu6   O22   1.970274 S    
C21   C22   1.381579 A    
C3    C26   1.443611 S    
C47   H19   1.110379 S    
C12   C13   1.417515 A    
O20   C38   1.293644 A    
C4    C18   1.440050 S    
O12   C34   1.292394 A    
O10   C33   1.292862 A    
O1    C1    1.296176 A    
C24   H11   1.111592 S    
O15   C36   1.290866 A    
C20   H8    1.083491 S    
C33   C42   1.451948 S    
C26   C27   1.412655 A    
Cu2   O8    1.970584 S    
C28   H13   1.083319 S    
O17   Cu5   1.970275 S    
C52   C53   1.410300 A    
C46   C47   1.492704 S    
C47   H18   1.111545 S    
O3    C2    1.293250 A    
C27   H12   1.083187 S    
O8    C4    1.290086 A    
C37   C53   1.441504 S    
C9    C14   1.375839 A    
O17   C37   1.291919 A    
C55   C56   1.544689 S    
C51   Br3   1.919479 S    
C44   C45   1.410351 A    
C29   C30   1.385537 A    
N4    O32   1.300424 A    
N1    O25   1.300168 A    
O20   Cu6   1.970766 S    
Cu1   O5    1.973525 S    
C25   C26   1.387056 A    
C22   C23   1.490387 S    
O11   Cu3   1.968920 S    
O1    Cu1   1.969295 S    
C49   C54   1.349951 A    
C5    Br1   1.923491 S    
C15   H5    1.109799 S    
O2    Cu2   1.973525 S    
O24   C40   1.291555 A    
O6    C3    1.291350 A    
O4    Cu2   1.968148 S    
N3    O29   1.300466 A    
O22   C39   1.290584 A    
C6    C34   1.458369 S    
C53   C54   1.384481 A    
Cu5   O21   1.972815 S    
C56   H25   1.111323 S    
C29   C40   1.438063 S    
O2    C1    1.290689 A    
C20   C21   1.409574 A    
O9    Cu3   1.969360 S    
Cu5   O23   1.970768 S    
Cu4   O16   1.968918 S    
O14   C35   1.290674 A    
Cu3   O15   1.969833 S    
C41   C46   1.380411 A    
C25   C30   1.351957 A    
C15   H4    1.111519 S    
C49   C50   1.384966 A    
C56   H24   1.110379 S    
C7    H2    1.086390 S    
C51   C52   1.411915 A    
C10   C11   1.414582 A    
Cu5   Cu6   2.684206 S    
O23   C40   1.290075 A    
C42   C43   1.407575 A    
C19   C20   1.416596 A    
Cu3   Cu4   2.687010 S    
C32   H16   1.112554 S    
C52   H22   1.083335 S    
C9    C10   1.390163 A    
O16   C36   1.293034 A    
C23   N2    1.463129 S    
C43   H17   1.083347 S    
O21   C39   1.294198 A    
N4    O31   1.302206 A    
N1    O26   1.301545 A    
C31   H15   1.110835 S    
