data_mof_unit_pretest_1614.cif
_audit_creation_date              2012-12-10T17:00:50-0500
_audit_creation_method            fapswitch 2.2
_symmetry_space_group_name_H-M    P1
_symmetry_Int_Tables_number       1
_space_group_crystal_system       triclinic
_cell_length_a                    13.071931
_cell_length_b                    13.087268
_cell_length_c                    19.495394
_cell_angle_alpha                 100.068747
_cell_angle_beta                  80.717077
_cell_angle_gamma                 90.905423
_cell_volume                      3240.55568293

loop_
_atom_site_label
_atom_site_type_symbol
_atom_type_description
_atom_site_fract_x
_atom_site_fract_y
_atom_site_fract_z
_atom_type_partial_charge
C1    C     C_R   0.222562 0.533864 0.527652 0.514664
C2    C     C_2   0.455857 0.533530 0.990088 -0.022535
C3    C     C_2   0.523969 0.477907 0.014039 -0.149530
C4    C     C_R   0.776819 0.465002 0.474433 0.502752
C5    C     C_R   0.518810 0.476403 0.233004 0.049885
C6    C     C_2   0.889720 0.458129 0.469034 -0.010433
C7    C     C_2   0.935819 0.471569 0.527546 -0.068115
C8    C     C_2   0.108538 0.540233 0.541097 -0.105669
C9    C     C_2   0.048773 0.458330 0.521541 -0.054082
C10   C     C_2   0.538529 0.889581 0.524630 -0.014781
C11   C     C_2   0.530022 0.935144 0.468320 -0.067771
C12   C     C_R   0.460580 0.526909 0.913451 0.015462
C13   C     C_2   0.463827 0.108578 0.465559 -0.104356
C14   C     C_2   0.543348 0.047876 0.472076 -0.055319
C15   C     C_R   0.469193 0.222615 0.477787 0.509579
C16   C     C_R   0.532073 0.776831 0.520018 0.505780
C17   C     C_R   0.511835 0.484637 0.309371 0.506306
C18   C     C_R   0.488579 0.512489 0.690554 0.510601
C19   C     C_R   0.479333 0.515172 0.766885 0.030509
C20   C     C_R   0.487794 0.424079 0.795369 -0.015656
C21   C     C_R   0.477861 0.430687 0.868244 -0.116835
C22   C     C_1   0.502822 0.322513 0.751743 0.227260
C23   C     C_R   0.449462 0.616598 0.885221 -0.107395
C24   C     C_3   0.488945 0.279447 0.067038 -0.387908
C25   C     C_1   0.091039 0.354580 0.494388 0.268416
C26   C     C_1   0.876598 0.499423 0.597874 0.227910
C27   C     C_1   0.950269 0.442622 0.398792 0.211751
C28   C     C_1   0.644794 0.088849 0.482058 0.264584
C29   C     C_1   0.507325 0.875431 0.402630 0.222858
C30   C     C_1   0.548525 0.950442 0.592788 0.210720
C31   C     C_3   0.503255 0.278519 0.215242 -0.369195
C32   C     C_1   0.375725 0.597472 0.037789 0.214938
C33   C     C_R   0.458646 0.610723 0.812528 -0.122928
C34   C     C_R   0.536987 0.566843 0.134085 -0.107342
C35   C     C_R   0.534934 0.567924 0.205305 -0.122928
C36   C     C_R   0.508914 0.380413 0.187817 0.013141
C37   C     C_R   0.507193 0.380035 0.115242 0.037603
C38   C     C_R   0.521174 0.474517 0.089157 0.043450
H1    H     H_    0.072246 0.614446 0.566174 0.113762
H2    H     H_    0.556594 0.226359 0.060170 0.134322
H3    H     H_    0.418284 0.241594 0.090238 0.145414
H4    H     H_    0.526781 0.285046 0.267885 0.148764
H5    H     H_    0.423206 0.248171 0.217896 0.153512
H6    H     H_    0.557717 0.220676 0.179915 0.125861
H7    H     H_    0.392039 0.073144 0.452611 0.121366
H8    H     H_    0.544469 0.641181 0.239283 0.160367
H9    H     H_    0.582336 0.429520 0.977054 0.125170
H10   H     H_    0.435804 0.691474 0.919312 0.129518
H11   H     H_    0.550083 0.638791 0.113846 0.134533
H12   H     H_    0.451158 0.681397 0.791837 0.144489
H13   H     H_    0.482846 0.360348 0.889886 0.110346
H14   H     H_    0.476560 0.290333 0.013890 0.132263
N1    N     N_1   0.514808 0.241145 0.716832 -0.231718
N2    N     N_1   0.124518 0.271765 0.472757 -0.253323
N3    N     N_1   0.829330 0.521643 0.653988 -0.271420
N4    N     N_1   0.998615 0.430254 0.342712 -0.256887
N5    N     N_1   0.725746 0.121306 0.489988 -0.246218
N6    N     N_1   0.489162 0.827838 0.350223 -0.295760
N7    N     N_1   0.556552 0.998868 0.647261 -0.240282
N8    N     N_1   0.311769 0.648486 0.075835 -0.272347
O1    O     O_3   0.500000 0.500000 0.500000 -0.458613
O2    O     O_R   0.441420 0.437150 0.344000 -0.537870
O3    O     O_R   0.438960 0.578560 0.667440 -0.545923
O4    O     O_R   0.575450 0.541060 0.341470 -0.534267
O5    O     O_R   0.544160 0.443230 0.647100 -0.516732
O6    O     O_R   0.530110 0.266880 0.518530 -0.514571
O7    O     O_R   0.465470 0.738830 0.563940 -0.533237
O8    O     O_R   0.266890 0.467300 0.476120 -0.516607
O9    O     O_R   0.737530 0.526990 0.441410 -0.534461
O10   O     O_R   0.276880 0.592620 0.567490 -0.532342
O11   O     O_R   0.718700 0.413090 0.514970 -0.517288
O12   O     O_R   0.414920 0.276880 0.447500 -0.532325
O13   O     O_R   0.589510 0.717410 0.470040 -0.525156
Zn1   Zn    Zn3+2 0.571990 0.407410 0.544380 0.996201
Zn2   Zn    Zn3+2 0.407420 0.421690 0.442900 0.969520
Zn3   Zn    Zn3+2 0.598910 0.570150 0.439280 0.971897
Zn4   Zn    Zn3+2 0.421690 0.600750 0.573440 0.964654

loop_
_geom_bond_atom_site_label_1
_geom_bond_atom_site_label_2
_ccdc_geom_bond_type
C24   H14   S    
C31   H4    S    
C1    C8    S    
C19   C20   A    
O7    Zn4   S    
C2    C12   S    
C26   N3    T    
C9    C25   S    
C28   N5    T    
O1    Zn2   S    
O8    Zn2   S    
C15   O12   A    
C12   C23   A    
C7    C26   S    
C31   H5    S    
C36   C37   A    
C34   C35   A    
C17   O4    A    
C11   C14   S    
C18   O3    A    
C5    C17   S    
O6    Zn1   S    
C5    C36   A    
C1    O8    A    
O9    Zn3   S    
C2    C32   S    
C18   C19   S    
C3    C38   S    
O1    Zn4   S    
C8    C9    D    
C23   C33   A    
C8    H1    S    
C13   C14   D    
O10   Zn4   S    
C24   H3    S    
O12   Zn2   S    
C4    O9    A    
C22   N1    T    
O1    Zn3   S    
C31   H6    S    
C16   O13   A    
C25   N2    T    
C4    C6    S    
C19   C33   A    
C27   N4    T    
C33   H12   S    
C15   O6    A    
C12   C21   A    
O5    Zn1   S    
C18   O5    A    
C37   C38   A    
C17   O2    A    
C10   C30   S    
C6    C27   S    
C30   N7    T    
C24   C37   S    
O4    Zn3   S    
C16   O7    A    
C29   N6    T    
C20   C22   S    
C13   C15   S    
O13   Zn3   S    
O2    Zn2   S    
C32   N8    T    
C21   H13   S    
O3    Zn4   S    
C7    C9    S    
C34   H11   S    
C23   H10   S    
C34   C38   A    
O11   Zn1   S    
C6    C7    D    
O1    Zn1   S    
C1    O10   A    
C2    C3    D    
C10   C16   S    
C13   H7    S    
C5    C35   A    
C3    H9    S    
C24   H2    S    
C10   C11   D    
C20   C21   A    
C11   C29   S    
C31   C36   S    
C14   C28   S    
C35   H8    S    
C4    O11   A    
