data_mof_unit_pretest_881.cif
_audit_creation_date              2012-10-26T21:00:12-0400
_audit_creation_method            fapswitch 2.2
_symmetry_space_group_name_H-M    P1
_symmetry_Int_Tables_number       1
_space_group_crystal_system       triclinic
_cell_length_a                    19.374671
_cell_length_b                    8.703648
_cell_length_c                    7.510778
_cell_angle_alpha                 101.995591
_cell_angle_beta                  95.815308
_cell_angle_gamma                 92.474172
_cell_volume                      1229.82494801

loop_
_atom_site_label
_atom_site_type_symbol
_atom_type_description
_atom_site_fract_x
_atom_site_fract_y
_atom_site_fract_z
_atom_type_partial_charge
C1    C     C_R   0.493281 0.201186 0.455696 0.536052
C2    C     C_R   0.816191 0.506239 0.364749 -0.190465
C3    C     C_R   0.145608 0.505383 0.507203 -0.052449
C4    C     C_R   0.855421 0.484101 0.522227 -0.043173
C5    C     C_R   0.173309 0.435176 0.345119 0.286117
C6    C     C_R   0.822939 0.466262 0.676284 0.265767
C7    C     C_R   0.245610 0.438577 0.341048 0.243309
C8    C     C_R   0.749857 0.467926 0.668606 0.242910
C9    C     C_R   0.291104 0.510477 0.498559 0.004316
C10   C     C_R   0.709925 0.495705 0.509122 -0.011769
C11   C     C_R   0.930678 0.486897 0.524747 0.346022
C12   C     C_R   0.503292 0.799091 0.543911 0.542472
C13   C     C_R   0.070076 0.495245 0.519494 0.341864
C14   C     C_3   0.302148 0.839569 0.811033 -0.095401
C15   C     C_3   0.727441 0.723657 0.213981 -0.037785
C16   C     C_3   0.099953 0.459629 0.092491 -0.075406
C17   C     C_3   0.893567 0.316339 0.826825 -0.120470
C18   C     C_3   0.270157 0.470964 0.060786 -0.059525
C19   C     C_3   0.726647 0.311253 0.872095 0.011484
C20   C     C_2   0.410681 0.970255 0.330446 0.180574
C21   C     C_2   0.585627 0.029869 0.651337 0.205920
C22   C     C_3   0.402973 0.254984 0.932794 -0.056088
C23   C     C_2   0.477571 0.036633 0.442390 -0.021398
C24   C     C_3   0.561472 0.794119 0.054822 -0.026682
C25   C     C_2   0.516646 0.963339 0.555172 0.005221
C26   C     C_R   0.367478 0.502877 0.499930 0.587211
C27   C     C_R   0.632845 0.499870 0.501305 0.583167
C28   C     C_R   0.262888 0.594679 0.652553 0.184386
C29   C     C_R   0.744606 0.522649 0.361095 0.183586
C30   C     C_R   0.190714 0.588129 0.657502 -0.192503
Cu1   Cu    Cu3+1 0.507710 0.517380 0.684380 1.104224
Cu2   Cu    Cu3+1 0.492290 0.482620 0.315620 1.110589
H1    H     H_    0.170210 0.645755 0.781370 0.145747
H2    H     H_    0.108005 0.586532 0.162186 0.099127
H3    H     H_    0.043126 0.429513 0.065425 0.168890
H4    H     H_    0.863857 0.216280 0.727792 0.093852
H5    H     H_    0.897756 0.285222 0.963293 0.145044
H6    H     H_    0.947275 0.328773 0.790459 0.158076
H7    H     H_    0.323089 0.525907 0.064883 0.198753
H8    H     H_    0.234617 0.568405 0.088822 0.119013
H9    H     H_    0.253903 0.402255 0.919949 0.136368
H10   H     H_    0.738437 0.215740 0.757689 0.108956
H11   H     H_    0.678063 0.273671 0.922074 0.178451
H12   H     H_    0.842024 0.520381 0.247126 0.175623
H13   H     H_    0.768349 0.324618 0.987560 0.148363
H14   H     H_    0.389290 0.027657 0.224229 0.101435
H15   H     H_    0.604137 0.003025 0.781562 0.079513
H16   H     H_    0.386719 0.257197 0.070325 0.167801
H17   H     H_    0.396525 0.131493 0.854735 0.086144
H18   H     H_    0.369452 0.324359 0.855420 0.119770
H19   H     H_    0.506638 0.823645 0.026311 0.132913
H20   H     H_    0.594347 0.812326 0.947978 0.110397
H21   H     H_    0.583435 0.877148 0.182896 0.110979
H22   H     H_    0.314506 0.872004 0.681454 0.157556
H23   H     H_    0.341276 0.903492 0.922205 0.131761
H24   H     H_    0.250308 0.878847 0.845039 0.132661
H25   H     H_    0.784519 0.747901 0.218991 0.110983
H26   H     H_    0.707056 0.802864 0.330341 0.111895
H27   H     H_    0.704279 0.751985 0.084773 0.165762
H28   H     H_    0.120240 0.443736 0.957421 0.127732
N1    N     N_R   0.028038 0.381134 0.402886 -0.173052
N2    N     N_R   0.972358 0.598502 0.645871 -0.186523
N3    N     N_R   0.959539 0.377579 0.404228 -0.254053
N4    N     N_R   0.040976 0.602886 0.642859 -0.252784
N5    N     N_2   0.480680 0.456420 0.038530 0.084809
N6    N     N_2   0.519320 0.543580 0.961470 0.116498
O1    O     O_R   0.505010 0.286130 0.619770 -0.446493
O2    O     O_3   0.708606 0.564547 0.211829 -0.491152
O3    O     O_3   0.130911 0.353627 0.191677 -0.516845
O4    O     O_3   0.861633 0.460961 0.840677 -0.553886
O5    O     O_3   0.271160 0.366304 0.181986 -0.574233
O6    O     O_3   0.717539 0.457859 0.822847 -0.492400
O7    O     O_2   0.376933 0.858854 0.361265 -0.523644
O8    O     O_2   0.623991 0.107205 0.579147 -0.555760
O9    O     O_3   0.472897 0.306768 0.942932 -0.461091
O10   O     O_3   0.566352 0.640567 0.082407 -0.428276
O11   O     O_R   0.494990 0.713870 0.380230 -0.462789
O12   O     O_R   0.491990 0.256780 0.308370 -0.523983
O13   O     O_R   0.508010 0.743220 0.691630 -0.567995
O14   O     O_R   0.406650 0.514660 0.655750 -0.490088
O15   O     O_R   0.593350 0.485340 0.344250 -0.417884
O16   O     O_R   0.393640 0.485310 0.344340 -0.504242
O17   O     O_R   0.606360 0.514690 0.655660 -0.453950
O18   O     O_3   0.306307 0.677089 0.802482 -0.575825

loop_
_geom_bond_atom_site_label_1
_geom_bond_atom_site_label_2
_ccdc_geom_bond_type
C10   C27   S    
C24   H20   S    
Cu1   N6    S    
C22   H16   S    
C28   O18   S    
C14   H24   S    
C14   O18   S    
C11   N2    A    
Cu1   O14   S    
Cu1   O1    S    
Cu2   O15   S    
C2    C29   A    
C11   N3    A    
C16   H3    S    
C7    O5    S    
C12   O13   A    
Cu1   O17   S    
C7    C9    A    
C16   H28   S    
N1    N3    A    
C18   H8    S    
N2    N4    A    
C16   H2    S    
Cu2   O11   S    
C2    H12   S    
C5    O3    S    
C17   H4    S    
C3    C13   S    
C19   H10   S    
C22   H18   S    
C24   H19   S    
C14   H23   S    
C17   O4    S    
C26   O16   A    
C1    O12   A    
C15   H25   S    
C19   O6    S    
C22   O9    S    
C19   H11   S    
C9    C26   S    
C8    O6    S    
C27   O15   A    
C4    C6    A    
C18   H9    S    
C5    C7    A    
C24   O10   S    
C6    C8    A    
C24   H21   S    
C21   O8    D    
C26   O14   A    
C3    C30   A    
C2    C4    A    
C18   H7    S    
C29   O2    S    
Cu1   Cu2   S    
C20   C23   S    
N6    O10   S    
C12   O11   A    
C17   H5    S    
C4    C11   S    
C22   H17   S    
C14   H22   S    
C1    C23   S    
C15   H26   S    
C18   O5    S    
C6    O4    S    
C21   C25   S    
C30   H1    S    
C15   H27   S    
C16   O3    S    
C3    C5    A    
C19   H13   S    
Cu1   O13   S    
Cu2   O16   S    
N5    O9    S    
C12   C25   S    
C27   O17   A    
C10   C29   A    
C13   N4    A    
C15   O2    S    
C28   C30   A    
C1    O1    A    
C20   O7    D    
C17   H6    S    
C23   C25   D    
Cu2   O12   S    
C13   N1    A    
C8    C10   A    
N5    N6    D    
C20   H14   S    
C9    C28   A    
Cu2   N5    S    
C21   H15   S    
