data_mof_unit_pretest_22.cif
_audit_creation_date              2012-12-10T18:58:44-0500
_audit_creation_method            fapswitch 2.2
_symmetry_space_group_name_H-M    P1
_symmetry_Int_Tables_number       1
_space_group_crystal_system       triclinic
_cell_length_a                    13.04174
_cell_length_b                    10.85013
_cell_length_c                    9.562914
_cell_angle_alpha                 90.630902
_cell_angle_beta                  95.033522
_cell_angle_gamma                 90.955882
_cell_volume                      1347.68421577

loop_
_atom_site_label
_atom_site_type_symbol
_atom_type_description
_atom_site_fract_x
_atom_site_fract_y
_atom_site_fract_z
_atom_type_partial_charge
C1    C     C_R   0.496556 0.262402 0.498558 0.807267
C2    C     C_R   0.027223 0.485074 0.568035 0.056523
C3    C     C_R   0.974144 0.509159 0.435322 0.054875
C4    C     C_R   0.866901 0.512254 0.423333 -0.223786
C5    C     C_R   0.864320 0.471367 0.671354 -0.187551
C6    C     C_R   0.971220 0.465753 0.686322 0.160520
C7    C     C_R   0.504357 0.065537 0.622351 0.069052
C8    C     C_R   0.494822 0.128723 0.495586 -0.215542
C9    C     C_R   0.485390 0.060692 0.367759 0.432491
C10   C     C_R   0.491267 0.932676 0.370689 -0.306814
C11   C     C_R   0.496150 0.870464 0.498807 -0.188308
C12   C     C_R   0.300898 0.498649 0.474884 0.802334
C13   C     C_R   0.502245 0.938206 0.623793 0.157193
C14   C     C_3   0.430565 0.934506 0.737496 -0.435159
C15   C     C_3   0.435652 0.073897 0.738898 -0.486843
C16   C     C_R   0.588452 0.523520 0.084451 0.205084
C17   C     C_R   0.414558 0.466028 0.063526 -0.064387
C18   C     C_R   0.414540 0.466030 0.915017 -0.086983
C19   C     C_R   0.588914 0.521808 0.937568 0.191361
C20   C     C_3   0.659770 0.631605 0.940139 0.284590
C21   C     C_3   0.654102 0.637593 0.098432 -0.577595
C22   C     C_R   0.497360 0.737330 0.500037 0.828029
C23   C     C_R   0.699322 0.498810 0.525436 0.816993
C24   C     C_R   0.811812 0.494588 0.540406 -0.131153
C25   C     C_R   0.188799 0.499280 0.461294 -0.095603
C26   C     C_R   0.028981 0.531194 0.317083 0.448589
C27   C     C_R   0.136137 0.520434 0.330630 -0.317886
C28   C     C_R   0.134624 0.481571 0.579277 -0.284026
Cu1   Cu    Cu3+1 0.499990 0.499980 0.640670 0.971448
Cu2   Cu    Cu3+1 0.500010 0.500020 0.359330 0.959322
H1    H     H_    0.825977 0.528072 0.322483 0.193963
H2    H     H_    0.464949 0.894030 0.836414 0.231366
H3    H     H_    0.360571 0.116977 0.706725 0.196869
H4    H     H_    0.477410 0.113569 0.835771 0.219287
H5    H     H_    0.344907 0.439267 0.109489 0.135759
H6    H     H_    0.344909 0.439373 0.851622 0.129186
H7    H     H_    0.736098 0.605205 0.907240 0.086564
H8    H     H_    0.729697 0.622657 0.156772 0.176897
H9    H     H_    0.611877 0.718352 0.135163 0.220353
H10   H     H_    0.822338 0.455777 0.762562 0.164594
H11   H     H_    0.178694 0.530885 0.239250 0.150913
H12   H     H_    0.176888 0.464298 0.679360 0.153810
H13   H     H_    0.485291 0.882412 0.271671 0.187970
H14   H     H_    0.353144 0.896334 0.700307 0.187693
N1    N     N_R   0.500660 0.500930 0.148010 -0.167097
N2    N     N_R   0.500660 0.500890 0.852110 -0.164487
O1    O     O_R   0.500000 0.319640 0.618810 -0.584633
O2    O     O_R   0.500010 0.319680 0.381230 -0.536842
O3    O     O_R   0.348990 0.499960 0.599490 -0.600761
O4    O     O_R   0.349000 0.500000 0.361910 -0.606272
O5    O     O_R   0.499990 0.680320 0.618770 -0.518331
O6    O     O_R   0.500000 0.680360 0.381190 -0.592750
O7    O     O_R   0.651000 0.500000 0.638090 -0.587126
O8    O     O_R   0.651010 0.500040 0.400510 -0.580421
O9    O     O_3   0.614417 0.733644 0.869973 -0.543217
C29   C     C_3   0.687924 0.830905 0.865789 0.080443
H15   H     H_    0.739953 0.839888 0.963865 0.128948
H16   H     H_    0.646467 0.919196 0.857490 0.165372
C30   C     C_3   0.749873 0.818580 0.737982 -0.810418
H17   H     H_    0.697595 0.810813 0.640379 0.247422
H18   H     H_    0.800400 0.901281 0.731281 0.206817
H19   H     H_    0.798973 0.736138 0.745857 0.230746
O10   O     O_3   0.976166 0.558466 0.188770 -0.589206
C31   C     C_3   0.020906 0.662780 0.128338 0.074346
H20   H     H_    0.087249 0.635006 0.070543 0.142654
H21   H     H_    0.046574 0.734996 0.208521 0.133939
C32   C     C_3   0.941895 0.719899 0.024214 -0.823870
H22   H     H_    0.875576 0.749329 0.080457 0.237328
H23   H     H_    0.975957 0.801499 0.975247 0.205690
H24   H     H_    0.915916 0.651663 0.940818 0.258510
N3    N     N_3   0.020439 0.439724 0.822506 -0.587692
H25   H     H_    0.070950 0.512680 0.853509 0.210737
H26   H     H_    0.062581 0.359090 0.815647 0.212327
O11   O     O_3   0.464112 0.116227 0.239286 -0.556285
C33   C     C_3   0.355929 0.126320 0.213353 0.091743
H27   H     H_    0.329930 0.210864 0.265633 0.151310
H28   H     H_    0.312568 0.045222 0.250871 0.120148
C34   C     C_3   0.327576 0.135558 0.056380 -0.830202
H29   H     H_    0.344554 0.047314 0.004067 0.251154
H30   H     H_    0.244148 0.154023 0.035870 0.199348
H31   H     H_    0.372198 0.211354 0.012158 0.251368

loop_
_geom_bond_atom_site_label_1
_geom_bond_atom_site_label_2
_ccdc_geom_bond_type
O9    C29   S    
C16   C21   S    
C1    C8    S    
Cu2   N1    S    
C19   C20   S    
C26   O10   S    
C12   O3    A    
C19   N2    A    
C7    C8    A    
Cu1   O3    S    
C25   C28   A    
Cu2   O8    S    
C26   C27   A    
Cu1   O1    S    
Cu2   O2    S    
C17   N1    A    
C5    C6    A    
C4    C24   A    
C34   H30   S    
C29   H15   S    
C21   H8    S    
C8    C9    A    
C23   C24   S    
C9    C10   A    
C15   H4    S    
C7    C15   S    
Cu2   O4    S    
C30   H17   S    
C13   C14   S    
C2    C6    A    
C20   O9    S    
C18   N2    A    
C23   O7    A    
C6    N3    S    
C30   H18   S    
O11   C33   S    
C32   H22   S    
C31   C32   S    
N3    H26   S    
C34   H29   S    
C1    O1    A    
C32   H23   S    
C31   H21   S    
C33   H27   S    
Cu1   Cu2   S    
C27   H11   S    
C21   H9    S    
C17   C18   A    
C33   H28   S    
C9    O11   S    
C3    C4    A    
C23   O8    A    
C22   O6    A    
Cu1   O5    S    
Cu2   O6    S    
C30   H19   S    
C10   H13   S    
C3    C26   A    
C14   H2    S    
C16   N1    A    
C12   O4    A    
C1    O2    A    
C25   C27   A    
Cu1   N2    S    
C11   C22   S    
C29   C30   S    
C12   C25   S    
C32   H24   S    
C31   H20   S    
C2    C3    A    
N3    H25   S    
C20   H7    S    
C11   C13   A    
C34   H31   S    
C5    C24   A    
Cu1   O7    S    
C16   C19   A    
C28   H12   S    
C29   H16   S    
C14   H14   S    
C33   C34   S    
C4    H1    S    
C10   C11   A    
O10   C31   S    
C7    C13   A    
C20   C21   S    
C5    H10   S    
C14   C15   S    
C2    C28   A    
C17   H5    S    
C18   H6    S    
C15   H3    S    
C22   O5    A    
