data_mof_unit_pretest_1138.cif
_audit_creation_date              2012-12-11T14:19:23-0500
_audit_creation_method            fapswitch 2.2
_symmetry_space_group_name_H-M    P1
_symmetry_Int_Tables_number       1
_space_group_crystal_system       triclinic
_cell_length_a                    19.522152
_cell_length_b                    7.240607
_cell_length_c                    17.661441
_cell_angle_alpha                 89.918518
_cell_angle_beta                  107.693282
_cell_angle_gamma                 89.820925
_cell_volume                      2378.37420998

loop_
_atom_site_label
_atom_site_type_symbol
_atom_type_description
_atom_site_fract_x
_atom_site_fract_y
_atom_site_fract_z
_atom_type_partial_charge
O1    O     O_R   0.414820 0.494320 0.416790 -0.528579
O2    O     O_R   0.585180 0.994320 0.583210 -0.531822
O3    O     O_R   0.560270 0.819500 0.430140 -0.539771
O4    O     O_R   0.439730 0.319500 0.569860 -0.536574
C1    C     C_R   0.580939 0.655274 0.414446 0.704354
C2    C     C_R   0.418784 0.155546 0.585217 0.724933
O5    O     O_R   0.413840 0.823740 0.407440 -0.543883
O6    O     O_R   0.586160 0.323740 0.592560 -0.543267
O7    O     O_R   0.437710 0.998590 0.560350 -0.541923
O8    O     O_R   0.562290 0.498590 0.439650 -0.545677
C3    C     C_R   0.388682 0.655457 0.384388 0.722207
C4    C     C_R   0.613190 0.155042 0.613232 0.725609
O9    O     O_3   0.508000 0.662290 0.550200 -0.377322
O10   O     O_3   0.492000 0.162290 0.449800 -0.382723
V1    V     V_3+5 0.498520 0.935380 0.490690 1.456429
V2    V     V_3+5 0.501480 0.435380 0.509310 1.461942
C5    C     C_2   0.788466 0.261741 0.782411 -0.193624
C6    C     C_2   0.214611 0.762755 0.213373 -0.197219
C7    C     C_2   0.813950 0.110705 0.827764 0.235034
C8    C     C_2   0.175407 0.608205 0.188039 0.223690
H1    H     H_    0.821735 0.384551 0.790965 0.134450
H2    H     H_    0.197994 0.890880 0.180854 0.145532
C9    C     C_2   0.715844 0.278631 0.722773 -0.076184
C10   C     C_2   0.277444 0.776691 0.286624 -0.076387
C11   C     C_2   0.683775 0.139470 0.674781 -0.240500
C12   C     C_2   0.326787 0.641870 0.311781 -0.243402
H3    H     H_    0.690654 0.414154 0.714936 0.158892
H4    H     H_    0.284751 0.906958 0.318454 0.159797
H5    H     H_    0.711278 0.008080 0.678153 0.184540
H6    H     H_    0.322960 0.516009 0.277702 0.186596
C13   C     C_R   0.323913 0.993760 0.628939 -0.158948
C14   C     C_R   0.674961 0.492002 0.369310 -0.165061
C15   C     C_R   0.368988 0.147323 0.634094 -0.103997
C16   C     C_R   0.629884 0.646214 0.364567 -0.102759
C17   C     C_R   0.365196 0.294026 0.684743 -0.146222
C18   C     C_R   0.632563 0.792271 0.313005 -0.153257
C19   C     C_R   0.317384 0.287772 0.730093 0.150473
C20   C     C_R   0.679630 0.785308 0.266753 0.150840
C21   C     C_R   0.271685 0.133891 0.724046 0.029352
C22   C     C_R   0.725836 0.631623 0.272996 0.030963
C23   C     C_R   0.274670 0.985853 0.672890 0.014796
C24   C     C_R   0.723581 0.483549 0.324589 0.014844
C25   C     C_R   0.314110 0.433983 0.780954 -0.137665
C26   C     C_R   0.681801 0.930787 0.214938 -0.140226
C27   C     C_R   0.265905 0.428749 0.825399 -0.164067
C28   C     C_R   0.729509 0.925165 0.169851 -0.153267
C29   C     C_R   0.220037 0.277195 0.819860 0.110702
C30   C     C_R   0.776375 0.774644 0.176173 0.107031
C31   C     C_R   0.222591 0.129239 0.768810 0.004575
C32   C     C_R   0.774947 0.627563 0.228260 0.004459
C33   C     C_R   0.176065 0.977294 0.762256 -0.076935
C34   C     C_R   0.823090 0.477837 0.236415 -0.073428
C35   C     C_R   0.180352 0.829956 0.711987 -0.213592
C36   C     C_R   0.818609 0.328786 0.285840 -0.217801
C37   C     C_R   0.228048 0.834346 0.666858 0.365741
C38   C     C_R   0.770368 0.331596 0.330338 0.366544
C39   C     C_R   0.172556 0.270584 0.865529 -0.267233
C40   C     C_R   0.823851 0.768057 0.130414 -0.251146
C41   C     C_R   0.126278 0.119468 0.860526 -0.157208
C42   C     C_R   0.872421 0.620242 0.138044 -0.168840
C43   C     C_R   0.125643 0.976039 0.805588 0.396947
C44   C     C_R   0.875350 0.481068 0.195554 0.405990
H7    H     H_    0.326778 0.882020 0.589388 0.184998
H8    H     H_    0.672775 0.380489 0.409348 0.183473
H9    H     H_    0.399792 0.412991 0.689263 0.131150
H10   H     H_    0.597721 0.911328 0.308539 0.127641
H11   H     H_    0.348621 0.553220 0.786025 0.126245
H12   H     H_    0.646791 0.049715 0.209589 0.124185
H13   H     H_    0.264418 0.543746 0.864086 0.126834
H14   H     H_    0.730092 0.039470 0.130377 0.132781
H15   H     H_    0.172603 0.382516 0.906266 0.155020
H16   H     H_    0.822599 0.877993 0.088256 0.166613
H17   H     H_    0.146339 0.709988 0.707041 0.188210
H18   H     H_    0.853178 0.209185 0.290713 0.189379
O11   O     O_R   0.937810 0.773680 0.060480 -0.538733
O12   O     O_R   0.062190 0.273680 0.939520 -0.544130
O13   O     O_R   0.086190 0.439740 0.092580 -0.506821
O14   O     O_R   0.913810 0.939740 0.907420 -0.519793
C45   C     C_R   0.111990 0.607457 0.115474 0.642148
C46   C     C_R   0.886309 0.107937 0.887260 0.655274
O15   O     O_R   0.939760 0.444210 0.069890 -0.511950
O16   O     O_R   0.060240 0.944210 0.930110 -0.517309
O17   O     O_R   0.914790 0.269640 0.916760 -0.553933
O18   O     O_R   0.085210 0.769640 0.083240 -0.554978
C47   C     C_R   0.920162 0.612622 0.086261 0.739854
C48   C     C_R   0.079461 0.112360 0.913327 0.709460
O19   O     O_3   0.992050 0.601530 0.949880 -0.378164
O20   O     O_3   0.007950 0.101530 0.050120 -0.365887
V3    V     V_3+5 0.001480 0.328340 0.009300 1.520692
V4    V     V_3+5 0.998520 0.828340 0.990700 1.496208
O21   O     O_3   0.076670 0.832839 0.795812 -0.566327
C49   C     C_3   0.021014 0.852955 0.722662 0.050253
H19   H     H_    0.012253 0.715873 0.693119 0.149062
H20   H     H_    0.033517 0.951263 0.679847 0.122248
C50   C     C_3   0.951362 0.913126 0.738035 -0.305602
H21   H     H_    0.937214 0.810751 0.777706 0.226066
H22   H     H_    0.959378 0.050014 0.767671 0.162840
C51   C     C_3   0.889407 0.927436 0.660834 -0.766765
H23   H     H_    0.901745 0.031409 0.620574 0.249429
H24   H     H_    0.839779 0.971003 0.674199 0.237316
H25   H     H_    0.879578 0.791465 0.630467 0.238986
O22   O     O_3   0.930184 0.350643 0.211758 -0.566017
C52   C     C_3   0.981929 0.388407 0.286238 0.072573
H26   H     H_    0.018979 0.267859 0.301337 0.172446
H27   H     H_    0.957516 0.401182 0.335266 0.123234
C53   C     C_3   0.026305 0.561803 0.283625 -0.366680
H28   H     H_    0.048906 0.550087 0.233504 0.218694
H29   H     H_    0.991470 0.686645 0.274008 0.179352
C54   C     C_3   0.087252 0.586491 0.361052 -0.644853
H30   H     H_    0.065056 0.607118 0.411372 0.229735
H31   H     H_    0.119516 0.709547 0.356267 0.240637
H32   H     H_    0.123106 0.463524 0.373323 0.269736
Cl1   Cl    Cl    0.225710 0.648151 0.601795 -0.691660
Cl2   Cl    Cl    0.772431 0.143252 0.394473 -0.696666
Cl3   Cl    Cl    0.759625 0.915255 0.827864 -0.676653
Cl4   Cl    Cl    0.191888 0.400238 0.244134 -0.696604

loop_
_geom_bond_atom_site_label_1
_geom_bond_atom_site_label_2
_ccdc_geom_bond_type
O4    V2    S    
C50   H21   S    
O1    C3    A    
O2    C4    A    
C2    O7    A    
C50   C51   S    
C21   C23   A    
O14   V4    S    
O5    C3    A    
O13   V3    S    
C5    C9    S    
C6    C10   S    
C17   C19   A    
C10   C12   D    
C54   H31   S    
C45   O18   A    
C18   H10   S    
C39   C41   A    
C53   H28   S    
C17   H9    S    
C40   C42   A    
C42   C44   A    
C27   C29   A    
C23   C37   A    
O11   V4    S    
C24   C38   A    
C36   H18   S    
O11   C47   A    
C26   C28   A    
C31   C33   A    
C33   C43   A    
C32   C34   A    
C13   C15   A    
C9    H3    S    
C16   C18   A    
O19   V4    S    
O12   V3    S    
O15   V3    S    
C30   C32   A    
O6    V2    S    
C7    C46   S    
O18   V4    S    
C46   O17   A    
C34   C36   A    
C28   C30   A    
C35   C37   A    
C11   H5    S    
O17   V3    S    
C36   C38   A    
C41   C43   A    
C27   H13   S    
C13   H7    S    
O13   C45   A    
C14   H8    S    
C29   C31   A    
C54   H32   S    
O21   C49   S    
C8    Cl4   S    
C5    C7    D    
O5    V1    S    
C37   Cl1   S    
C3    C12   S    
O16   C48   A    
C49   C50   S    
C5    H1    S    
C33   C35   A    
C14   C16   A    
C19   C25   A    
C20   C26   A    
C29   C39   A    
C7    Cl3   S    
O6    C4    A    
C1    C16   S    
C49   H20   S    
O14   C46   A    
C52   H27   S    
O1    V2    S    
C39   H15   S    
O2    V1    S    
C25   C27   A    
O4    C2    A    
C21   C31   A    
C12   H6    S    
C51   H24   S    
C26   H12   S    
O12   C48   A    
O3    V1    S    
C38   Cl2   S    
C13   C23   A    
C8    C45   S    
C6    H2    S    
C35   H17   S    
C10   H4    S    
O3    C1    A    
C42   C47   S    
C50   H22   S    
C30   C40   A    
C51   H25   S    
O16   V4    S    
C2    C15   S    
C4    C11   S    
C18   C20   A    
O7    V1    S    
C41   C48   S    
C1    O8    A    
C19   C21   A    
O8    V2    S    
C54   H30   S    
C20   C22   A    
C40   H16   S    
C53   H29   S    
C22   C32   A    
C22   C24   A    
C49   H19   S    
C15   C17   A    
C52   C53   S    
C6    C8    D    
C9    C11   D    
O22   C52   S    
C28   H14   S    
O20   V3    S    
C25   H11   S    
C51   H23   S    
O9    V2    S    
C52   H26   S    
C14   C24   A    
O10   V1    S    
C34   C44   A    
O15   C47   A    
C43   O21   S    
C44   O22   S    
C53   C54   S    
