data_mof_unit_pretest_897.cif
_audit_creation_date              2012-12-11T15:06:53-0500
_audit_creation_method            fapswitch 2.2
_symmetry_space_group_name_H-M    P1
_symmetry_Int_Tables_number       1
_space_group_crystal_system       triclinic
_cell_length_a                    19.735721
_cell_length_b                    11.337662
_cell_length_c                    18.683883
_cell_angle_alpha                 89.999928
_cell_angle_beta                  91.550159
_cell_angle_gamma                 89.999711
_cell_volume                      4179.1183653

loop_
_atom_site_label
_atom_site_type_symbol
_atom_type_description
_atom_site_fract_x
_atom_site_fract_y
_atom_site_fract_z
_atom_type_partial_charge
C1    C     C_R   0.760539 0.525433 0.639900 0.539718
C2    C     C_R   0.239461 0.525434 0.360100 0.539720
C3    C     C_R   0.260538 0.025434 0.639900 0.539720
C4    C     C_R   0.739461 0.025433 0.360100 0.539726
C5    C     C_3   0.813269 0.124530 0.452632 -0.261702
C6    C     C_3   0.186728 0.124527 0.547368 -0.261700
C7    C     C_3   0.313270 0.624531 0.452630 -0.261702
C8    C     C_3   0.686728 0.624524 0.547367 -0.261699
C9    C     C_3   0.747526 0.057942 0.436403 0.070849
C10   C     C_3   0.252473 0.057943 0.563597 0.070849
C11   C     C_3   0.247527 0.557944 0.436402 0.070852
C12   C     C_3   0.752474 0.557942 0.563597 0.070847
C13   C     C_3   0.758126 0.087442 0.574957 0.070057
C14   C     C_3   0.241873 0.087443 0.425044 0.070054
C15   C     C_3   0.258127 0.587445 0.574956 0.070056
C16   C     C_3   0.741873 0.587442 0.425043 0.070054
C17   C     C_3   0.753103 0.955997 0.561187 -0.262604
C18   C     C_3   0.246900 0.955999 0.438814 -0.262603
C19   C     C_3   0.253103 0.456000 0.561186 -0.262604
C20   C     C_3   0.746900 0.455998 0.438814 -0.262602
C21   C     C_3   0.821812 0.129169 0.534430 -0.218080
C22   C     C_3   0.178184 0.129161 0.465570 -0.218082
C23   C     C_3   0.321813 0.629168 0.534428 -0.218081
C24   C     C_3   0.678185 0.629160 0.465570 -0.218081
C25   C     C_3   0.005303 0.209231 0.459249 -0.246160
C26   C     C_3   0.994704 0.209231 0.540754 -0.246162
C27   C     C_3   0.505300 0.709231 0.459248 -0.246156
C28   C     C_3   0.494700 0.709231 0.540752 -0.246159
C29   C     C_3   0.074558 0.390719 0.490787 -0.294049
C30   C     C_3   0.925446 0.390712 0.509214 -0.294065
C31   C     C_3   0.574557 0.890715 0.490789 -0.294057
C32   C     C_3   0.425446 0.890720 0.509214 -0.294060
C33   C     C_3   0.958005 0.413446 0.437323 -0.082848
C34   C     C_3   0.041999 0.413446 0.562679 -0.082845
C35   C     C_3   0.458005 0.913446 0.437322 -0.082844
C36   C     C_3   0.541998 0.913442 0.562681 -0.082841
C37   C     C_3   0.023083 0.336877 0.434977 0.033075
C38   C     C_3   0.976922 0.336876 0.565025 0.033074
C39   C     C_3   0.523083 0.836876 0.434977 0.033073
C40   C     C_3   0.476919 0.836877 0.565024 0.033076
C41   C     C_3   0.807847 0.986853 0.040055 -0.227186
C42   C     C_3   0.192158 0.986821 0.959949 -0.227193
C43   C     C_3   0.307841 0.486810 0.040047 -0.227208
C44   C     C_3   0.692148 0.486870 0.959939 -0.227179
C45   C     C_R   0.772610 0.118311 0.650713 0.561625
C46   C     C_R   0.227390 0.118312 0.349287 0.561622
C47   C     C_R   0.272610 0.618313 0.650713 0.561630
C48   C     C_R   0.727390 0.618312 0.349287 0.561616
C49   C     C_3   0.811176 0.996134 0.959093 -0.233363
C50   C     C_3   0.188840 0.996104 0.040914 -0.233380
C51   C     C_3   0.311156 0.496091 0.959082 -0.233403
C52   C     C_3   0.688822 0.496138 0.040903 -0.233356
C53   C     C_3   0.681900 0.994715 0.014666 -0.260797
C54   C     C_3   0.318106 0.994747 0.985320 -0.260803
C55   C     C_3   0.181891 0.494756 0.014684 -0.260787
C56   C     C_3   0.818095 0.494726 0.985319 -0.260773
C57   C     C_3   0.740425 0.170504 0.060067 -0.236131
C58   C     C_3   0.259544 0.170507 0.939925 -0.236135
C59   C     C_3   0.240461 0.670507 0.060072 -0.236143
C60   C     C_3   0.759569 0.670526 0.939937 -0.236164
C61   C     C_3   0.738841 0.036304 0.067158 0.041408
C62   C     C_3   0.261154 0.036308 0.932836 0.041434
C63   C     C_3   0.238848 0.536309 0.067164 0.041441
C64   C     C_3   0.761153 0.536328 0.932835 0.041406
C65   C     C_3   0.759818 0.092715 0.932464 0.052853
C66   C     C_3   0.240179 0.092719 0.067531 0.052843
C67   C     C_3   0.259817 0.592708 0.932466 0.052859
C68   C     C_3   0.740181 0.592715 0.067534 0.052839
C69   C     C_3   0.688056 0.045552 0.938461 -0.237420
C70   C     C_3   0.311953 0.045609 0.061519 -0.237432
C71   C     C_3   0.188045 0.545599 0.938481 -0.237442
C72   C     C_3   0.811944 0.545556 0.061528 -0.237424
C73   C     C_3   0.765918 0.197552 0.984737 -0.256507
C74   C     C_3   0.234045 0.197541 0.015253 -0.256518
C75   C     C_3   0.265952 0.697534 0.984741 -0.256499
C76   C     C_3   0.734074 0.697556 0.015267 -0.256500
C77   C     C_3   0.999021 0.478752 0.040405 -0.260741
C78   C     C_3   0.000972 0.478750 0.959596 -0.260743
C79   C     C_3   0.499036 0.978760 0.040403 -0.260755
C80   C     C_3   0.500985 0.978749 0.959594 -0.260733
C81   C     C_3   0.065230 0.281829 0.030487 -0.166040
C82   C     C_3   0.934763 0.281824 0.969515 -0.166035
C83   C     C_3   0.565226 0.781815 0.030490 -0.165961
C84   C     C_3   0.434760 0.781841 0.969518 -0.166120
C85   C     C_3   0.942214 0.286385 0.052936 -0.103614
C86   C     C_3   0.057778 0.286379 0.947066 -0.103616
C87   C     C_3   0.442207 0.786420 0.052939 -0.103591
C88   C     C_3   0.557772 0.786351 0.947069 -0.103643
C89   C     C_R   0.947950 0.344573 0.637413 0.543743
C90   C     C_R   0.052053 0.344574 0.362588 0.543736
C91   C     C_R   0.447946 0.844574 0.637412 0.543743
C92   C     C_R   0.552054 0.844574 0.362589 0.543724
C93   C     C_3   0.008598 0.350354 0.070006 0.044120
C94   C     C_3   0.991395 0.350349 0.929996 0.044119
C95   C     C_3   0.508600 0.850358 0.070007 0.044171
C96   C     C_3   0.491397 0.850349 0.929997 0.044075
C97   C     C_R   0.770964 0.497952 0.856640 0.537111
C98   C     C_R   0.229032 0.497933 0.143361 0.537113
C99   C     C_R   0.270971 0.997923 0.856642 0.537101
C100  C     C_R   0.729024 0.997908 0.143349 0.537045
C101  C     C_R   0.775109 0.132223 0.858361 0.538164
C102  C     C_R   0.224891 0.132225 0.141637 0.538153
C103  C     C_R   0.275106 0.632216 0.858360 0.538167
C104  C     C_R   0.724892 0.632219 0.141640 0.538144
C105  C     C_R   0.970190 0.353200 0.852972 0.535781
C106  C     C_R   0.029807 0.353200 0.147029 0.535779
C107  C     C_R   0.470190 0.853200 0.852973 0.535745
C108  C     C_R   0.529807 0.853201 0.147030 0.535816
C109  C     C_3   0.690103 0.140204 0.462711 -0.245128
C110  C     C_3   0.309894 0.140207 0.537290 -0.245132
C111  C     C_3   0.190104 0.640207 0.462710 -0.245128
C112  C     C_3   0.809895 0.640206 0.537289 -0.245133
C113  C     C_3   0.690991 0.142492 0.544507 -0.232341
C114  C     C_3   0.309005 0.142500 0.455495 -0.232342
C115  C     C_3   0.190993 0.642497 0.544506 -0.232341
C116  C     C_3   0.809005 0.642499 0.455494 -0.232342
C117  C     C_3   0.751819 0.939194 0.479335 -0.223056
C118  C     C_3   0.248184 0.939195 0.520666 -0.223053
C119  C     C_3   0.251821 0.439196 0.479334 -0.223053
C120  C     C_3   0.748187 0.439194 0.520666 -0.223053
Cr1   Cr    Cr6+3 0.885690 0.492860 0.745310 1.019651
Cr2   Cr    Cr6+3 0.114310 0.492860 0.254690 1.019648
Cr3   Cr    Cr6+3 0.385690 0.992860 0.745310 1.019645
Cr4   Cr    Cr6+3 0.614310 0.992860 0.254690 1.019654
Cr5   Cr    Cr6+3 0.729880 0.332270 0.748190 1.019704
Cr6   Cr    Cr6+3 0.270120 0.332270 0.251810 1.019738
Cr7   Cr    Cr6+3 0.229880 0.832270 0.748190 1.019721
Cr8   Cr    Cr6+3 0.770120 0.832270 0.251810 1.019722
Cr9   Cr    Cr6+3 0.888120 0.178590 0.753010 1.018404
Cr10  Cr    Cr6+3 0.111880 0.178590 0.246990 1.018409
Cr11  Cr    Cr6+3 0.388120 0.678590 0.753010 1.018340
Cr12  Cr    Cr6+3 0.611880 0.678590 0.246990 1.018476
H1    H     H_    0.639100 0.122861 0.440121 0.131322
H2    H     H_    0.360897 0.122860 0.559877 0.131323
H3    H     H_    0.139101 0.622867 0.440120 0.131321
H4    H     H_    0.860899 0.622856 0.559876 0.131323
H5    H     H_    0.863059 0.066093 0.548056 0.132265
H6    H     H_    0.136941 0.066076 0.451946 0.132263
H7    H     H_    0.363059 0.566088 0.548054 0.132263
H8    H     H_    0.636941 0.566078 0.451945 0.132264
H9    H     H_    0.801201 0.899995 0.467218 0.130353
H10   H     H_    0.198805 0.899989 0.532783 0.130354
H11   H     H_    0.301203 0.399999 0.467218 0.130352
H12   H     H_    0.698811 0.399980 0.532786 0.130357
H13   H     H_    0.797603 0.911381 0.586728 0.119401
H14   H     H_    0.202403 0.911378 0.413272 0.119398
H15   H     H_    0.297601 0.411382 0.586729 0.119400
H16   H     H_    0.702401 0.411378 0.413274 0.119400
H17   H     H_    0.043746 0.144939 0.445259 0.126220
H18   H     H_    0.956261 0.144938 0.554743 0.126220
H19   H     H_    0.543744 0.644937 0.445259 0.126218
H20   H     H_    0.456256 0.644939 0.554741 0.126218
H21   H     H_    0.958511 0.178384 0.431166 0.114436
H22   H     H_    0.041496 0.178385 0.568837 0.114438
H23   H     H_    0.458509 0.678384 0.431164 0.114441
H24   H     H_    0.541491 0.678381 0.568836 0.114434
H25   H     H_    0.616163 0.831873 0.502445 0.097640
H26   H     H_    0.383840 0.831884 0.497560 0.097642
H27   H     H_    0.116167 0.331885 0.502443 0.097638
H28   H     H_    0.883849 0.331856 0.497555 0.097647
H29   H     H_    0.972276 0.508718 0.435986 0.155475
H30   H     H_    0.027725 0.508716 0.564019 0.155479
H31   H     H_    0.472277 0.008717 0.435983 0.155480
H32   H     H_    0.527728 0.008714 0.564020 0.155478
H33   H     H_    0.905326 0.472432 0.529623 0.110905
H34   H     H_    0.094667 0.472449 0.470377 0.110903
H35   H     H_    0.405338 0.972447 0.529622 0.110902
H36   H     H_    0.594671 0.972440 0.470380 0.110900
H37   H     H_    0.825228 0.900152 0.059353 0.139341
H38   H     H_    0.174793 0.900108 0.940656 0.139320
H39   H     H_    0.325205 0.400099 0.059343 0.139314
H40   H     H_    0.674771 0.400168 0.940641 0.139358
H41   H     H_    0.699051 0.230011 0.443130 0.109523
H42   H     H_    0.300946 0.230011 0.556874 0.109522
H43   H     H_    0.199054 0.730013 0.443129 0.109521
H44   H     H_    0.800947 0.730010 0.556874 0.109525
H45   H     H_    0.846866 0.042334 0.063875 0.179466
H46   H     H_    0.153122 0.042278 0.936134 0.179481
H47   H     H_    0.346883 0.542258 0.063853 0.179471
H48   H     H_    0.653131 0.542358 0.936121 0.179477
H49   H     H_    0.864644 0.016644 0.946674 0.185555
H50   H     H_    0.135370 0.016580 0.053342 0.185563
H51   H     H_    0.364625 0.516560 0.946651 0.185513
H52   H     H_    0.635355 0.516647 0.053325 0.185603
H53   H     H_    0.798439 0.910462 0.933565 0.123109
H54   H     H_    0.201601 0.910446 0.066443 0.123091
H55   H     H_    0.298392 0.410433 0.933555 0.123093
H56   H     H_    0.701561 0.410462 0.066425 0.123100
H57   H     H_    0.688305 0.902013 0.006779 0.108801
H58   H     H_    0.311705 0.902048 0.993219 0.108811
H59   H     H_    0.188282 0.402055 0.006795 0.108809
H60   H     H_    0.811681 0.402025 0.993198 0.108803
H61   H     H_    0.678092 0.976831 0.897015 0.116069
H62   H     H_    0.321944 0.976923 0.102974 0.116074
H63   H     H_    0.178054 0.476900 0.897035 0.116073
H64   H     H_    0.821910 0.476835 0.102972 0.116060
H65   H     H_    0.688781 0.207686 0.066631 0.137458
H66   H     H_    0.311182 0.207713 0.933360 0.137448
H67   H     H_    0.188826 0.707719 0.066642 0.137450
H68   H     H_    0.811213 0.707706 0.933376 0.137450
H69   H     H_    0.774663 0.210942 0.101625 0.113973
H70   H     H_    0.225299 0.210927 0.898367 0.113963
H71   H     H_    0.274712 0.710925 0.101625 0.113931
H72   H     H_    0.725331 0.710974 0.898382 0.113968
H73   H     H_    0.819121 0.214683 0.993163 0.106851
H74   H     H_    0.180839 0.214630 0.006830 0.106880
H75   H     H_    0.319158 0.714623 0.993157 0.106868
H76   H     H_    0.680869 0.714676 0.006844 0.106870
H77   H     H_    0.740139 0.272069 0.961567 0.120862
H78   H     H_    0.259795 0.272082 0.038419 0.120835
H79   H     H_    0.240198 0.772074 0.961577 0.120833
H80   H     H_    0.759847 0.772076 0.038441 0.120864
H81   H     H_    0.632986 0.016026 0.036453 0.125504
H82   H     H_    0.367018 0.016058 0.963523 0.125520
H83   H     H_    0.132984 0.516088 0.036481 0.125520
H84   H     H_    0.867010 0.516029 0.963530 0.125514
H85   H     H_    0.682034 0.231688 0.564141 0.136870
H86   H     H_    0.317955 0.231698 0.435862 0.136872
H87   H     H_    0.182038 0.731693 0.564140 0.136870
H88   H     H_    0.817956 0.731697 0.435861 0.136872
H89   H     H_    0.650709 0.117995 0.929493 0.138109
H90   H     H_    0.349282 0.118079 0.070460 0.138116
H91   H     H_    0.150714 0.618065 0.929532 0.138114
H92   H     H_    0.849290 0.618000 0.070492 0.138109
H93   H     H_    0.034697 0.545872 0.061518 0.149334
H94   H     H_    0.965293 0.545868 0.938483 0.149336
H95   H     H_    0.534716 0.045872 0.061516 0.149329
H96   H     H_    0.465310 0.045872 0.938481 0.149341
H97   H     H_    0.949781 0.513933 0.057550 0.122624
H98   H     H_    0.050212 0.513931 0.942450 0.122635
H99   H     H_    0.449799 0.013961 0.057546 0.122628
H100  H     H_    0.550228 0.013911 0.942444 0.122632
H101  H     H_    0.611461 0.820274 0.051949 0.057437
H102  H     H_    0.388527 0.820286 0.948044 0.057522
H103  H     H_    0.111464 0.320281 0.051950 0.057480
H104  H     H_    0.888529 0.320275 0.948047 0.057487
H105  H     H_    0.600657 0.836978 0.925650 0.060817
H106  H     H_    0.399344 0.837118 0.074339 0.060779
H107  H     H_    0.100651 0.337038 0.925652 0.060793
H108  H     H_    0.899340 0.337047 0.074344 0.060799
H109  H     H_    0.931025 0.189041 0.951620 0.217037
H110  H     H_    0.068968 0.189048 0.048385 0.217055
H111  H     H_    0.431026 0.689051 0.951635 0.216975
H112  H     H_    0.568968 0.689039 0.048398 0.217121
H113  H     H_    0.646956 0.092208 0.563472 0.158682
H114  H     H_    0.353043 0.092224 0.436527 0.158688
H115  H     H_    0.146957 0.592215 0.563472 0.158688
H116  H     H_    0.853043 0.592222 0.436526 0.158689
H117  H     H_    0.712068 0.878273 0.461399 0.105956
H118  H     H_    0.287938 0.878281 0.538601 0.105955
H119  H     H_    0.212071 0.378271 0.461397 0.105957
H120  H     H_    0.787948 0.378290 0.538598 0.105953
H121  H     H_    0.707896 0.917569 0.584830 0.136388
H122  H     H_    0.292108 0.917575 0.415172 0.136389
H123  H     H_    0.207895 0.417573 0.584828 0.136388
H124  H     H_    0.792107 0.417573 0.415168 0.136387
H125  H     H_    0.857137 0.078399 0.429125 0.123478
H126  H     H_    0.142862 0.078392 0.570876 0.123481
H127  H     H_    0.357138 0.578399 0.429123 0.123480
H128  H     H_    0.642862 0.578389 0.570875 0.123479
H129  H     H_    0.811142 0.214359 0.429704 0.093342
H130  H     H_    0.188852 0.214357 0.570293 0.093341
H131  H     H_    0.311144 0.714360 0.429703 0.093343
H132  H     H_    0.688853 0.714354 0.570293 0.093341
H133  H     H_    0.837470 0.214116 0.556128 0.104352
H134  H     H_    0.162517 0.214103 0.443870 0.104356
H135  H     H_    0.337476 0.714115 0.556126 0.104351
H136  H     H_    0.662520 0.714103 0.443871 0.104353
O1    O     O_R   0.957210 0.449410 0.665480 -0.488851
O2    O     O_R   0.042790 0.449410 0.334520 -0.488844
O3    O     O_R   0.457210 0.949410 0.665480 -0.488847
O4    O     O_R   0.542790 0.949410 0.334520 -0.488847
O5    O     O_R   0.736260 0.212010 0.826560 -0.509792
O6    O     O_R   0.263740 0.212010 0.173440 -0.509788
O7    O     O_R   0.236260 0.712010 0.826560 -0.509791
O8    O     O_R   0.763740 0.712010 0.173440 -0.509801
O9    O     O_R   0.832520 0.095300 0.836000 -0.525628
O10   O     O_R   0.167480 0.095300 0.164000 -0.525622
O11   O     O_R   0.332520 0.595300 0.836000 -0.525633
O12   O     O_R   0.667480 0.595300 0.164000 -0.525613
O13   O     O_R   0.946380 0.253940 0.826940 -0.498973
O14   O     O_R   0.053620 0.253940 0.173060 -0.498968
O15   O     O_R   0.446380 0.753940 0.826940 -0.499048
O16   O     O_R   0.553620 0.753940 0.173060 -0.498881
O17   O     O_3   0.834560 0.334570 0.748840 -0.310968
O18   O     O_3   0.165440 0.334570 0.251160 -0.310985
O19   O     O_3   0.334560 0.834570 0.748840 -0.310970
O20   O     O_3   0.665440 0.834570 0.251160 -0.311001
O21   O     O_R   0.820730 0.541240 0.668250 -0.521873
O22   O     O_R   0.179270 0.541240 0.331750 -0.521876
O23   O     O_R   0.320730 0.041240 0.668250 -0.521874
O24   O     O_R   0.679270 0.041240 0.331750 -0.521871
O25   O     O_R   0.714240 0.455060 0.663710 -0.528024
O26   O     O_R   0.285760 0.455060 0.336290 -0.528015
O27   O     O_R   0.214240 0.955060 0.663710 -0.528020
O28   O     O_R   0.785760 0.955060 0.336290 -0.528014
O29   O     O_R   0.736780 0.204870 0.675910 -0.496079
O30   O     O_R   0.263220 0.204870 0.324090 -0.496077
O31   O     O_R   0.236780 0.704870 0.675910 -0.496075
O32   O     O_R   0.763220 0.704870 0.324090 -0.496080
O33   O     O_R   0.833070 0.087590 0.673490 -0.537130
O34   O     O_R   0.166930 0.087590 0.326510 -0.537130
O35   O     O_R   0.333070 0.587590 0.673490 -0.537132
O36   O     O_R   0.666930 0.587590 0.326510 -0.537129
O37   O     O_R   0.946890 0.246800 0.676300 -0.511700
O38   O     O_R   0.053110 0.246800 0.323700 -0.511697
O39   O     O_R   0.446890 0.746800 0.676300 -0.511705
O40   O     O_R   0.553110 0.746800 0.323700 -0.511686
O41   O     O_R   0.956650 0.457120 0.827980 -0.518127
O42   O     O_R   0.043350 0.457120 0.172020 -0.518129
O43   O     O_R   0.456650 0.957120 0.827980 -0.518111
O44   O     O_R   0.543350 0.957120 0.172020 -0.518154
O45   O     O_R   0.820220 0.548390 0.818890 -0.503395
O46   O     O_R   0.179780 0.548390 0.181110 -0.503403
O47   O     O_R   0.320220 0.048390 0.818890 -0.503393
O48   O     O_R   0.679780 0.048390 0.181110 -0.503367
O49   O     O_R   0.713680 0.462770 0.826210 -0.526438
O50   O     O_R   0.286320 0.462770 0.173790 -0.526403
O51   O     O_R   0.213680 0.962770 0.826210 -0.526416
O52   O     O_R   0.786320 0.962770 0.173790 -0.526390
C121  C     C_2   0.589683 0.890016 0.626408 0.211972
H137  H     H_    0.608892 0.802203 0.637064 0.098552
O53   O     O_2   0.604949 0.969212 0.668115 -0.508228
C122  C     C_2   0.410319 0.890025 0.373594 0.211978
H138  H     H_    0.391109 0.802214 0.362938 0.098558
O54   O     O_2   0.395052 0.969223 0.331889 -0.508227
C123  C     C_2   0.089684 0.390024 0.626407 0.211967
H139  H     H_    0.108894 0.302212 0.637064 0.098555
O55   O     O_2   0.104950 0.469223 0.668113 -0.508227
C124  C     C_2   0.910320 0.390028 0.373594 0.211974
H140  H     H_    0.891108 0.302218 0.362939 0.098555
O56   O     O_2   0.895054 0.469225 0.331888 -0.508225
C125  C     C_2   0.940356 0.168145 0.090009 0.185422
H141  H     H_    0.916855 0.161888 0.141768 0.117517
O57   O     O_2   0.966983 0.080549 0.065119 -0.495740
C126  C     C_2   0.059638 0.168130 0.910003 0.185422
H142  H     H_    0.083143 0.161860 0.858246 0.117512
O58   O     O_2   0.033009 0.080539 0.934899 -0.495749
C127  C     C_2   0.440309 0.668200 0.090027 0.185468
H143  H     H_    0.416717 0.661953 0.141732 0.117453
O59   O     O_2   0.466995 0.580609 0.065211 -0.495670
C128  C     C_2   0.559593 0.668088 0.910015 0.185376
H144  H     H_    0.583010 0.661814 0.858209 0.117578
O60   O     O_2   0.533021 0.580491 0.934978 -0.495838

loop_
_geom_bond_atom_site_label_1
_geom_bond_atom_site_label_2
_ccdc_geom_bond_type
C78   H94   S    
C82   C94   S    
C119  H11   S    
C10   C110  S    
C7    H127  S    
C120  H12   S    
C41   C61   S    
C53   C69   S    
C104  O12   A    
C56   H60   S    
C120  H120  S    
C43   C63   S    
Cr5   O5    S    
C125  H141  S    
C44   C64   S    
C114  H86   S    
C63   C98   S    
C51   H51   S    
C109  H41   S    
C28   C40   S    
C72   H92   S    
C30   C38   S    
Cr8   O28   S    
C79   H95   S    
C42   H38   S    
C75   H75   S    
C122  H138  S    
C56   C72   S    
C105  O13   A    
C21   H5    S    
C8    H132  S    
C18   C118  S    
C81   C86   S    
C108  O16   A    
C83   C88   S    
C87   H106  S    
C48   O36   A    
C5    H129  S    
C90   O2    A    
C41   C49   S    
Cr8   O32   S    
Cr5   O17   S    
Cr2   O46   S    
C124  H140  S    
C109  H1    S    
Cr7   O19   S    
C33   C124  S    
Cr8   O20   S    
C118  H118  S    
C128  H144  S    
C26   C38   S    
Cr10  O38   S    
C14   C114  S    
C41   H37   S    
C83   H112  S    
C60   C76   S    
C35   H31   S    
C55   H59   S    
C81   H110  S    
Cr11  O35   S    
C33   H29   S    
C44   H40   S    
C47   O31   A    
C22   H134  S    
C54   C70   S    
C68   C72   S    
C43   H47   S    
C69   H61   S    
C13   C21   S    
C98   O46   A    
C102  O6    A    
C99   O51   A    
C79   H99   S    
C31   H25   S    
C19   H123  S    
C64   C97   S    
C17   H13   S    
C15   C115  S    
C20   C120  S    
Cr7   O27   S    
C54   H82   S    
C57   H65   S    
C59   C63   S    
C52   H52   S    
Cr7   O7    S    
C126  H142  S    
Cr4   O24   S    
C72   H64   S    
C57   C61   S    
C82   C85   S    
C77   H97   S    
C60   C64   S    
Cr9   O17   S    
C13   C45   S    
C66   C70   S    
C42   H46   S    
C113  H113  S    
C23   H135  S    
C69   H89   S    
C95   C108  S    
C60   H68   S    
C62   C99   S    
C5    C21   S    
C58   H70   S    
C121  H137  S    
C31   C36   S    
C75   H79   S    
C97   O49   A    
C48   O32   A    
C87   C127  S    
C55   C71   S    
C76   H76   S    
Cr6   O26   S    
C91   O39   A    
Cr2   O22   S    
C65   C101  S    
Cr10  O18   S    
C111  H3    S    
Cr11  O15   S    
C67   C103  S    
C18   H122  S    
C37   C90   S    
C41   H45   S    
C78   C94   S    
C55   H83   S    
C66   C74   S    
C25   H17   S    
C57   C73   S    
C105  O41   A    
C85   C93   S    
C60   H72   S    
C83   H101  S    
C107  O43   A    
C87   C95   S    
Cr5   O49   S    
C56   C64   S    
C7    H131  S    
C2    O22   A    
C45   O33   A    
C116  H88   S    
C104  O8    A    
C76   H80   S    
Cr6   O6    S    
C50   H50   S    
C1    C12   S    
Cr9   O37   S    
C35   C122  S    
C80   H100  S    
C2    C11   S    
C110  H42   S    
Cr12  O12   S    
C112  H4    S    
C123  O55   D    
C43   H39   S    
C15   C47   S    
C25   C26   S    
C34   C123  S    
C106  O14   A    
C8    H128  S    
C84   H102  S    
C5    C9    S    
C119  H119  S    
C93   C106  S    
C71   H63   S    
C8    C12   S    
C5    H125  S    
C6    H130  S    
C51   C67   S    
C42   C50   S    
C49   H49   S    
C112  H44   S    
Cr6   O18   S    
Cr3   O47   S    
C110  H2    S    
C61   C100  S    
C67   C75   S    
C50   H54   S    
Cr1   O1    S    
C112  C116  S    
C58   C74   S    
Cr3   O3    S    
C73   H73   S    
Cr4   O4    S    
C53   H81   S    
C54   H58   S    
C30   H33   S    
C34   H30   S    
C68   C76   S    
C13   C17   S    
C98   O50   A    
C85   H108  S    
C14   C22   S    
C99   O47   A    
C3    O27   A    
C20   H16   S    
C7    C23   S    
C8    C24   S    
C40   C91   S    
C56   H84   S    
Cr7   O31   S    
C49   H53   S    
C122  O54   D    
C57   H69   S    
Cr3   O43   S    
C52   H56   S    
C4    C9    S    
C53   H57   S    
C24   H136  S    
C115  H87   S    
C58   C62   S    
C88   C96   S    
C94   C105  S    
C77   H93   S    
C82   H104  S    
C12   C112  S    
C44   H48   S    
C103  O7    A    
C14   C46   S    
C77   C78   S    
C15   C19   S    
Cr9   O33   S    
C124  O56   D    
C101  O9    A    
C92   O4    A    
C128  O60   D    
C108  O44   A    
C6    C22   S    
C14   C18   S    
Cr11  O39   S    
C21   H133  S    
Cr7   O51   S    
C116  H116  S    
Cr8   O52   S    
C103  O11   A    
Cr3   O23   S    
Cr11  O11   S    
C17   C117  S    
C42   C62   S    
C19   C119  S    
Cr10  O34   S    
C9    C109  S    
C88   C128  S    
C2    O26   A    
Cr12  O40   S    
C16   C116  S    
C100  O48   A    
C20   H124  S    
C115  H115  S    
C125  O57   D    
C27   H23   S    
C117  H9    S    
C25   H21   S    
C26   H18   S    
C126  O58   D    
C117  H117  S    
C106  O42   A    
C92   O40   A    
C18   H14   S    
C11   C111  S    
C29   C34   S    
C33   C37   S    
C82   H109  S    
C45   O29   A    
C30   H28   S    
C4    O24   A    
C79   C95   S    
C89   O37   A    
Cr5   O29   S    
C127  H143  S    
C70   H62   S    
C86   H107  S    
Cr1   O17   S    
C80   H96   S    
Cr3   O19   S    
Cr4   O20   S    
Cr12  O16   S    
C96   C107  S    
C89   O1    A    
C39   C92   S    
C73   H77   S    
C27   H19   S    
C107  O15   A    
C68   C104  S    
C6    C10   S    
C1    O25   A    
C78   H98   S    
C54   C62   S    
C22   H6    S    
C6    H126  S    
C123  H139  S    
C43   C51   S    
C114  H114  S    
C65   C69   S    
C77   C93   S    
C70   H90   S    
Cr4   O44   S    
C84   H111  S    
C67   C71   S    
C19   H15   S    
C51   H55   S    
Cr2   O2    S    
C85   C125  S    
C59   H71   S    
C31   H36   S    
Cr12  O36   S    
C32   H35   S    
C29   C37   S    
C36   H32   S    
C46   O30   A    
C29   H34   S    
C9    C117  S    
C66   C102  S    
C35   C39   S    
C84   C87   S    
C3    O23   A    
C11   C119  S    
C16   C48   S    
C29   H27   S    
C7    C11   S    
C38   C89   S    
C17   H121  S    
C49   C65   S    
C74   H78   S    
C111  H43   S    
C23   H7    S    
C91   O3    A    
Cr1   O45   S    
Cr2   O42   S    
C65   C73   S    
C84   C96   S    
C86   C126  S    
Cr4   O48   S    
Cr8   O8    S    
C86   C94   S    
C25   C37   S    
C12   C120  S    
C59   H67   S    
C121  O53   D    
Cr9   O9    S    
C80   C96   S    
C52   C68   S    
C16   C20   S    
C15   C23   S    
C16   C24   S    
C97   O45   A    
C101  O5    A    
C53   C61   S    
C102  O10   A    
C113  H85   S    
C32   H26   S    
C71   H91   S    
C1    O21   A    
C32   C35   S    
C36   C40   S    
C27   C39   S    
Cr6   O50   S    
C55   C63   S    
Cr10  O10   S    
C46   O34   A    
C10   C118  S    
C81   C93   S    
C83   C95   S    
C81   H103  S    
Cr9   O13   S    
C50   C66   S    
C100  O52   A    
Cr1   O41   S    
C127  O59   D    
C28   H20   S    
C26   H22   S    
C24   H8    S    
C59   C75   S    
C74   H74   S    
C110  C114  S    
C58   H66   S    
C30   C33   S    
C34   C38   S    
C47   O35   A    
C4    O28   A    
C118  H10   S    
Cr5   O25   S    
C90   O38   A    
Cr6   O30   S    
C109  C113  S    
Cr1   O21   S    
Cr2   O18   S    
Cr10  O14   S    
C3    C10   S    
Cr11  O19   S    
C44   C52   S    
Cr12  O20   S    
C88   H105  S    
C31   C39   S    
C32   C40   S    
C79   C80   S    
C27   C28   S    
C28   H24   S    
C36   C121  S    
C111  C115  S    
C13   C113  S    
