data_mof_unit_pretest_12.cif
_audit_creation_date              2012-12-11T15:18:02-0500
_audit_creation_method            fapswitch 2.2
_symmetry_space_group_name_H-M    P1
_symmetry_Int_Tables_number       1
_space_group_crystal_system       triclinic
_cell_length_a                    15.665027
_cell_length_b                    15.687425
_cell_length_c                    34.3828
_cell_angle_alpha                 89.980814
_cell_angle_beta                  89.873478
_cell_angle_gamma                 119.496182
_cell_volume                      7354.20210429

loop_
_atom_site_label
_atom_site_type_symbol
_atom_type_description
_atom_site_fract_x
_atom_site_fract_y
_atom_site_fract_z
_atom_type_partial_charge
C1    C     C_R   0.576751 0.442785 0.554133 0.573293
C2    C     C_R   0.509943 0.006634 0.208294 0.334303
C3    C     C_3   0.756665 0.676272 0.609224 0.025865
C4    C     C_3   0.789554 0.782554 0.620151 -0.285478
C5    C     C_3   0.881500 0.826029 0.645264 -0.473376
C6    C     C_3   0.320844 0.078061 0.609698 0.025299
C7    C     C_3   0.211116 0.007898 0.615286 -0.284041
C8    C     C_3   0.162998 0.055247 0.638829 -0.475669
C9    C     C_3   0.366756 0.055204 0.068174 0.020594
C10   C     C_3   0.282525 0.058455 0.047219 -0.264031
C11   C     C_3   0.319537 0.151534 0.022915 -0.472590
C12   C     C_3   0.678980 0.637821 0.066615 0.004997
C13   C     C_R   0.483746 0.491029 0.210342 0.337355
C14   C     C_3   0.747304 0.609960 0.088267 -0.265934
C15   C     C_3   0.803610 0.580984 0.059898 -0.447558
C16   C     C_3   0.958310 0.317563 0.053803 0.011017
C17   C     C_3   0.857745 0.240844 0.069704 -0.276980
C18   C     C_3   0.786038 0.186899 0.036810 -0.460728
C19   C     C_3   0.008629 0.664006 0.556439 0.014636
C20   C     C_3   0.100631 0.749166 0.574287 -0.287312
C21   C     C_3   0.179268 0.803081 0.543424 -0.474844
C22   C     C_3   0.333439 0.343495 0.553704 0.018532
C23   C     C_3   0.241706 0.342418 0.569836 -0.284336
C24   C     C_R   0.919395 0.457799 0.197782 0.334610
C25   C     C_3   0.186362 0.362141 0.537813 -0.472109
C26   C     C_3   0.665121 0.997629 0.551149 0.019685
C27   C     C_3   0.683444 0.913848 0.562728 -0.286242
C28   C     C_3   0.672076 0.848597 0.527974 -0.472841
C29   C     C_3   0.663430 0.892496 0.092447 0.084532
C30   C     C_3   0.775381 0.953708 0.095940 -0.253161
C31   C     C_3   0.820849 0.891940 0.108956 -0.461943
C32   C     C_3   0.229397 0.337846 0.091533 0.081976
C33   C     C_3   0.179644 0.226054 0.095023 -0.252896
C34   C     C_3   0.074018 0.181317 0.109296 -0.462152
C35   C     C_R   0.032102 0.444048 0.849297 -0.186622
C36   C     C_3   0.116240 0.764639 0.104870 0.070322
C37   C     C_3   0.069429 0.830554 0.104858 -0.229983
C38   C     C_3   0.111292 0.908156 0.136728 -0.466207
C39   C     C_3   0.907188 0.639043 0.844640 -0.002750
C40   C     C_3   0.834802 0.565736 0.815199 -0.260029
C41   C     C_3   0.732193 0.551857 0.820691 -0.472250
C42   C     C_3   0.379790 0.276929 0.845632 -0.002089
C43   C     C_3   0.449870 0.277512 0.814304 -0.256135
C44   C     C_3   0.479692 0.200077 0.822352 -0.482020
C45   C     C_3   0.663999 0.013299 0.830890 -0.000828
C46   C     C_R   0.544837 0.599102 0.845839 -0.194132
C47   C     C_3   0.654358 0.077278 0.799423 -0.260557
C48   C     C_3   0.723737 0.185954 0.806936 -0.479397
C49   C     C_3   0.658732 0.941524 0.325718 0.014762
C50   C     C_3   0.691699 0.903531 0.360362 -0.283545
C51   C     C_3   0.673926 0.800382 0.352955 -0.480327
C52   C     C_3   0.276182 0.373878 0.332256 0.011396
C53   C     C_3   0.208780 0.352068 0.367612 -0.283022
C54   C     C_3   0.133815 0.385997 0.360889 -0.472782
C55   C     C_3   0.970644 0.648344 0.311342 0.013743
C56   C     C_3   0.019006 0.723843 0.343846 -0.284837
C57   C     C_R   0.340050 0.826050 0.834788 -0.181109
C58   C     C_3   0.125531 0.797281 0.333975 -0.474116
C59   C     C_R   0.444354 0.028279 0.349314 -0.180831
C60   C     C_R   0.584391 0.552808 0.348659 -0.184971
C61   C     C_R   0.845295 0.342465 0.336254 -0.177565
C62   C     C_R   0.059795 0.453620 0.887951 -0.193479
C63   C     C_R   0.557364 0.134488 0.554445 0.579749
C64   C     C_R   0.539078 0.615085 0.884988 -0.198118
C65   C     C_R   0.330637 0.815303 0.874919 -0.202371
C66   C     C_R   0.453168 0.054237 0.388273 -0.189284
C67   C     C_R   0.604001 0.544660 0.387283 -0.189502
C68   C     C_R   0.834302 0.335244 0.376308 -0.194978
C69   C     C_R   0.057532 0.607332 0.892269 0.220770
C70   C     C_R   0.396810 0.452749 0.891832 0.233142
C71   C     C_R   0.501797 0.857183 0.880148 0.231620
C72   C     C_R   0.616496 0.071937 0.390060 0.236728
C73   C     C_R   0.449351 0.391902 0.392957 0.246193
C74   C     C_R   0.865428 0.422543 0.554365 0.584368
C75   C     C_R   0.837710 0.491940 0.378550 0.241359
C76   C     C_R   0.025411 0.595223 0.853063 0.260801
C77   C     C_R   0.407417 0.433980 0.852154 0.266807
C78   C     C_R   0.513179 0.875937 0.839542 0.264016
C79   C     C_R   0.606826 0.044180 0.350451 0.263142
C80   C     C_R   0.427012 0.403439 0.354055 0.267421
C81   C     C_R   0.854743 0.501906 0.337853 0.267342
C82   C     C_R   0.021200 0.517554 0.830833 0.009993
C83   C     C_R   0.476662 0.510901 0.828523 0.010617
C84   C     C_R   0.430533 0.855507 0.816640 0.012501
C85   C     C_R   0.442662 0.576511 0.054080 0.566796
C86   C     C_R   0.522938 0.029183 0.329522 0.003317
C87   C     C_R   0.498683 0.480626 0.331269 0.003114
C88   C     C_R   0.854585 0.424611 0.316568 0.004745
C89   C     C_R   0.079210 0.537897 0.908978 0.021543
C90   C     C_R   0.461798 0.545433 0.907752 0.023393
C91   C     C_R   0.410460 0.830603 0.898041 0.014823
C92   C     C_R   0.540845 0.081818 0.408318 0.021389
C93   C     C_R   0.540550 0.461604 0.408984 0.023449
C94   C     C_R   0.830140 0.408847 0.397958 0.012674
C95   C     C_R   0.577757 0.442194 0.445435 0.571078
C96   C     C_R   0.133679 0.557141 0.054167 0.570152
C97   C     C_R   0.558242 0.135689 0.445325 0.564867
C98   C     C_R   0.811424 0.393242 0.440314 0.588577
C99   C     C_R   0.442396 0.578320 0.945285 0.573295
C100  C     C_R   0.135380 0.557867 0.945468 0.567178
C101  C     C_R   0.393543 0.811500 0.940294 0.582436
C102  C     C_R   0.928027 0.460264 0.589447 0.000071
C103  C     C_R   0.535436 0.468398 0.588138 0.000611
C104  C     C_R   0.528280 0.062736 0.586975 0.000041
C105  C     C_R   0.463500 0.931378 0.088292 -0.010788
C106  C     C_R   0.465505 0.536942 0.089257 -0.012107
C107  C     C_R   0.423781 0.867142 0.053736 0.581074
C108  C     C_R   0.061443 0.527633 0.086633 -0.016630
C109  C     C_R   0.957698 0.400590 0.609321 0.205494
C110  C     C_R   0.591319 0.558549 0.607306 0.206606
C111  C     C_R   0.434275 0.023978 0.604005 0.197082
C112  C     C_R   0.405993 0.964330 0.107752 0.177174
C113  C     C_R   0.552979 0.595176 0.109866 0.200459
C114  C     C_R   0.019766 0.431932 0.102290 0.200248
C115  C     C_R   0.991142 0.424123 0.647657 -0.178376
C116  C     C_R   0.563668 0.570303 0.644770 -0.174823
C117  C     C_R   0.412557 0.967540 0.637856 -0.181598
C118  C     C_R   0.002811 0.509120 0.709419 0.370870
C119  C     C_R   0.423412 0.989833 0.146794 -0.150176
C120  C     C_R   0.556971 0.578127 0.149257 -0.145312
C121  C     C_R   0.973241 0.411369 0.138244 -0.149925
C122  C     C_R   0.991891 0.503197 0.666765 -0.008388
C123  C     C_R   0.485185 0.492462 0.664134 -0.009901
C124  C     C_R   0.484130 0.954408 0.656855 -0.009933
C125  C     C_R   0.503683 0.992975 0.165847 -0.040561
C126  C     C_R   0.479659 0.497443 0.167716 -0.045960
C127  C     C_R   0.956969 0.480385 0.157546 -0.047895
C128  C     C_R   0.975080 0.570226 0.645498 0.243235
C129  C     C_R   0.478537 0.498829 0.706848 0.369237
C130  C     C_R   0.421024 0.407788 0.643099 0.243028
C131  C     C_R   0.575570 0.985825 0.638496 0.243651
C132  C     C_R   0.573789 0.980650 0.144042 0.223834
C133  C     C_R   0.401142 0.426847 0.145075 0.221446
C134  C     C_R   0.982763 0.570389 0.138894 0.208909
C135  C     C_R   0.948247 0.551097 0.605893 0.204180
C136  C     C_R   0.443673 0.398655 0.604018 0.204269
C137  C     C_R   0.595089 0.035083 0.602253 0.203204
C138  C     C_R   0.553982 0.950744 0.104683 0.244419
C139  C     C_R   0.394524 0.446464 0.105326 0.249160
C140  C     C_R   0.463823 0.916171 0.697241 0.360694
C141  C     C_R   0.036439 0.594673 0.103542 0.230303
C142  C     C_R   0.011153 0.514423 0.788189 0.342177
C143  C     C_R   0.477527 0.503579 0.785754 0.341832
C144  C     C_R   0.438648 0.870325 0.774109 0.344602
C145  C     C_R   0.518589 0.020115 0.286878 0.349515
C146  C     C_R   0.489170 0.483786 0.288924 0.351265
C147  C     C_R   0.870935 0.431062 0.274247 0.351879
C148  C     C_3   0.912111 0.234910 0.610224 0.029666
C149  C     C_3   0.985805 0.202388 0.622116 -0.285304
C150  C     C_3   0.936750 0.108593 0.646211 -0.474691
Cr1   Cr    Cr6+3 0.522350 0.263930 0.500020 1.069682
Cr2   Cr    Cr6+3 0.736070 0.258420 0.500020 1.054741
Cr3   Cr    Cr6+3 0.741580 0.477650 0.500020 1.063165
Cr4   Cr    Cr6+3 0.263930 0.522350 0.000020 1.048645
Cr5   Cr    Cr6+3 0.258420 0.736070 0.000020 1.062520
Cr6   Cr    Cr6+3 0.477650 0.741580 0.000020 1.051940
H1    H     H_    0.073497 0.398062 0.900411 0.161906
H2    H     H_    0.373294 0.006674 0.162361 0.158788
H3    H     H_    0.094551 0.872710 0.165827 0.164205
H4    H     H_    0.077581 0.955863 0.134801 0.132743
H5    H     H_    0.191796 0.954450 0.133524 0.193844
H6    H     H_    0.965257 0.689799 0.646210 0.346410
H7    H     H_    0.303779 0.278134 0.643889 0.345877
H8    H     H_    0.707374 0.001947 0.642177 0.346472
H9    H     H_    0.645072 0.963273 0.185985 0.332547
H10   H     H_    0.307316 0.355592 0.185261 0.330636
H11   H     H_    0.979372 0.646757 0.181899 0.328137
H12   H     H_    0.061313 0.733221 0.897908 0.344796
H13   H     H_    0.621453 0.628669 0.165508 0.166011
H14   H     H_    0.277758 0.326674 0.899235 0.346393
H15   H     H_    0.632086 0.870697 0.885673 0.338012
H16   H     H_    0.748986 0.089623 0.394160 0.343232
H17   H     H_    0.327317 0.267805 0.399947 0.351798
H18   H     H_    0.829846 0.612313 0.382293 0.342415
H19   H     H_    0.903646 0.707938 0.842773 0.161531
H20   H     H_    0.884655 0.610957 0.874910 0.126724
H21   H     H_    0.860224 0.592658 0.785170 0.213472
H22   H     H_    0.831003 0.493595 0.818824 0.153403
H23   H     H_    0.704385 0.524208 0.850418 0.142989
H24   H     H_    0.949055 0.339889 0.151059 0.167316
H25   H     H_    0.681731 0.497956 0.799173 0.165590
H26   H     H_    0.733462 0.622468 0.815999 0.168767
H27   H     H_    0.314682 0.202427 0.846952 0.161320
H28   H     H_    0.415148 0.290690 0.874851 0.125474
H29   H     H_    0.413640 0.263055 0.785425 0.208153
H30   H     H_    0.517001 0.350506 0.813431 0.151307
H31   H     H_    0.518079 0.214256 0.850729 0.145104
H32   H     H_    0.530164 0.202623 0.799091 0.155059
H33   H     H_    0.414146 0.125791 0.822736 0.164658
H34   H     H_    0.741372 0.029201 0.831522 0.158151
H35   H     H_    0.025526 0.381721 0.833228 0.160715
H36   H     H_    0.648884 0.034087 0.860094 0.137061
H37   H     H_    0.671560 0.057677 0.770523 0.212939
H38   H     H_    0.577911 0.064081 0.798928 0.161803
H39   H     H_    0.706447 0.207808 0.835325 0.142660
H40   H     H_    0.715155 0.230142 0.783618 0.164295
H41   H     H_    0.801109 0.201795 0.807039 0.167975
H42   H     H_    0.698662 0.939270 0.299339 0.175970
H43   H     H_    0.579188 0.891769 0.319835 0.124358
H44   H     H_    0.771198 0.952987 0.365646 0.171826
H45   H     H_    0.650276 0.902305 0.386822 0.175103
H46   H     H_    0.600350 0.658721 0.828760 0.167388
H47   H     H_    0.594542 0.749348 0.348233 0.160942
H48   H     H_    0.698410 0.774988 0.378562 0.146574
H49   H     H_    0.715972 0.799582 0.327030 0.161821
H50   H     H_    0.230130 0.337830 0.306361 0.174967
H51   H     H_    0.315583 0.454108 0.325978 0.118178
H52   H     H_    0.169302 0.271981 0.373461 0.175030
H53   H     H_    0.253491 0.390222 0.393556 0.169351
H54   H     H_    0.171615 0.466235 0.355555 0.150603
H55   H     H_    0.086367 0.369404 0.387013 0.159547
H56   H     H_    0.086664 0.347363 0.335549 0.164419
H57   H     H_    0.275965 0.811296 0.817865 0.181064
H58   H     H_    0.976648 0.687875 0.283759 0.172566
H59   H     H_    0.012005 0.608109 0.306642 0.120162
H60   H     H_    0.977768 0.763909 0.348328 0.173015
H61   H     H_    0.017293 0.685849 0.371347 0.180382
H62   H     H_    0.168538 0.758925 0.329919 0.155744
H63   H     H_    0.158614 0.850648 0.358110 0.151532
H64   H     H_    0.129499 0.837972 0.306965 0.162065
H65   H     H_    0.378259 0.014084 0.334013 0.157347
H66   H     H_    0.639697 0.612644 0.331624 0.162834
H67   H     H_    0.846556 0.283199 0.320560 0.180585
H68   H     H_    0.859288 0.179371 0.589897 0.212619
H69   H     H_    0.590975 0.686216 0.896559 0.171530
H70   H     H_    0.868468 0.235666 0.635819 0.139150
H71   H     H_    0.017973 0.189099 0.595537 0.160317
H72   H     H_    0.046343 0.260674 0.639261 0.178451
H73   H     H_    0.901075 0.118723 0.672405 0.174190
H74   H     H_    0.992807 0.089578 0.655863 0.152182
H75   H     H_    0.881050 0.047327 0.628505 0.141513
H76   H     H_    0.813226 0.676638 0.589755 0.212593
H77   H     H_    0.753812 0.632966 0.635482 0.141164
H78   H     H_    0.805717 0.826817 0.593181 0.158494
H79   H     H_    0.730273 0.787058 0.636144 0.185268
H80   H     H_    0.259644 0.792606 0.887932 0.181225
H81   H     H_    0.868625 0.781616 0.672039 0.181525
H82   H     H_    0.900904 0.901504 0.653941 0.150709
H83   H     H_    0.943760 0.828959 0.628643 0.142360
H84   H     H_    0.329689 0.144054 0.594495 0.218804
H85   H     H_    0.357627 0.103139 0.638515 0.132576
H86   H     H_    0.175053 0.986309 0.586384 0.171147
H87   H     H_    0.199729 0.940774 0.630591 0.167804
H88   H     H_    0.199689 0.080530 0.667444 0.177242
H89   H     H_    0.084840 0.000837 0.643928 0.146475
H90   H     H_    0.166793 0.118302 0.622657 0.143727
H91   H     H_    0.393514 0.059435 0.401931 0.158959
H92   H     H_    0.420894 0.059731 0.045983 0.142437
H93   H     H_    0.402659 0.119497 0.088049 0.145543
H94   H     H_    0.244834 0.993632 0.027874 0.183271
H95   H     H_    0.228613 0.055680 0.068961 0.156455
H96   H     H_    0.355603 0.217273 0.041838 0.188515
H97   H     H_    0.256828 0.151467 0.007900 0.153500
H98   H     H_    0.372670 0.155228 0.000608 0.152977
H99   H     H_    0.723250 0.697549 0.045703 0.143689
H100  H     H_    0.625352 0.575010 0.048690 0.132895
H101  H     H_    0.800255 0.672858 0.106111 0.189931
H102  H     H_    0.673000 0.600178 0.399234 0.162372
H103  H     H_    0.703511 0.547156 0.108020 0.179392
H104  H     H_    0.751998 0.520401 0.040805 0.134057
H105  H     H_    0.847555 0.555420 0.076362 0.199334
H106  H     H_    0.853853 0.644776 0.041705 0.164752
H107  H     H_    0.984577 0.280985 0.033148 0.148647
H108  H     H_    0.951470 0.374291 0.036637 0.131047
H109  H     H_    0.866018 0.186957 0.087970 0.177017
H110  H     H_    0.826693 0.277259 0.088058 0.169204
H111  H     H_    0.778189 0.239707 0.017687 0.138758
H112  H     H_    0.712997 0.135263 0.049188 0.202235
H113  H     H_    0.827916 0.270751 0.390390 0.184026
H114  H     H_    0.812126 0.144704 0.019282 0.152137
H115  H     H_    0.980573 0.693670 0.533501 0.156340
H116  H     H_    0.027489 0.612261 0.541556 0.127537
H117  H     H_    0.080788 0.800978 0.588149 0.159062
H118  H     H_    0.130957 0.721088 0.596951 0.179684
H119  H     H_    0.198187 0.751733 0.528518 0.145919
H120  H     H_    0.246405 0.861277 0.557406 0.206341
H121  H     H_    0.153161 0.837279 0.521628 0.151677
H122  H     H_    0.310847 0.288103 0.530159 0.166568
H123  H     H_    0.383243 0.415737 0.539915 0.122748
H124  H     H_    0.012919 0.378162 0.663313 0.148540
H125  H     H_    0.192755 0.269804 0.583127 0.158430
H126  H     H_    0.262933 0.399354 0.592683 0.182700
H127  H     H_    0.234227 0.434580 0.524128 0.147737
H128  H     H_    0.121322 0.362493 0.550414 0.207996
H129  H     H_    0.161202 0.304160 0.515239 0.150572
H130  H     H_    0.718024 0.041196 0.527844 0.167694
H131  H     H_    0.590450 0.967664 0.538213 0.119251
H132  H     H_    0.758957 0.945090 0.574452 0.153006
H133  H     H_    0.630550 0.868570 0.585741 0.192022
H134  H     H_    0.596689 0.816111 0.515982 0.152386
H135  H     H_    0.607124 0.639043 0.659688 0.156867
H136  H     H_    0.685205 0.788267 0.537261 0.194497
H137  H     H_    0.725957 0.891657 0.504888 0.146706
H138  H     H_    0.646309 0.836796 0.069466 0.198951
H139  H     H_    0.630326 0.851472 0.119925 0.163909
H140  H     H_    0.807147 0.987667 0.067319 0.147374
H141  H     H_    0.795520 0.013853 0.117147 0.219952
H142  H     H_    0.785309 0.851145 0.136055 0.182953
H143  H     H_    0.900186 0.940077 0.114640 0.128250
H144  H     H_    0.813248 0.839786 0.085726 0.163808
H145  H     H_    0.192416 0.355576 0.067967 0.198052
H146  H     H_    0.339894 0.937024 0.650301 0.153535
H147  H     H_    0.219053 0.370751 0.118655 0.156104
H148  H     H_    0.179866 0.194536 0.066129 0.144863
H149  H     H_    0.221152 0.205188 0.115387 0.224226
H150  H     H_    0.070140 0.216754 0.136701 0.181299
H151  H     H_    0.044474 0.102067 0.114917 0.127215
H152  H     H_    0.027985 0.189345 0.086764 0.174170
H153  H     H_    0.188056 0.803356 0.090031 0.211629
H154  H     H_    0.132096 0.751266 0.135209 0.132571
H155  H     H_    0.081416 0.866951 0.076052 0.143143
H156  H     H_    0.989001 0.785460 0.109482 0.209848
N1    N     N_R   0.978884 0.428647 0.768910 -0.255012
N2    N     N_R   0.426969 0.961450 0.230098 -0.239239
N3    N     N_R   0.525549 0.574563 0.231661 -0.238811
N4    N     N_R   0.946288 0.404674 0.220715 -0.233532
N5    N     N_R   0.035734 0.595114 0.728663 -0.135302
N6    N     N_R   0.398906 0.432966 0.727292 -0.136365
N7    N     N_R   0.523118 0.889109 0.715815 -0.140162
N8    N     N_R   0.597207 0.060624 0.226445 -0.190103
N9    N     N_R   0.445579 0.403649 0.229059 -0.188422
N10   N     N_R   0.864272 0.494079 0.213481 -0.200080
N11   N     N_R   0.040378 0.597775 0.767309 -0.161639
N12   N     N_R   0.556605 0.569705 0.765273 -0.251051
N13   N     N_R   0.398127 0.435719 0.765989 -0.158699
N14   N     N_R   0.510595 0.866361 0.753465 -0.155185
N15   N     N_R   0.601397 0.067234 0.265041 -0.162525
N16   N     N_R   0.448192 0.400093 0.267682 -0.159272
N17   N     N_R   0.840669 0.481152 0.251087 -0.162800
N18   N     N_R   0.377347 0.894164 0.755298 -0.238226
N19   N     N_R   0.431126 0.968308 0.268653 -0.247870
N20   N     N_R   0.528645 0.571078 0.270194 -0.250876
N21   N     N_R   0.922476 0.391460 0.258173 -0.241394
N22   N     N_R   0.974475 0.426029 0.730330 -0.250701
N23   N     N_R   0.557277 0.567088 0.726721 -0.243857
N24   N     N_R   0.389809 0.916721 0.717695 -0.245380
O1    O     O_R   0.498680 0.159540 0.541860 -0.462436
O2    O     O_R   0.358060 0.532760 0.040030 -0.480562
O3    O     O_R   0.174700 0.641940 0.040030 -0.471610
O4    O     O_R   0.467240 0.825300 0.040030 -0.480875
O5    O     O_R   0.498590 0.161190 0.456930 -0.517204
O6    O     O_R   0.838810 0.337400 0.456930 -0.522086
O7    O     O_R   0.662600 0.501410 0.456930 -0.509985
O8    O     O_R   0.161190 0.498590 0.956930 -0.530953
O9    O     O_R   0.337400 0.838810 0.956930 -0.519149
O10   O     O_R   0.501410 0.662600 0.956930 -0.529510
O11   O     O_R   0.532680 0.359580 0.461300 -0.450869
O12   O     O_R   0.840460 0.339140 0.541860 -0.465547
O13   O     O_R   0.640420 0.173100 0.461300 -0.468154
O14   O     O_R   0.826900 0.467320 0.461300 -0.446730
O15   O     O_R   0.359580 0.532680 0.961300 -0.441042
O16   O     O_R   0.173100 0.640420 0.961300 -0.459662
O17   O     O_R   0.467320 0.826900 0.961300 -0.429186
O18   O     O_3   0.666667 0.333333 0.499990 -0.306022
O19   O     O_3   0.333333 0.666667 0.999990 -0.304547
O20   O     O_3   0.960739 0.324705 0.589659 -0.564989
O21   O     O_3   0.668015 0.636376 0.587890 -0.560514
O22   O     O_3   0.361391 0.034252 0.585323 -0.562206
O23   O     O_R   0.660860 0.501320 0.541860 -0.471335
O24   O     O_3   0.329010 0.967056 0.089519 -0.590000
O25   O     O_3   0.633532 0.673230 0.092769 -0.588956
O26   O     O_3   0.028499 0.358127 0.084009 -0.585619
O27   O     O_3   0.933588 0.617854 0.584700 -0.601692
O28   O     O_3   0.379605 0.316849 0.582907 -0.600781
O29   O     O_3   0.682374 0.060965 0.583170 -0.603474
O30   O     O_3   0.625970 0.953662 0.080048 -0.574168
O31   O     O_3   0.328437 0.374672 0.080305 -0.566146
O32   O     O_3   0.056413 0.678952 0.083194 -0.559339
O33   O     O_3   0.982127 0.651380 0.664286 -0.683437
O34   O     O_R   0.159540 0.498680 0.041860 -0.503608
O35   O     O_3   0.338802 0.334767 0.661466 -0.683271
O36   O     O_3   0.644691 0.969191 0.656689 -0.687867
O37   O     O_3   0.660485 0.996125 0.160303 -0.701765
O38   O     O_3   0.330413 0.339862 0.160893 -0.695923
O39   O     O_3   0.957751 0.636027 0.154431 -0.700218
O40   O     O_3   0.070876 0.686735 0.914286 -0.706575
O41   O     O_3   0.323115 0.383651 0.915133 -0.697465
O42   O     O_3   0.578709 0.865758 0.902653 -0.692207
O43   O     O_3   0.699349 0.092082 0.411222 -0.717027
O44   O     O_3   0.385149 0.312975 0.415490 -0.700659
O45   O     O_R   0.339140 0.840460 0.041860 -0.488573
O46   O     O_3   0.829767 0.562393 0.399898 -0.692692
O47   O     O_3   0.004752 0.662665 0.835707 -0.566687
O48   O     O_3   0.346122 0.343179 0.835900 -0.560893
O49   O     O_3   0.604485 0.912422 0.822055 -0.563426
O50   O     O_3   0.683243 0.040314 0.331691 -0.576858
O51   O     O_3   0.339295 0.334070 0.337623 -0.568112
O52   O     O_3   0.869348 0.586380 0.319126 -0.569891
O53   O     O_R   0.501320 0.660860 0.041860 -0.504065
O54   O     O_R   0.532760 0.358060 0.540030 -0.476800
O55   O     O_R   0.641940 0.174700 0.540030 -0.482995
O56   O     O_R   0.825300 0.467240 0.540030 -0.476358

loop_
_geom_bond_atom_site_label_1
_geom_bond_atom_site_label_2
_ccdc_geom_bond_type
C86   C145  S    
C12   H100  S    
H16   O43   S    
C19   C20   S    
C73   C93   A    
C55   H58   S    
C143  N12   A    
C38   H3    S    
C72   C79   A    
C14   H103  S    
C59   C66   A    
C144  N18   A    
C8    H88   S    
Cr3   O18   S    
H9    O37   S    
Cr1   O5    S    
C105  C138  A    
C52   O51   S    
Cr6   O17   S    
C92   C97   S    
C24   C127  S    
C2    N2    A    
C6    H85   S    
C13   N3    A    
C49   O50   S    
C69   O40   S    
C34   H152  S    
C96   C108  S    
C9    O24   S    
Cr2   O18   S    
C121  H24   S    
C131  O36   S    
C45   C47   S    
C5    H82   S    
C37   H155  S    
C148  H70   S    
C28   H136  S    
C128  C135  A    
C33   H148  S    
C63   C104  S    
C19   H115  S    
Cr1   O54   S    
N10   N17   A    
C85   O53   A    
Cr4   O15   S    
C43   C44   S    
C37   C38   S    
C21   H121  S    
C113  C120  A    
N7    N14   A    
C62   H1    S    
C109  O20   S    
C8    H89   S    
C133  C139  A    
C12   O25   S    
C41   H26   S    
C21   H120  S    
C110  C116  A    
C51   H48   S    
C23   H126  S    
C65   C91   A    
C111  O22   S    
C4    H78   S    
C47   H37   S    
C4    C5    S    
C14   H101  S    
Cr4   O34   S    
C121  C127  A    
C6    C7    S    
C110  O21   S    
C150  H74   S    
C16   O26   S    
C26   H131  S    
C80   O51   S    
C3    H77   S    
C134  C141  A    
C83   C143  S    
H15   O42   S    
C106  C139  A    
C30   C31   S    
Cr6   O19   S    
C2    N8    A    
C129  N23   A    
C132  O37   S    
C34   H150  S    
C67   H102  S    
H8    O36   S    
C29   O30   S    
C20   C21   S    
N6    N13   A    
Cr3   O56   S    
C22   C23   S    
C102  C109  A    
C115  H124  S    
C95   O11   A    
C116  C123  A    
C65   H80   S    
C127  C134  A    
C133  O38   S    
C24   N4    A    
C53   H52   S    
C7    C8    S    
C53   C54   S    
C45   O49   S    
C105  C107  S    
C97   O5    A    
C77   O48   S    
C103  C110  A    
C36   C37   S    
C61   C88   A    
Cr5   O9    S    
C72   O43   S    
C55   H59   S    
C120  H13   S    
C84   C144  S    
C1    O54   A    
C11   H98   S    
C69   C76   A    
C118  C122  S    
C9    H92   S    
C102  C135  A    
C71   O42   S    
H12   O40   S    
C58   H64   S    
C60   C67   A    
C117  H146  S    
C25   H127  S    
C9    C10   S    
C1    C103  S    
C142  N11   A    
C129  N6    A    
C54   H56   S    
C27   H132  S    
C93   C95   S    
C70   C77   A    
C113  O25   S    
C16   H107  S    
C70   O41   S    
C91   C101  S    
C22   O28   S    
Cr2   O55   S    
C64   H69   S    
C35   C82   A    
N2    N19   A    
N4    N21   A    
C100  O16   A    
C106  C113  A    
C81   C88   A    
C39   H19   S    
C76   C82   A    
C39   C40   S    
C66   C92   A    
C42   H28   S    
C68   C94   A    
C10   H94   S    
C103  C136  A    
C29   C30   S    
C15   H105  S    
Cr4   O19   S    
C17   C18   S    
C13   N9    A    
Cr5   O16   S    
C63   O1    A    
Cr2   O12   S    
C78   O49   S    
C57   H57   S    
C48   H39   S    
C139  O31   S    
C3    C4    S    
C98   O14   A    
C90   C99   S    
C18   H114  S    
C144  N14   A    
C52   C53   S    
C49   H43   S    
C142  N1    A    
C40   C41   S    
C35   H35   S    
C36   H153  S    
N1    N22   A    
C41   H23   S    
C22   H122  S    
C69   C89   A    
C130  O35   S    
C11   H96   S    
C148  O20   S    
C42   O48   S    
C111  C117  A    
C38   H4    S    
C68   H113  S    
C123  C130  A    
C58   H62   S    
C149  H71   S    
C56   C58   S    
C145  N15   A    
C25   H129  S    
C135  O27   S    
C56   H60   S    
C17   H110  S    
C39   O47   S    
C10   C11   S    
C44   H31   S    
C40   H21   S    
C2    C125  S    
C45   H34   S    
C54   H54   S    
C49   C50   S    
C67   C93   A    
C149  H72   S    
C14   C15   S    
C81   O52   S    
C15   H104  S    
C85   C106  S    
C63   O55   A    
C55   C56   S    
C52   H51   S    
C112  O24   S    
C64   C90   A    
C82   C142  S    
C73   O44   S    
C29   H139  S    
Cr5   O3    S    
C98   O6    A    
C30   H140  S    
Cr2   O13   S    
Cr5   O45   S    
C26   C27   S    
C5    H81   S    
H11   O39   S    
C87   C146  S    
C117  C124  A    
C138  O30   S    
C18   H111  S    
C72   C92   A    
C120  C126  A    
C94   C98   S    
C132  C138  A    
Cr6   O53   S    
H10   O38   S    
C62   C89   A    
C101  O9    A    
Cr1   O18   S    
C104  C137  A    
C108  C114  A    
C145  N19   A    
C20   H117  S    
C108  C141  A    
Cr6   O10   S    
C107  O4    A    
C114  C121  A    
Cr2   O6    S    
C38   H5    S    
H14   O41   S    
C16   C17   S    
C74   C102  S    
C75   O46   S    
C8    H90   S    
C12   H99   S    
H6    O33   S    
C41   H25   S    
C21   H119  S    
C56   H61   S    
C118  N22   A    
C51   H47   S    
C66   H91   S    
C23   H125  S    
C89   C100  S    
Cr3   O7    S    
C101  O17   A    
C147  N21   A    
C76   O47   S    
C150  H75   S    
C29   H138  S    
C131  C137  A    
C31   H142  S    
C44   H33   S    
C32   H145  S    
C45   H36   S    
C51   H49   S    
C50   C51   S    
C57   C84   A    
Cr3   O14   S    
Cr4   O2    S    
C27   H133  S    
C34   H151  S    
C13   C126  S    
C119  C125  A    
H17   O44   S    
C146  N16   A    
C42   C43   S    
C74   O56   A    
C50   H45   S    
C74   O12   A    
C140  N7    A    
C5    H83   S    
C37   H156  S    
C124  C140  S    
C57   C65   A    
C60   H66   S    
C112  C119  A    
C19   H116  S    
N9    N16   A    
C1    O23   A    
C32   C33   S    
C3    O21   S    
C149  C150  S    
C96   O34   A    
C7    H86   S    
C11   H97   S    
C88   C147  S    
C122  C128  A    
C46   C83   A    
C46   H46   S    
C71   C91   A    
C53   H53   S    
C43   H29   S    
C100  O8    A    
C146  N20   A    
Cr1   O1    S    
C79   O50   S    
H18   O46   S    
C79   C86   A    
C75   C94   A    
C18   H112  S    
C47   H38   S    
C61   C68   A    
C128  O33   S    
C26   O29   S    
C150  H73   S    
C52   H50   S    
C140  N24   A    
C97   O13   A    
C26   H130  S    
C80   C87   A    
C32   H147  S    
C99   O15   A    
C77   C83   A    
Cr4   O8    S    
C10   H95   S    
N8    N15   A    
C17   H109  S    
C59   H65   S    
C126  C133  A    
C99   O10   A    
N12   N23   A    
C114  O26   S    
C115  C122  A    
N18   N24   A    
C123  C129  S    
Cr5   O19   S    
C70   C90   A    
C28   H137  S    
C60   C87   A    
C141  O32   S    
C20   H118  S    
C49   H42   S    
C6    O22   S    
C118  N5    A    
C36   H154  S    
C148  C149  S    
C55   O52   S    
C31   H144  S    
C50   H44   S    
C22   H123  S    
C75   C81   A    
C43   H30   S    
C6    H84   S    
C124  C131  A    
C46   C64   A    
C19   O27   S    
C9    H93   S    
C61   H67   S    
H7    O35   S    
C32   O31   S    
C58   H63   S    
N5    N11   A    
C47   C48   S    
C33   C34   S    
C96   O3    A    
C25   H128  S    
C31   H143  S    
C44   H32   S    
C40   H22   S    
C136  O28   S    
C54   H55   S    
C12   C14   S    
C143  N13   A    
C4    H79   S    
Cr6   O4    S    
C33   H149  S    
C147  N17   A    
Cr3   O23   S    
C105  C112  A    
C130  C136  A    
C39   H20   S    
C3    H76   S    
C36   O32   S    
C104  C111  A    
C30   H141  S    
C42   H27   S    
C95   O7    A    
C116  H135  S    
C24   N10   A    
C48   H41   S    
C85   O2    A    
C148  H68   S    
C59   C86   A    
C28   H134  S    
C15   H106  S    
C137  O29   S    
C125  C132  A    
C134  O39   S    
C119  H2    S    
C73   C80   A    
C35   C62   A    
C23   C25   S    
Cr1   O11   S    
C109  C115  A    
C16   H108  S    
C78   C84   A    
C107  O45   A    
C7    H87   S    
C27   C28   S    
N3    N20   A    
C71   C78   A    
C48   H40   S    
