data_mof_unit_pretest_1799.cif
_audit_creation_date              2012-12-10T19:48:51-0500
_audit_creation_method            fapswitch 2.2
_symmetry_space_group_name_H-M    P1
_symmetry_Int_Tables_number       1
_space_group_crystal_system       triclinic
_cell_length_a                    26.052062
_cell_length_b                    26.048869
_cell_length_c                    22.234271
_cell_angle_alpha                 90.000254
_cell_angle_beta                  54.143274
_cell_angle_gamma                 90.000053
_cell_volume                      12229.2117739

loop_
_atom_site_label
_atom_site_type_symbol
_atom_type_description
_atom_site_fract_x
_atom_site_fract_y
_atom_site_fract_z
_atom_type_partial_charge
C1    C     C_R   0.849454 0.750042 0.301125 0.819657
C2    C     C_R   0.849454 0.249958 0.301125 0.819655
C3    C     C_R   0.349455 0.250043 0.301125 0.819650
C4    C     C_R   0.349453 0.749958 0.301125 0.819663
C5    C     C_R   0.449796 0.715105 0.546484 -0.216632
C6    C     C_R   0.449797 0.284897 0.546481 -0.216627
C7    C     C_R   0.949799 0.215101 0.546477 -0.216628
C8    C     C_R   0.949798 0.784898 0.546480 -0.216630
C9    C     C_R   0.445295 0.749439 0.500554 -0.084206
C10   C     C_R   0.445295 0.250561 0.500555 -0.084196
C11   C     C_R   0.945296 0.249438 0.500553 -0.084192
C12   C     C_R   0.945296 0.750562 0.500553 -0.084212
C13   C     C_R   0.495950 0.782407 0.456328 0.132883
C14   C     C_R   0.495948 0.217591 0.456332 0.132885
C15   C     C_R   0.995948 0.282410 0.456332 0.132889
C16   C     C_R   0.995950 0.717593 0.456328 0.132879
C17   C     C_3   0.520053 0.824564 0.400752 -0.474218
C18   C     C_3   0.520049 0.175431 0.400759 -0.474206
C19   C     C_3   0.020047 0.324572 0.400764 -0.474216
C20   C     C_3   0.020050 0.675433 0.400757 -0.474208
C21   C     C_3   0.579191 0.824582 0.400764 -0.472344
C22   C     C_3   0.579187 0.175413 0.400772 -0.472346
C23   C     C_3   0.079185 0.324589 0.400776 -0.472353
C24   C     C_3   0.079188 0.675414 0.400769 -0.472332
C25   C     C_3   0.466140 0.748604 0.957334 -0.355261
C26   C     C_3   0.466163 0.252138 0.957334 -0.355153
C27   C     C_3   0.966157 0.248179 0.957333 -0.355160
C28   C     C_3   0.966153 0.751766 0.957332 -0.355142
C29   C     C_3   0.549176 0.801091 0.956218 -0.212789
C30   C     C_3   0.548486 0.198544 0.956219 -0.212753
C31   C     C_3   0.048792 0.301297 0.956216 -0.212788
C32   C     C_3   0.048837 0.698730 0.956218 -0.212773
C33   C     C_3   0.507286 0.800521 0.043484 0.000933
C34   C     C_3   0.506651 0.199118 0.043483 0.000937
C35   C     C_3   0.006942 0.300719 0.043484 0.000946
C36   C     C_3   0.006980 0.699309 0.043485 0.000961
C37   C     C_1   0.389092 0.750134 0.221843 -0.149188
C38   C     C_1   0.389091 0.249865 0.221843 -0.149129
C39   C     C_1   0.889092 0.250134 0.221844 -0.149158
C40   C     C_1   0.889092 0.749867 0.221843 -0.149138
C41   C     C_3   0.537170 0.751090 0.926692 0.108122
C42   C     C_3   0.537154 0.248901 0.926692 0.108066
C43   C     C_3   0.037166 0.251091 0.926692 0.108078
C44   C     C_3   0.037164 0.748908 0.926691 0.108081
C45   C     C_R   0.650597 0.750013 0.698886 0.825876
C46   C     C_R   0.650597 0.249986 0.698886 0.825963
C47   C     C_R   0.150598 0.250013 0.698886 0.825929
C48   C     C_R   0.150597 0.749987 0.698886 0.825914
C49   C     C_3   0.423422 0.749119 0.043173 -0.383047
C50   C     C_3   0.423437 0.251564 0.043173 -0.383070
C51   C     C_3   0.923433 0.248744 0.043172 -0.383045
C52   C     C_3   0.923428 0.751212 0.043172 -0.383040
C53   C     C_3   0.463977 0.751618 0.073575 0.240029
C54   C     C_3   0.463957 0.248371 0.073574 0.239938
C55   C     C_3   0.963969 0.251624 0.073575 0.239953
C56   C     C_3   0.963966 0.748381 0.073575 0.239925
C57   C     C_3   0.507542 0.703593 0.044167 -0.497866
C58   C     C_3   0.508123 0.296029 0.044164 -0.497880
C59   C     C_3   0.007862 0.203797 0.044168 -0.497845
C60   C     C_3   0.007817 0.796231 0.044166 -0.497834
C61   C     C_3   0.553052 0.704301 0.957690 -0.169913
C62   C     C_3   0.553660 0.295266 0.957690 -0.169910
C63   C     C_3   0.053399 0.204541 0.957693 -0.169939
C64   C     C_3   0.053352 0.795490 0.957691 -0.169936
C65   C     C_1   0.422716 0.750693 0.155120 -0.074995
C66   C     C_1   0.422709 0.249302 0.155120 -0.074986
C67   C     C_1   0.922713 0.250695 0.155120 -0.074986
C68   C     C_1   0.922711 0.749309 0.155119 -0.075033
C69   C     C_1   0.577681 0.750516 0.844914 -0.075375
C70   C     C_1   0.577672 0.249477 0.844913 -0.075362
C71   C     C_1   0.077680 0.250515 0.844914 -0.075375
C72   C     C_1   0.077678 0.749483 0.844913 -0.075398
C73   C     C_1   0.610913 0.750181 0.778184 -0.085248
C74   C     C_1   0.610909 0.249815 0.778184 -0.085264
C75   C     C_1   0.110914 0.250181 0.778184 -0.085260
C76   C     C_1   0.110912 0.749818 0.778183 -0.085269
C77   C     C_R   0.739342 0.974101 0.456429 0.131512
C78   C     C_R   0.739341 0.025899 0.456429 0.131507
C79   C     C_R   0.239339 0.474101 0.456432 0.131514
C80   C     C_R   0.239338 0.525899 0.456432 0.131504
C81   C     C_R   0.750239 0.945556 0.500617 -0.084200
C82   C     C_R   0.750238 0.054444 0.500617 -0.084207
C83   C     C_R   0.250238 0.445556 0.500617 -0.084205
C84   C     C_R   0.250238 0.554444 0.500617 -0.084205
C85   C     C_R   0.761631 0.973007 0.546535 -0.215507
C86   C     C_R   0.761630 0.026993 0.546535 -0.215458
C87   C     C_R   0.261634 0.473007 0.546531 -0.215481
C88   C     C_R   0.261634 0.526993 0.546531 -0.215478
C89   C     C_R   0.749955 0.610028 0.500061 0.810686
C90   C     C_R   0.749955 0.389972 0.500061 0.810678
C91   C     C_R   0.249955 0.110029 0.500060 0.810678
C92   C     C_R   0.249955 0.889972 0.500061 0.810684
C93   C     C_3   0.724935 0.029574 0.400885 -0.470645
C94   C     C_3   0.724936 0.970425 0.400884 -0.470643
C95   C     C_3   0.224923 0.529574 0.400895 -0.470639
C96   C     C_3   0.224924 0.470425 0.400895 -0.470648
C97   C     C_R   0.804024 0.525904 0.454804 0.132773
C98   C     C_R   0.804025 0.474096 0.454804 0.132779
C99   C     C_R   0.304024 0.025904 0.454802 0.132770
C100  C     C_R   0.304024 0.974096 0.454802 0.132782
C101  C     C_R   0.749234 0.554459 0.500748 -0.084793
C102  C     C_R   0.749234 0.445541 0.500748 -0.084799
C103  C     C_R   0.249234 0.054460 0.500748 -0.084797
C104  C     C_R   0.249234 0.945540 0.500748 -0.084799
C105  C     C_R   0.692259 0.526996 0.548596 -0.215599
C106  C     C_R   0.692259 0.473004 0.548596 -0.215624
C107  C     C_R   0.192260 0.026996 0.548597 -0.215611
C108  C     C_R   0.192260 0.973004 0.548597 -0.215611
C109  C     C_3   0.873484 0.470423 0.396268 -0.473685
C110  C     C_3   0.873483 0.529577 0.396269 -0.473683
C111  C     C_3   0.373483 0.970423 0.396265 -0.473680
C112  C     C_3   0.373483 0.029576 0.396265 -0.473689
C113  C     C_R   0.750006 0.890007 0.500079 0.808892
C114  C     C_R   0.750005 0.109993 0.500079 0.808913
C115  C     C_R   0.250005 0.390007 0.500080 0.808908
C116  C     C_R   0.250005 0.609993 0.500079 0.808900
C117  C     C_R   0.889987 0.750050 0.500053 0.809738
C118  C     C_R   0.889987 0.249950 0.500053 0.809755
C119  C     C_R   0.389987 0.250050 0.500053 0.809752
C120  C     C_R   0.389987 0.749950 0.500053 0.809740
C121  C     C_R   0.609994 0.749998 0.500080 0.808066
C122  C     C_R   0.609994 0.250002 0.500080 0.808090
C123  C     C_R   0.109994 0.249998 0.500080 0.808079
C124  C     C_R   0.109994 0.750002 0.500079 0.808076
C125  C     C_R   0.547744 0.782423 0.456339 0.132264
C126  C     C_R   0.547742 0.217575 0.456344 0.132266
C127  C     C_R   0.047742 0.282425 0.456344 0.132271
C128  C     C_R   0.047744 0.717577 0.456340 0.132256
C129  C     C_R   0.554186 0.749469 0.500575 -0.083955
C130  C     C_R   0.554186 0.250531 0.500576 -0.083943
C131  C     C_R   0.054187 0.249469 0.500575 -0.083946
C132  C     C_R   0.054187 0.750532 0.500574 -0.083953
C133  C     C_R   0.503778 0.715120 0.546494 -0.218002
C134  C     C_R   0.503779 0.284882 0.546492 -0.217999
C135  C     C_R   0.003781 0.215116 0.546488 -0.217997
C136  C     C_R   0.003780 0.784883 0.546490 -0.218005
H1    H     H_    0.505821 0.688355 0.582310 0.181648
H2    H     H_    0.505824 0.311649 0.582305 0.181628
H3    H     H_    0.005826 0.188348 0.582300 0.181631
H4    H     H_    0.005825 0.811650 0.582304 0.181646
H5    H     H_    0.540702 0.796536 0.059198 0.138286
H6    H     H_    0.540145 0.202608 0.059148 0.138346
H7    H     H_    0.040410 0.296999 0.059157 0.138324
H8    H     H_    0.040440 0.703067 0.059166 0.138321
H9    H     H_    0.601946 0.710181 0.941691 0.136532
H10   H     H_    0.602455 0.288820 0.941734 0.136557
H11   H     H_    0.102233 0.210744 0.941728 0.136552
H12   H     H_    0.102194 0.789327 0.941723 0.136539
H13   H     H_    0.477801 0.668284 0.065025 0.212458
H14   H     H_    0.478822 0.331576 0.064979 0.212485
H15   H     H_    0.978356 0.168358 0.064994 0.212483
H16   H     H_    0.978281 0.831654 0.064995 0.212465
H17   H     H_    0.456355 0.713580 0.937196 0.213596
H18   H     H_    0.456842 0.287450 0.937248 0.213665
H19   H     H_    0.956634 0.212983 0.937237 0.213632
H20   H     H_    0.956596 0.786937 0.937226 0.213639
H21   H     H_    0.393973 0.713665 0.063807 0.192437
H22   H     H_    0.394390 0.287231 0.063856 0.192319
H23   H     H_    0.894191 0.213179 0.063848 0.192325
H24   H     H_    0.894163 0.786765 0.063839 0.192338
H25   H     H_    0.536027 0.702760 0.066752 0.162714
H26   H     H_    0.536586 0.296386 0.066786 0.162737
H27   H     H_    0.036325 0.203218 0.066787 0.162733
H28   H     H_    0.036282 0.796844 0.066783 0.162726
H29   H     H_    0.770514 0.953059 0.582330 0.183910
H30   H     H_    0.770513 0.046942 0.582330 0.183924
H31   H     H_    0.270521 0.453059 0.582324 0.183919
H32   H     H_    0.270521 0.546942 0.582324 0.183919
H33   H     H_    0.411953 0.688331 0.582294 0.182480
H34   H     H_    0.411956 0.311673 0.582289 0.182469
H35   H     H_    0.911958 0.188324 0.582283 0.182456
H36   H     H_    0.911956 0.811674 0.582288 0.182496
H37   H     H_    0.677545 0.046634 0.424755 0.204804
H38   H     H_    0.677547 0.953363 0.424753 0.204802
H39   H     H_    0.177533 0.546635 0.424771 0.204801
H40   H     H_    0.177534 0.453364 0.424770 0.204800
H41   H     H_    0.764693 0.046645 0.347641 0.212525
H42   H     H_    0.764695 0.953355 0.347640 0.212525
H43   H     H_    0.264679 0.546645 0.347649 0.212529
H44   H     H_    0.264680 0.453355 0.347648 0.212525
H45   H     H_    0.647832 0.546941 0.585889 0.182711
H46   H     H_    0.647832 0.453060 0.585889 0.182707
H47   H     H_    0.147833 0.046941 0.585891 0.182710
H48   H     H_    0.147833 0.953060 0.585891 0.182712
H49   H     H_    0.899093 0.453350 0.417526 0.206516
H50   H     H_    0.899093 0.546650 0.417526 0.206516
H51   H     H_    0.399094 0.953350 0.417521 0.206515
H52   H     H_    0.399093 0.046650 0.417521 0.206517
H53   H     H_    0.884625 0.453367 0.344029 0.208227
H54   H     H_    0.884625 0.546633 0.344029 0.208228
H55   H     H_    0.384623 0.953366 0.344026 0.208223
H56   H     H_    0.384622 0.046633 0.344026 0.208234
H57   H     H_    0.529605 0.811398 0.347515 0.209425
H58   H     H_    0.529602 0.188596 0.347521 0.209440
H59   H     H_    0.029601 0.311410 0.347524 0.209432
H60   H     H_    0.029604 0.688596 0.347519 0.209435
H61   H     H_    0.491065 0.860029 0.424589 0.205687
H62   H     H_    0.491059 0.139967 0.424599 0.205685
H63   H     H_    0.991056 0.360035 0.424607 0.205688
H64   H     H_    0.991060 0.639969 0.424598 0.205683
H65   H     H_    0.622879 0.811425 0.347533 0.210376
H66   H     H_    0.622876 0.188567 0.347540 0.210380
H67   H     H_    0.122874 0.311437 0.347543 0.210374
H68   H     H_    0.122877 0.688568 0.347538 0.210386
H69   H     H_    0.584316 0.860059 0.424606 0.205381
H70   H     H_    0.584310 0.139937 0.424617 0.205382
H71   H     H_    0.084307 0.360064 0.424625 0.205382
H72   H     H_    0.084311 0.639939 0.424616 0.205378
H73   H     H_    0.389800 0.781805 0.063644 0.170914
H74   H     H_    0.389453 0.219145 0.063592 0.171085
H75   H     H_    0.889624 0.281292 0.063600 0.171053
H76   H     H_    0.889639 0.718649 0.063608 0.171021
H77   H     H_    0.453243 0.780978 0.936205 0.209512
H78   H     H_    0.452841 0.220112 0.936154 0.209487
H79   H     H_    0.953022 0.280347 0.936157 0.209501
H80   H     H_    0.953049 0.719569 0.936164 0.209483
H81   H     H_    0.599439 0.799495 0.936975 0.117901
H82   H     H_    0.598781 0.199572 0.936926 0.117935
H83   H     H_    0.099078 0.300027 0.936930 0.117921
H84   H     H_    0.099120 0.700042 0.936938 0.117909
O1    O     O_3   0.750020 0.750020 0.500000 -0.483519
O2    O     O_3   0.750020 0.249980 0.500000 -0.483511
O3    O     O_3   0.250020 0.250020 0.500000 -0.483515
O4    O     O_3   0.250020 0.749980 0.500000 -0.483514
O5    O     O_R   0.698170 0.634220 0.542990 -0.645358
O6    O     O_R   0.698170 0.365780 0.542990 -0.645377
O7    O     O_R   0.198170 0.134220 0.542990 -0.645370
O8    O     O_R   0.198170 0.865780 0.542990 -0.645367
O9    O     O_R   0.741140 0.865830 0.457020 -0.643922
O10   O     O_R   0.741140 0.134170 0.457020 -0.643924
O11   O     O_R   0.241140 0.365830 0.457020 -0.643923
O12   O     O_R   0.241140 0.634170 0.457020 -0.643924
O13   O     O_R   0.862350 0.719680 0.336040 -0.644340
O14   O     O_R   0.862350 0.280320 0.336040 -0.644344
O15   O     O_R   0.362350 0.219680 0.336040 -0.644324
O16   O     O_R   0.362350 0.780320 0.336040 -0.644359
O17   O     O_R   0.698420 0.780360 0.663960 -0.628363
O18   O     O_R   0.698420 0.219640 0.663960 -0.628375
O19   O     O_R   0.198420 0.280360 0.663960 -0.628375
O20   O     O_R   0.198420 0.719640 0.663960 -0.628371
O21   O     O_R   0.801620 0.780400 0.336040 -0.637151
O22   O     O_R   0.801620 0.219600 0.336040 -0.637152
O23   O     O_R   0.301620 0.280400 0.336040 -0.637158
O24   O     O_R   0.301620 0.719600 0.336040 -0.637141
O25   O     O_R   0.637700 0.719640 0.663960 -0.634875
O26   O     O_R   0.637700 0.280360 0.663960 -0.634949
O27   O     O_R   0.137700 0.219640 0.663960 -0.634915
O28   O     O_R   0.137700 0.780360 0.663960 -0.634909
O29   O     O_R   0.801870 0.634220 0.457010 -0.644246
O30   O     O_R   0.801870 0.365780 0.457010 -0.644240
O31   O     O_R   0.301870 0.134220 0.457010 -0.644247
O32   O     O_R   0.301870 0.865780 0.457010 -0.644239
O33   O     O_R   0.758890 0.865820 0.542980 -0.645254
O34   O     O_R   0.758890 0.134180 0.542980 -0.645243
O35   O     O_R   0.258890 0.365820 0.542980 -0.645248
O36   O     O_R   0.258890 0.634180 0.542980 -0.645247
O37   O     O_R   0.887320 0.719660 0.457000 -0.643971
O38   O     O_R   0.887320 0.280340 0.457000 -0.643968
O39   O     O_R   0.387320 0.219660 0.457000 -0.643966
O40   O     O_R   0.387320 0.780340 0.457000 -0.643972
O41   O     O_R   0.655700 0.780400 0.457020 -0.643825
O42   O     O_R   0.655700 0.219600 0.457020 -0.643824
O43   O     O_R   0.155700 0.280400 0.457020 -0.643825
O44   O     O_R   0.155700 0.719600 0.457020 -0.643823
O45   O     O_R   0.844340 0.780370 0.542980 -0.645587
O46   O     O_R   0.844340 0.219630 0.542980 -0.645608
O47   O     O_R   0.344340 0.280370 0.542980 -0.645601
O48   O     O_R   0.344340 0.719630 0.542980 -0.645597
O49   O     O_R   0.612730 0.719670 0.543000 -0.647081
O50   O     O_R   0.612730 0.280330 0.543000 -0.647084
O51   O     O_R   0.112730 0.219670 0.543000 -0.647082
O52   O     O_R   0.112730 0.780330 0.543000 -0.647081
Zn1   Zn    Zn3+2 0.675940 0.706640 0.561420 0.977739
Zn2   Zn    Zn3+2 0.675940 0.293360 0.561420 0.977704
Zn3   Zn    Zn3+2 0.175940 0.206640 0.561420 0.977720
Zn4   Zn    Zn3+2 0.175940 0.793360 0.561420 0.977724
Zn5   Zn    Zn3+2 0.824100 0.706650 0.438580 0.961115
Zn6   Zn    Zn3+2 0.824100 0.293350 0.438580 0.961121
Zn7   Zn    Zn3+2 0.324100 0.206650 0.438580 0.961129
Zn8   Zn    Zn3+2 0.324100 0.793350 0.438580 0.961109
Zn9   Zn    Zn3+2 0.762700 0.793390 0.561410 0.982763
Zn10  Zn    Zn3+2 0.762700 0.206610 0.561410 0.982768
Zn11  Zn    Zn3+2 0.262700 0.293390 0.561410 0.982766
Zn12  Zn    Zn3+2 0.262700 0.706610 0.561410 0.982761
Zn13  Zn    Zn3+2 0.737340 0.793410 0.438590 0.964075
Zn14  Zn    Zn3+2 0.737340 0.206590 0.438590 0.964091
Zn15  Zn    Zn3+2 0.237340 0.293410 0.438590 0.964082
Zn16  Zn    Zn3+2 0.237340 0.706590 0.438590 0.964088
C137  C     C_2   0.544688 0.850368 0.922744 0.981005
O53   O     O_2   0.494219 0.864529 0.936125 -0.637865
O54   O     O_R   0.599242 0.879803 0.876333 -0.801007
H85   H     H_    0.590874 0.911695 0.857173 0.348240
C138  C     C_2   0.543263 0.149557 0.922808 0.981064
O55   O     O_2   0.492576 0.136012 0.936257 -0.637896
O56   O     O_R   0.597382 0.119668 0.876383 -0.801049
H86   H     H_    0.588535 0.088019 0.857276 0.348208
C139  C     C_2   0.043870 0.350410 0.922787 0.981058
O57   O     O_2   0.993272 0.364211 0.936213 -0.637895
O58   O     O_R   0.098169 0.380116 0.876371 -0.801013
H87   H     H_    0.089520 0.411869 0.857244 0.348218
C140  C     C_2   0.043971 0.649594 0.922785 0.981070
O59   O     O_2   0.993388 0.635745 0.936208 -0.637863
O60   O     O_R   0.098304 0.619924 0.876364 -0.801018
H88   H     H_    0.089691 0.588150 0.857238 0.348221
N1    N     N_2   0.471312 0.848091 0.075673 -0.271776
H89   H     H_    0.427493 0.850057 0.085569 0.257802
C141  C     C_3   0.475438 0.873606 0.130534 -0.778206
H90   H     H_    0.450437 0.911056 0.145419 0.244750
H91   H     H_    0.525744 0.881046 0.107746 0.247847
H92   H     H_    0.453121 0.849778 0.181376 0.244644
N2    N     N_2   0.470090 0.151803 0.075729 -0.271765
H93   H     H_    0.426207 0.150335 0.085738 0.257746
C142  C     C_3   0.473988 0.125906 0.130527 -0.778326
H94   H     H_    0.448508 0.088682 0.145471 0.244788
H95   H     H_    0.452030 0.149701 0.181357 0.244518
H96   H     H_    0.524218 0.117977 0.107647 0.247929
N3    N     N_2   0.970646 0.348151 0.075724 -0.271778
H97   H     H_    0.926786 0.349843 0.085697 0.257757
C143  C     C_3   0.974652 0.373866 0.130555 -0.778254
H98   H     H_    0.949398 0.411198 0.145473 0.244763
H99   H     H_    0.024916 0.381561 0.107725 0.247882
H100  H     H_    0.952519 0.350056 0.181394 0.244570
N4    N     N_2   0.970723 0.651863 0.075724 -0.271765
H101  H     H_    0.926848 0.650151 0.085738 0.257732
C144  C     C_3   0.974785 0.626163 0.130520 -0.778304
H102  H     H_    0.949537 0.588829 0.145468 0.244769
H103  H     H_    0.952677 0.649980 0.181350 0.244576
H104  H     H_    0.025065 0.618478 0.107632 0.247924
C145  C     C_2   0.554040 0.652917 0.924917 0.944256
O61   O     O_2   0.505071 0.633564 0.939857 -0.632319
O62   O     O_R   0.611709 0.627367 0.877761 -0.806942
H105  H     H_    0.606786 0.593469 0.859221 0.349417
C146  C     C_2   0.555392 0.346850 0.924877 0.944107
O63   O     O_2   0.506713 0.366770 0.939751 -0.632335
O64   O     O_R   0.613418 0.371923 0.877759 -0.806984
H106  H     H_    0.608986 0.406009 0.859192 0.349358
C147  C     C_2   0.054820 0.153042 0.924888 0.944171
O65   O     O_2   0.006019 0.133362 0.939781 -0.632325
O66   O     O_R   0.112697 0.127766 0.877758 -0.806953
H107  H     H_    0.108060 0.093757 0.859201 0.349382
C148  C     C_2   0.054718 0.846974 0.924889 0.944189
O67   O     O_2   0.005897 0.866604 0.939769 -0.632319
O68   O     O_R   0.112564 0.872297 0.877779 -0.806968
H108  H     H_    0.107891 0.906289 0.859221 0.349388

loop_
_geom_bond_atom_site_label_1
_geom_bond_atom_site_label_2
_ccdc_geom_bond_type
C28   H80   S    
C99   C103  A    
C133  H1    S    
C55   C59   S    
C139  O58   S    
O50   Zn2   S    
C119  O39   A    
O54   H85   S    
C41   C61   S    
C136  H4    S    
C47   O27   A    
C147  O65   D    
O45   Zn9   S    
C146  O63   D    
C44   C64   S    
C111  H55   S    
C90   O30   A    
C26   C50   S    
C124  O44   A    
C29   C33   S    
C100  C104  A    
C94   H42   S    
C95   H39   S    
C31   C139  S    
C3    O15   A    
C11   C15   A    
C87   H31   S    
C12   C16   A    
C1    O13   A    
C88   H32   S    
C70   C74   T    
O1    Zn1   S    
O2    Zn10  S    
C13   C125  A    
C92   O32   A    
C98   C109  S    
C15   C127  A    
C101  C105  A    
C130  C134  A    
O33   Zn9   S    
O41   Zn13  S    
C114  O34   A    
O43   Zn15  S    
C108  H48   S    
C43   C63   S    
N4    H101  S    
C21   H65   S    
O26   Zn2   S    
C25   C41   S    
C122  O42   A    
C109  H49   S    
C98   C102  A    
C28   C44   S    
C17   C21   S    
O2    Zn2   S    
C19   C23   S    
O18   Zn10  S    
C78   C82   A    
O60   H88   S    
C16   C20   S    
C36   N4    S    
C96   H44   S    
O1    Zn13  S    
C129  C133  A    
C34   C54   S    
O27   Zn3   S    
C58   H26   S    
C41   C69   S    
C116  O36   A    
C43   C71   S    
C89   C101  S    
O5    Zn1   S    
C90   O6    A    
C84   C88   A    
C91   C103  S    
C57   C61   S    
C118  O38   A    
C59   C63   S    
C14   C126  A    
C60   C64   S    
C85   H29   S    
C25   H77   S    
C36   H8    S    
O15   Zn7   S    
C79   C96   S    
C48   O28   A    
O4    Zn12  S    
O8    Zn4   S    
C49   C53   S    
C93   H37   S    
O29   Zn5   S    
C44   C72   S    
C51   C55   S    
C127  C131  A    
C92   C104  S    
C12   C117  S    
C125  C129  A    
C57   H25   S    
C100  C111  S    
O2    Zn14  S    
O35   Zn11  S    
C52   H76   S    
C103  C107  A    
O21   Zn13  S    
C58   H14   S    
C30   C138  S    
C52   H24   S    
C143  H99   S    
O37   Zn5   S    
O14   Zn6   S    
C18   H58   S    
C48   C76   S    
O39   Zn7   S    
C111  C112  S    
C97   C98   A    
C85   C86   A    
C50   H22   S    
C5    C133  A    
C31   C43   S    
C32   C36   S    
C60   H16   S    
C142  H95   S    
O3    Zn7   S    
O4    Zn8   S    
C77   C94   S    
C42   C70   S    
C22   H70   S    
C144  H103  S    
C20   H64   S    
C9    C13   A    
C10   C119  S    
N1    C141  S    
C37   C65   T    
C107  C108  A    
C53   C65   S    
C42   C62   S    
C8    C12   A    
C23   H71   S    
C30   H82   S    
O46   Zn10  S    
C84   C116  S    
C64   H12   S    
C145  O62   S    
C49   H21   S    
C63   H11   S    
C27   C51   S    
C45   O17   A    
C148  O68   S    
C30   C34   S    
O44   Zn16  S    
C83   C115  S    
C46   O26   A    
C10   C14   A    
C93   H41   S    
C33   H5    S    
C56   C68   S    
O64   H106  S    
N4    C144  S    
C5    C9    A    
C138  O55   D    
C132  C136  A    
C137  O53   D    
C80   C95   S    
C17   H61   S    
C2    O22   A    
C32   H84   S    
C63   C147  S    
C47   O19   A    
O34   Zn10  S    
C57   H13   S    
O42   Zn14  S    
O24   Zn16  S    
N2    C142  S    
C49   H73   S    
C121  O49   A    
C26   C42   S    
C112  H52   S    
C4    O16   A    
C123  O51   A    
C110  H50   S    
C29   C41   S    
C18   C22   S    
C113  O9    A    
C54   C66   S    
C19   H63   S    
C13   C17   S    
C141  H92   S    
O1    Zn9   S    
C47   C75   S    
C60   H28   S    
O31   Zn7   S    
C59   H27   S    
C50   H74   S    
C62   H10   S    
C24   C128  S    
C9    C120  S    
C105  H45   S    
C11   C118  S    
C4    O24   A    
C117  O45   A    
O23   Zn15  S    
C58   C62   S    
C83   C87   A    
C87   C88   A    
C120  O48   A    
C7    H35   S    
C8    C136  A    
C86   H30   S    
C80   C84   A    
C91   O31   A    
C77   C78   A    
C15   C19   S    
C50   C54   S    
C89   O29   A    
O30   Zn6   S    
C6    H34   S    
C126  C130  A    
C145  O61   D    
N3    C143  S    
C61   H9    S    
O22   Zn14  S    
C48   O20   A    
O1    Zn5   S    
C2    O14   A    
C124  O52   A    
C18   H62   S    
C69   C73   T    
O3    Zn11  S    
C146  O64   S    
O16   Zn8   S    
C27   H79   S    
O11   Zn15  S    
O12   Zn16  S    
C147  O66   S    
C31   H83   S    
C140  O60   S    
C27   H19   S    
O4    Zn4   S    
C113  O33   A    
C22   H66   S    
C25   H17   S    
C141  H90   S    
C45   O25   A    
O56   H86   S    
C53   C57   S    
C82   C86   A    
C24   H72   S    
C56   C60   S    
C7    C11   A    
O58   H87   S    
C114  O10   A    
C36   C56   S    
C112  H56   S    
C32   C140  S    
C62   C146  S    
O66   H107  S    
C77   C81   A    
O52   Zn4   S    
C31   C35   S    
C21   C125  S    
C29   C137  S    
C104  C108  A    
C23   C127  S    
C34   H6    S    
C96   H40   S    
C123  C131  S    
C140  O59   D    
C121  C129  S    
C6    C10   A    
C105  C106  A    
C135  H3    S    
C111  H51   S    
O49   Zn1   S    
C26   H78   S    
O32   Zn8   S    
O62   H105  S    
C120  O40   A    
C109  C110  S    
C79   C83   A    
O68   H108  S    
C142  H94   S    
C110  H54   S    
C144  H102  S    
C25   C49   S    
C122  O50   A    
C143  H98   S    
C27   C43   S    
C4    C37   S    
C92   O8    A    
C138  O56   S    
N1    H89   S    
C40   C68   T    
C81   C113  S    
C5    H33   S    
C30   C42   S    
O6    Zn2   S    
C8    H36   S    
C35   H7    S    
N2    H93   S    
C19   H59   S    
C93   C94   S    
C139  O57   D    
C14   C18   S    
C17   H57   S    
C95   C96   S    
C72   C76   T    
C35   N3    S    
C148  O67   D    
C116  O12   A    
O51   Zn3   S    
C124  C132  S    
C91   O7    A    
O48   Zn12  S    
O25   Zn1   S    
O28   Zn4   S    
C131  C135  A    
O40   Zn8   S    
C22   C126  S    
C78   C93   S    
C64   C148  S    
C45   C73   S    
C21   H69   S    
C106  H46   S    
C1    C40   S    
C121  O41   A    
C118  O46   A    
C2    C39   S    
C90   C102  S    
C38   C66   T    
C3    C38   S    
C109  H53   S    
O47   Zn11  S    
O2    Zn6   S    
O17   Zn9   S    
C115  O11   A    
C29   H81   S    
C143  H100  S    
O9    Zn13  S    
C89   O5    A    
C128  C132  A    
C33   C53   S    
O36   Zn12  S    
C35   C55   S    
C20   C24   S    
C82   C114  S    
C123  O43   A    
C142  H96   S    
O19   Zn11  S    
C107  H47   S    
C141  H91   S    
C144  H104  S    
C7    C135  A    
C117  O37   A    
C99   C100  A    
C119  O47   A    
O10   Zn14  S    
C32   C44   S    
O3    Zn3   S    
C3    O23   A    
C16   C128  A    
C1    O21   A    
C94   H38   S    
O3    Zn15  S    
C95   H43   S    
O4    Zn16  S    
O20   Zn12  S    
O38   Zn6   S    
C26   H18   S    
C33   N1    S    
C46   C74   S    
O7    Zn3   S    
C54   C58   S    
C24   H68   S    
C39   C67   T    
C134  H2    S    
C55   C67   S    
C59   H15   S    
O13   Zn5   S    
C34   N2    S    
C6    C134  A    
C71   C75   T    
C97   C110  S    
C28   C52   S    
C99   C112  S    
C51   H23   S    
C137  O54   S    
C122  C130  S    
C102  C106  A    
C46   O18   A    
N3    H97   S    
C81   C85   A    
C79   C80   A    
C51   H75   S    
C115  O35   A    
C28   H20   S    
C23   H67   S    
C61   C145  S    
C20   H60   S    
C97   C101  A    
C52   C56   S    
