data_mof_unit_pretest_1651.cif
_audit_creation_date              2012-12-11T15:02:53-0500
_audit_creation_method            fapswitch 2.2
_symmetry_space_group_name_H-M    P1
_symmetry_Int_Tables_number       1
_space_group_crystal_system       triclinic
_cell_length_a                    13.266308
_cell_length_b                    13.271664
_cell_length_c                    26.779331
_cell_angle_alpha                 96.624286
_cell_angle_beta                  96.833323
_cell_angle_gamma                 61.211376
_cell_volume                      4093.6794153

loop_
_atom_site_label
_atom_site_type_symbol
_atom_type_description
_atom_site_fract_x
_atom_site_fract_y
_atom_site_fract_z
_atom_type_partial_charge
C1    C     C_R   0.378968 0.723131 0.434909 0.546213
C2    C     C_1   0.330889 0.340155 0.268235 -0.014744
C3    C     C_1   0.344498 0.347581 0.321165 -0.049632
C4    C     C_1   0.362700 0.356447 0.366061 -0.008453
C5    C     C_3   0.909600 0.218805 0.266052 -0.102758
C6    C     C_3   0.813629 0.235075 0.223645 -0.097790
C7    C     C_1   0.893054 0.293568 0.103003 -0.011514
C8    C     C_1   0.775017 0.364367 0.390064 -0.010794
C9    C     C_3   0.942947 0.294794 0.239295 -0.099860
C10   C     C_3   0.846511 0.311388 0.197855 0.050587
C11   C     C_3   0.856115 0.403984 0.268709 -0.096988
C12   C     C_R   0.394698 0.373218 0.417905 0.542934
C13   C     C_3   0.823181 0.327869 0.294607 0.050283
C14   C     C_3   0.760190 0.420313 0.226493 -0.102840
C15   C     C_3   0.726743 0.344403 0.253182 -0.100586
C16   C     C_1   0.865815 0.302691 0.144976 -0.055971
C17   C     C_1   0.803282 0.343378 0.347718 -0.055713
C18   C     C_3   0.371665 0.906106 0.271587 -0.098254
C19   C     C_3   0.446680 0.810588 0.232765 -0.100875
C20   C     C_1   0.306413 0.887377 0.101186 -0.011270
C21   C     C_1   0.362253 0.772295 0.388283 -0.010382
C22   C     C_3   0.263282 0.936603 0.234764 -0.099683
C23   C     C_R   0.724731 0.399091 0.437114 0.546096
C24   C     C_3   0.338464 0.840635 0.196883 0.049946
C25   C     C_3   0.240093 0.848422 0.257504 -0.099599
C26   C     C_3   0.348169 0.818322 0.293470 0.050091
C27   C     C_3   0.315004 0.752939 0.218852 -0.098182
C28   C     C_3   0.423426 0.722322 0.255630 -0.100949
C29   C     C_1   0.326135 0.859767 0.143714 -0.055849
C30   C     C_1   0.353952 0.799482 0.346290 -0.055323
C31   C     C_3   0.378364 0.234303 0.724369 -0.076412
C32   C     C_3   0.425022 0.291245 0.768107 -0.127663
C33   C     C_1   0.295914 0.309106 0.887364 0.013111
C34   C     C_R   0.381372 0.724706 0.575440 0.543892
C35   C     C_1   0.361079 0.359024 0.603336 -0.004260
C36   C     C_3   0.264578 0.282326 0.750053 0.198864
C37   C     C_3   0.311140 0.338753 0.793151 0.051779
C38   C     C_3   0.211447 0.393604 0.721688 -0.076812
C39   C     C_3   0.325697 0.345905 0.696907 0.020602
C40   C     C_3   0.258406 0.450320 0.765639 -0.127245
C41   C     C_3   0.372716 0.402989 0.739848 -0.117331
C42   C     C_1   0.303908 0.327909 0.845764 -0.015089
C43   C     C_1   0.340522 0.350944 0.644580 -0.043962
C44   C     C_1   0.889517 0.294291 0.864680 0.007367
C45   C     C_R   0.395405 0.375800 0.558076 0.544475
C46   C     C_1   0.862328 0.305838 0.820306 -0.017588
C47   C     C_1   0.839691 0.319597 0.767986 0.028763
C48   C     C_1   0.822633 0.332985 0.723423 0.023592
C49   C     C_1   0.799703 0.352055 0.671547 -0.028408
C50   C     C_1   0.772126 0.372636 0.627861 -0.001720
C51   C     C_1   0.293136 0.894366 0.863052 0.007642
C52   C     C_1   0.312661 0.867157 0.819349 -0.016936
C53   C     C_1   0.330141 0.843951 0.767428 0.028361
C54   C     C_1   0.342232 0.826068 0.722833 0.021761
C55   C     C_1   0.354845 0.801952 0.670558 -0.029410
C56   C     C_R   0.724302 0.403536 0.577604 0.543777
C57   C     C_1   0.365997 0.773378 0.626346 -0.001533
C58   C     C_R   0.941734 0.278288 0.056517 0.543686
C59   C     C_R   0.288033 0.271385 0.073256 0.540788
C60   C     C_R   0.270874 0.937145 0.053848 0.542970
C61   C     C_R   0.936919 0.279375 0.915916 0.547492
C62   C     C_R   0.281647 0.274228 0.933026 0.550151
C63   C     C_R   0.262693 0.941150 0.913290 0.548111
C64   C     C_1   0.305112 0.302863 0.125111 -0.008520
C65   C     C_1   0.314539 0.320374 0.170014 -0.049785
C66   C     C_1   0.322870 0.332999 0.222948 -0.014846
Cr1   Cr    Cr6+3 0.585520 0.589730 0.508860 1.038106
Cr2   Cr    Cr6+3 0.329140 0.580910 0.495080 1.037770
Cr3   Cr    Cr6+3 0.585350 0.329380 0.496090 1.038056
Cr4   Cr    Cr6+3 0.077110 0.074680 0.982320 1.039454
Cr5   Cr    Cr6+3 0.079190 0.334150 0.996330 1.040423
Cr6   Cr    Cr6+3 0.334370 0.081620 0.994860 1.040774
H1    H     H_    0.795722 0.166187 0.204257 0.112341
H2    H     H_    0.292282 0.689927 0.196518 0.112656
H3    H     H_    0.155163 0.864602 0.268453 0.108169
H4    H     H_    0.197063 0.024956 0.225347 0.106508
H5    H     H_    0.512415 0.250056 0.787831 0.120267
H6    H     H_    0.426532 0.145731 0.706777 0.133899
H7    H     H_    0.417613 0.452928 0.734751 0.122160
H8    H     H_    0.209964 0.538721 0.783341 0.121569
H9    H     H_    0.124096 0.434376 0.701913 0.134040
H10   H     H_    0.971131 0.136559 0.283037 0.105750
H11   H     H_    0.637584 0.364915 0.259801 0.110804
H12   H     H_    0.698663 0.502646 0.209567 0.105384
H13   H     H_    0.874048 0.472939 0.288004 0.112838
H14   H     H_    0.032109 0.274331 0.232702 0.109177
H15   H     H_    0.531506 0.794463 0.221720 0.108269
H16   H     H_    0.394335 0.969090 0.293978 0.113783
H17   H     H_    0.489560 0.633980 0.265100 0.106429
O1    O     O_R   0.700650 0.499560 0.456090 -0.505109
O2    O     O_R   0.338920 0.475010 0.540740 -0.494770
O3    O     O_R   0.494530 0.302750 0.544370 -0.504695
O4    O     O_R   0.682350 0.343320 0.552170 -0.493130
O5    O     O_3   0.500010 0.500010 0.500010 -0.256190
O6    O     O_R   0.170670 0.959150 0.034900 -0.506620
O7    O     O_R   0.983710 0.178390 0.033850 -0.495439
O8    O     O_R   0.965940 0.354890 0.046440 -0.506935
O9    O     O_R   0.187770 0.326880 0.051460 -0.496052
O10   O     O_R   0.362310 0.174000 0.055490 -0.506893
O11   O     O_R   0.326800 0.983030 0.039600 -0.495806
O12   O     O_R   0.479220 0.682850 0.457510 -0.493809
O13   O     O_R   0.165220 0.960770 0.926060 -0.504035
O14   O     O_R   0.978660 0.179890 0.932950 -0.492123
O15   O     O_R   0.960490 0.356500 0.937600 -0.501661
O16   O     O_R   0.182720 0.328380 0.950570 -0.491487
O17   O     O_R   0.356860 0.175610 0.946640 -0.502937
O18   O     O_R   0.321740 0.984530 0.938700 -0.489933
O19   O     O_3   0.163560 0.163490 0.991170 -0.253492
O20   O     O_R   0.304230 0.696360 0.445090 -0.505150
O21   O     O_R   0.337790 0.472640 0.439840 -0.494056
O22   O     O_R   0.493310 0.300190 0.435520 -0.505541
O23   O     O_R   0.681220 0.340950 0.451270 -0.494034
O24   O     O_R   0.701870 0.502110 0.564940 -0.503926
O25   O     O_R   0.480360 0.685220 0.558410 -0.494326
O26   O     O_R   0.305450 0.698920 0.553940 -0.502738
Br1   Br    Br    0.186011 0.194741 0.757879 -0.535544

loop_
_geom_bond_atom_site_label_1
_geom_bond_atom_site_label_2
_ccdc_geom_bond_type
Cr5   O15   S    
C1    C21   S    
C59   O10   A    
C18   C26   S    
C24   C27   S    
C22   H4    S    
C8    C23   S    
C12   O21   A    
C39   C41   S    
C62   O16   A    
C53   C54   T    
C23   O23   A    
Cr5   O8    S    
C59   C64   S    
C31   H6    S    
C33   C42   T    
C36   C37   S    
C61   O14   A    
Cr1   O25   S    
C37   C40   S    
Cr3   O4    S    
C38   C39   S    
Cr3   O23   S    
C11   C13   S    
Cr2   O2    S    
C18   C19   S    
C37   C42   S    
C49   C50   T    
C45   O3    A    
C58   O7    A    
C24   C29   S    
C1    O20   A    
C6    C15   S    
C54   C55   S    
C31   C32   S    
C33   C62   S    
C22   C25   S    
Cr1   O5    S    
C32   C41   S    
C40   H8    S    
C28   H17   S    
C14   H12   S    
C20   C60   S    
C27   H2    S    
C35   C43   T    
C9    C10   S    
C7    C58   S    
C5    C13   S    
C32   H5    S    
Cr5   O19   S    
C58   O8    A    
C63   O13   A    
C44   C46   T    
C20   C29   T    
C56   O4    A    
Cr5   O9    S    
C51   C52   T    
Cr6   O19   S    
C61   O15   A    
C51   C63   S    
Cr3   O5    S    
C10   C14   S    
Cr4   O14   S    
C39   C43   S    
C60   O11   A    
C25   C26   S    
Cr1   O1    S    
Cr2   O5    S    
C25   H3    S    
Cr4   O7    S    
C5    C9    S    
C9    H14   S    
C34   C57   S    
C47   C48   T    
C14   C15   S    
Cr6   O18   S    
C56   O24   A    
C23   O1    A    
Cr2   O21   S    
C32   C37   S    
C19   C28   S    
C9    C11   S    
Cr3   O3    S    
C40   C41   S    
Cr6   O17   S    
C26   C30   S    
C55   C57   T    
C13   C15   S    
C22   C24   S    
C34   O25   A    
C63   O18   A    
C3    C4    T    
C35   C45   S    
C1    O12   A    
C52   C53   S    
Cr1   O12   S    
C6    H1    S    
C41   H7    S    
Cr6   O11   S    
C46   C47   S    
C48   C49   S    
C18   C22   S    
C19   C24   S    
C7    C16   T    
C2    C66   T    
C6    C10   S    
C15   H11   S    
Cr4   O13   S    
C62   O17   A    
C44   C61   S    
C25   C27   S    
C21   C30   T    
C26   C28   S    
C8    C17   T    
C13   C17   S    
C64   C65   T    
Cr5   O16   S    
Cr4   O6    S    
C34   O26   A    
C19   H15   S    
C38   H9    S    
Cr4   O19   S    
C38   C40   S    
C5    H10   S    
Cr3   O22   S    
C5    C6    S    
C11   H13   S    
C36   C38   S    
C11   C14   S    
C31   C39   S    
C2    C3    S    
Cr2   O20   S    
Cr1   O24   S    
C45   O2    A    
C50   C56   S    
C18   H16   S    
Cr2   O26   S    
C60   O6    A    
C65   C66   S    
C27   C28   S    
C59   O9    A    
C31   C36   S    
C10   C16   S    
C4    C12   S    
C12   O22   A    
Cr6   O10   S    
C36   Br1   S    
