data_mof_unit_pretest_523.cif
_audit_creation_date              2012-12-10T17:47:45-0500
_audit_creation_method            fapswitch 2.2
_symmetry_space_group_name_H-M    P1
_symmetry_Int_Tables_number       1
_space_group_crystal_system       triclinic
_cell_length_a                    10.820658
_cell_length_b                    10.821765
_cell_length_c                    9.969673
_cell_angle_alpha                 90.918366
_cell_angle_beta                  90.063131
_cell_angle_gamma                 88.218753
_cell_volume                      1166.72070957

loop_
_atom_site_label
_atom_site_type_symbol
_atom_type_description
_atom_site_fract_x
_atom_site_fract_y
_atom_site_fract_z
_atom_type_partial_charge
C1    C     C_R   0.514865 0.261493 0.499578 0.875588
C2    C     C_R   0.573572 0.066101 0.615522 0.012033
C3    C     C_R   0.535770 0.129312 0.499194 -0.126372
C4    C     C_R   0.256983 0.514988 0.499090 0.807514
C5    C     C_R   0.499091 0.065875 0.385500 -0.289687
C6    C     C_R   0.480406 0.941330 0.388653 0.207843
C7    C     C_R   0.500940 0.876361 0.509470 -0.182446
C8    C     C_R   0.356236 0.330156 0.135820 -0.130523
C9    C     C_R   0.294060 0.239653 0.064504 -0.200893
C10   C     C_R   0.293495 0.239939 0.925861 -0.192918
C11   C     C_R   0.354917 0.330901 0.858057 -0.127466
C12   C     C_3   0.875585 0.493359 0.497119 0.085715
C13   C     C_R   0.428262 0.417195 0.926428 0.146017
C14   C     C_R   0.428520 0.417064 0.070560 0.129671
C15   C     C_R   0.577904 0.571222 0.072652 0.247287
C16   C     C_R   0.497737 0.741122 0.502439 0.891562
C17   C     C_R   0.577006 0.570331 0.929102 -0.202508
C18   C     C_R   0.740940 0.488887 0.499468 0.851576
C19   C     C_3   0.076211 0.435279 0.610904 -0.454280
C20   C     C_3   0.934982 0.426275 0.618861 0.065782
C21   C     C_3   0.046503 0.648911 0.504967 -0.153533
C22   C     C_3   0.070421 0.449423 0.360921 -0.130355
C23   C     C_3   0.905445 0.631373 0.500148 -0.446411
C24   C     C_3   0.117044 0.516966 0.494258 0.035635
C25   C     C_3   0.683068 0.229107 0.005334 -0.788964
C26   C     C_3   0.332017 0.854090 0.795187 -0.735746
C27   C     C_3   0.300899 0.912738 0.251842 -0.837072
C28   C     C_3   0.784128 0.659049 0.089707 -0.874741
C29   C     C_3   0.928364 0.237789 0.750075 -0.858963
C30   C     C_R   0.070929 0.743090 0.617648 0.139561
C31   C     C_R   0.032247 0.723567 0.750676 -0.150295
C32   C     C_R   0.022697 0.820873 0.844430 -0.154604
C33   C     C_R   0.049512 0.940462 0.807060 -0.137551
C34   C     C_3   0.928394 0.436728 0.365869 -0.457961
C35   C     C_R   0.084157 0.963105 0.675181 -0.141579
C36   C     C_R   0.093678 0.865945 0.581510 -0.183778
C37   C     C_R   0.103571 0.498339 0.222008 0.147235
C38   C     C_R   0.172750 0.604377 0.197418 -0.085220
C39   C     C_R   0.209547 0.632110 0.068036 -0.162442
C40   C     C_R   0.172649 0.559570 0.960541 -0.134195
C41   C     C_R   0.096063 0.460718 0.981393 -0.141023
C42   C     C_R   0.064320 0.428512 0.110457 -0.178639
C43   C     C_R   0.641183 0.124858 0.718913 -0.177139
C44   C     C_R   0.669359 0.064572 0.838648 0.256392
C45   C     C_R   0.621934 0.949293 0.859565 -0.309541
C46   C     C_R   0.546819 0.893805 0.763192 0.240875
C47   C     C_R   0.540598 0.941994 0.629182 0.018863
H1    H     H_    0.110471 0.473359 0.705479 0.166234
H2    H     H_    0.239983 0.173446 0.117034 0.134353
H3    H     H_    0.239811 0.173396 0.870641 0.131177
H4    H     H_    0.339162 0.332712 0.753033 0.205774
H5    H     H_    0.638094 0.628360 0.874317 0.174065
H6    H     H_    0.901050 0.474243 0.711803 0.152693
H7    H     H_    0.855684 0.677881 0.585787 0.173613
H8    H     H_    0.111745 0.353711 0.362438 0.124704
H9    H     H_    0.903636 0.338432 0.352758 0.137837
H10   H     H_    0.779266 0.060711 0.009496 0.220446
H11   H     H_    0.596180 0.203454 0.055607 0.252868
H12   H     H_    0.883705 0.485267 0.280228 0.218301
H13   H     H_    0.663588 0.301871 0.930569 0.253281
H14   H     H_    0.746678 0.267365 0.081874 0.229654
H15   H     H_    0.472088 0.785924 0.911753 0.207467
H16   H     H_    0.270629 0.781771 0.829788 0.241854
H17   H     H_    0.313893 0.869097 0.687625 0.254776
H18   H     H_    0.312979 0.940904 0.853649 0.226329
H19   H     H_    0.481216 0.906120 0.185867 0.211668
H20   H     H_    0.277382 0.011974 0.271543 0.228895
H21   H     H_    0.247867 0.856598 0.321027 0.232579
H22   H     H_    0.273356 0.891453 0.147239 0.229053
H23   H     H_    0.065987 0.696853 0.411375 0.117042
H24   H     H_    0.621946 0.729336 0.177695 0.234553
H25   H     H_    0.846026 0.696848 0.167957 0.243903
H26   H     H_    0.781615 0.724238 0.004851 0.223303
H27   H     H_    0.822968 0.567663 0.055438 0.257853
H28   H     H_    0.927363 0.243106 0.543417 0.230089
H29   H     H_    0.894802 0.142475 0.745469 0.272071
H30   H     H_    0.882977 0.289412 0.834432 0.273085
H31   H     H_    0.029439 0.231738 0.767752 0.223638
H32   H     H_    0.000063 0.635692 0.781037 0.124958
H33   H     H_    0.992900 0.803627 0.945812 0.143285
H34   H     H_    0.866363 0.677332 0.409542 0.172841
H35   H     H_    0.043208 0.015308 0.880245 0.128788
H36   H     H_    0.104174 0.055786 0.644692 0.132633
H37   H     H_    0.112035 0.888967 0.478966 0.110377
H38   H     H_    0.208707 0.661021 0.276325 0.131044
H39   H     H_    0.272075 0.705869 0.051363 0.136986
H40   H     H_    0.208083 0.577809 0.862087 0.151052
H41   H     H_    0.067252 0.403040 0.899584 0.137490
H42   H     H_    0.011367 0.346218 0.123509 0.124246
H43   H     H_    0.475755 0.114320 0.294054 0.177246
H44   H     H_    0.676579 0.215940 0.705174 0.197532
H45   H     H_    0.632224 0.908864 0.957880 0.122831
H46   H     H_    0.121392 0.341760 0.599298 0.167445
H47   H     H_    0.342485 0.331107 0.241259 0.204544
N1    N     N_R   0.498810 0.498800 0.142780 -0.146673
N2    N     N_R   0.498760 0.498720 0.857170 -0.139705
N3    N     N_2   0.740714 0.121441 0.941275 -0.328949
N4    N     N_2   0.457816 0.812635 0.814050 -0.273226
N5    N     N_2   0.431483 0.885552 0.270501 -0.279633
N6    N     N_2   0.661394 0.646619 0.144931 -0.252662
N7    N     N_2   0.900444 0.297477 0.624634 -0.317111
O1    O     O_R   0.500000 0.316780 0.614690 -0.644701
O2    O     O_R   0.499990 0.316750 0.385360 -0.649994
O3    O     O_R   0.314800 0.499990 0.614670 -0.636027
O4    O     O_R   0.314790 0.499970 0.385330 -0.641208
O5    O     O_R   0.500010 0.683250 0.614640 -0.586669
O6    O     O_R   0.500000 0.683220 0.385310 -0.598167
O7    O     O_R   0.685210 0.500030 0.614670 -0.634158
O8    O     O_R   0.685200 0.500010 0.385330 -0.603586
Zn1   Zn    Zn3+2 0.500010 0.500020 0.653130 0.930914
Zn2   Zn    Zn3+2 0.499990 0.499980 0.346870 0.942798

loop_
_geom_bond_atom_site_label_1
_geom_bond_atom_site_label_2
_ccdc_geom_bond_type
C34   H9    S    
C41   C42   A    
C35   C36   A    
C18   O8    A    
C15   N6    S    
C43   C44   A    
C28   H27   S    
C29   H29   S    
C45   C46   A    
C12   C23   S    
C27   N5    S    
C40   H40   S    
O8    Zn2   S    
C15   N1    A    
C5    C6    A    
C4    C24   S    
O2    Zn2   S    
C37   C42   A    
C45   H45   S    
C26   H17   S    
C27   H21   S    
C16   O6    A    
H15   N4    S    
C29   H31   S    
C19   C20   S    
C8    C9    A    
C9    H2    S    
C25   H13   S    
C9    C10   A    
C1    O2    A    
C5    H43   S    
C19   H46   S    
C16   O5    A    
C28   N6    S    
C46   N4    S    
C13   C14   A    
C28   H25   S    
C28   H26   S    
C17   H5    S    
C38   C39   A    
C22   C34   S    
C13   N2    A    
C8    H47   S    
C39   C40   A    
C35   H36   S    
C19   H1    S    
C20   N7    S    
C38   H38   S    
C22   C37   S    
N2    Zn1   S    
C43   H44   S    
C1    C3    S    
C7    C47   A    
H19   N5    S    
C26   H16   S    
C37   C38   A    
C32   H33   S    
C44   N3    S    
C31   C32   A    
C27   H20   S    
C2    C43   A    
H10   N3    S    
C12   C20   S    
C29   N7    S    
C17   N2    A    
C25   H14   S    
C22   H8    S    
C26   N4    S    
C25   N3    S    
C7    C16   S    
C21   C23   S    
C34   H12   S    
C22   C24   S    
O1    Zn1   S    
C25   H11   S    
C12   C34   S    
C10   H3    S    
C14   N1    A    
C44   C45   A    
C23   H7    S    
H24   N6    S    
C4    O4    A    
C15   C17   A    
C41   H41   S    
C46   C47   A    
C40   C41   A    
C8    C14   A    
C23   H34   S    
C26   H18   S    
O6    Zn2   S    
C20   H6    S    
C3    C5    A    
C27   H22   S    
C31   H32   S    
C6    C7    A    
C2    C47   A    
C21   C30   S    
C30   C36   A    
C21   H23   S    
C42   H42   S    
C32   C33   A    
C2    C3    A    
N1    Zn2   S    
C6    N5    S    
O3    Zn1   S    
C11   C13   A    
C30   C31   A    
C36   H37   S    
C4    O3    A    
C33   C35   A    
O7    Zn1   S    
C19   C24   S    
O4    Zn2   S    
C33   H35   S    
C18   O7    A    
C11   H4    S    
C10   C11   A    
C29   H30   S    
O5    Zn1   S    
C21   C24   S    
C12   C18   S    
H28   N7    S    
C39   H39   S    
C1    O1    A    
