data_mof_unit_pretest_1762.cif
_audit_creation_date              2012-12-11T16:15:08-0500
_audit_creation_method            fapswitch 2.2
_symmetry_space_group_name_H-M    P1
_symmetry_Int_Tables_number       1
_space_group_crystal_system       triclinic
_cell_length_a                    13.565864
_cell_length_b                    13.585803
_cell_length_c                    28.442053
_cell_angle_alpha                 90.350931
_cell_angle_beta                  90.150765
_cell_angle_gamma                 60.274309
_cell_volume                      4552.08086925

loop_
_atom_site_label
_atom_site_type_symbol
_atom_type_description
_atom_site_fract_x
_atom_site_fract_y
_atom_site_fract_z
_atom_type_partial_charge
C1    C     C_R   0.281416 0.619718 0.567083 0.547611
C2    C     C_1   0.641682 0.658780 0.652571 0.034958
C3    C     C_1   0.636189 0.224026 0.610335 0.045371
C4    C     C_R   0.621303 0.601031 0.566715 0.546783
C5    C     C_R   0.762926 0.157073 0.723380 -0.063757
C6    C     C_R   0.772188 0.140957 0.771896 0.105602
C7    C     C_R   0.596338 0.132737 0.772306 0.074673
C8    C     C_R   0.592395 0.140918 0.722736 0.138616
C9    C     C_R   0.672887 0.158574 0.698865 0.022524
C10   C     C_R   0.686638 0.134318 0.796882 -0.012836
C11   C     C_1   0.697120 0.119845 0.847206 0.023929
C12   C     C_1   0.635949 0.635764 0.612268 0.046355
C13   C     C_1   0.657472 0.188914 0.649953 0.019307
C14   C     C_1   0.707785 0.097730 0.888457 0.062044
C15   C     C_1   0.242992 0.631819 0.614673 0.062008
C16   C     C_R   0.600826 0.278777 0.565739 0.548080
C17   C     C_R   0.210263 0.558592 0.731664 0.122360
C18   C     C_R   0.196927 0.565928 0.780292 -0.086186
C19   C     C_R   0.212432 0.737424 0.781807 0.044810
C20   C     C_R   0.217801 0.734406 0.731804 0.037018
C21   C     C_R   0.213674 0.645865 0.706947 0.002397
C22   C     C_R   0.194687 0.655736 0.805326 -0.023552
C23   C     C_3   0.696114 0.756020 0.757004 0.056290
C24   C     C_1   0.157800 0.671534 0.853748 0.018883
C25   C     C_1   0.225018 0.638499 0.656343 0.042039
C26   C     C_1   0.117594 0.692710 0.892732 0.046181
C27   C     C_1   0.639665 0.632617 0.389093 0.052971
C28   C     C_R   0.275728 0.621421 0.434834 0.569527
C29   C     C_R   0.686796 0.567296 0.267689 0.094239
C30   C     C_R   0.686747 0.584586 0.219222 -0.099350
C31   C     C_R   0.630439 0.783458 0.231878 0.096349
C32   C     C_R   0.630087 0.766212 0.280537 -0.093775
C33   C     C_R   0.657823 0.659959 0.298516 0.003375
C34   C     C_3   0.670089 0.690722 0.794268 -0.022495
C35   C     C_R   0.658681 0.690717 0.201168 0.017073
C36   C     C_1   0.672882 0.697490 0.151477 0.044528
C37   C     C_1   0.650756 0.648984 0.348463 0.013113
C38   C     C_1   0.692306 0.704048 0.110783 0.066858
C39   C     C_1   0.632753 0.227958 0.388732 0.087611
C40   C     C_R   0.621136 0.600670 0.434487 0.563631
C41   C     C_R   0.567634 0.259560 0.269528 0.080215
C42   C     C_R   0.577559 0.246890 0.220518 0.097149
C43   C     C_R   0.772707 0.090997 0.229285 0.099948
C44   C     C_R   0.763415 0.102825 0.278385 0.050095
C45   C     C_3   0.759814 0.646742 0.727633 0.090291
C46   C     C_R   0.660814 0.187300 0.298205 -0.046378
C47   C     C_R   0.679582 0.162531 0.200884 0.016738
C48   C     C_1   0.685912 0.140248 0.151663 0.025236
C49   C     C_1   0.649878 0.202492 0.348124 0.052813
C50   C     C_1   0.695486 0.109585 0.111672 0.045566
C51   C     C_1   0.222866 0.639367 0.390311 0.081641
C52   C     C_R   0.600529 0.276958 0.433992 0.561607
C53   C     C_R   0.244607 0.684783 0.271695 0.051271
C54   C     C_R   0.234119 0.683923 0.222413 0.046850
C55   C     C_R   0.084625 0.632999 0.231519 0.091699
C56   C     C_3   0.648195 0.676153 0.702786 0.010694
C57   C     C_R   0.098388 0.629713 0.280509 0.080972
C58   C     C_R   0.177816 0.655575 0.300219 -0.036274
C59   C     C_R   0.153058 0.659538 0.202781 -0.032181
C60   C     C_1   0.132761 0.671104 0.153202 0.062645
C61   C     C_1   0.194517 0.649077 0.350010 0.033673
C62   C     C_1   0.104315 0.691321 0.113055 0.090304
C63   C     C_R   0.720793 0.054668 0.935121 0.551219
C64   C     C_3   0.583829 0.786840 0.731418 -0.122079
C65   C     C_R   0.731040 0.718108 0.932109 0.552621
C66   C     C_R   0.058238 0.729097 0.936644 0.549064
C67   C     C_3   0.734216 0.581125 0.765270 0.109729
C68   C     C_R   0.714318 0.056675 0.067108 0.554739
C69   C     C_R   0.725721 0.717648 0.064891 0.553599
C70   C     C_R   0.054087 0.727371 0.068316 0.558285
C71   C     C_3   0.557802 0.720612 0.769427 -0.101692
C72   C     C_1   0.700496 0.704132 0.885700 0.071895
C73   C     C_2   0.225413 0.824132 0.809592 0.598548
C74   C     C_2   0.232136 0.819961 0.705050 0.637218
C75   C     C_2   0.720130 0.450993 0.284230 0.617550
C76   C     C_2   0.602173 0.898184 0.214728 0.622479
C77   C     C_2   0.458841 0.346279 0.290758 0.605197
C78   C     C_3   0.622277 0.610260 0.739994 0.112561
C79   C     C_2   0.860241 0.027135 0.308897 0.608188
C80   C     C_2   0.319154 0.724189 0.293533 0.620128
C81   C     C_2   0.309582 0.705897 0.191443 0.628171
C82   C     C_2   0.997499 0.610301 0.210477 0.610615
C83   C     C_2   0.744451 0.832527 0.765738 0.618074
C84   C     C_2   0.507520 0.120814 0.797879 0.593426
C85   C     C_1   0.683079 0.697099 0.844828 0.055926
Cr1   Cr    Cr6+3 0.413560 0.417690 0.499580 1.094321
Cr2   Cr    Cr6+3 0.418030 0.668340 0.500400 1.081280
Cr3   Cr    Cr6+3 0.668390 0.413960 0.499990 1.101116
Cr4   Cr    Cr6+3 0.919710 0.916540 0.003080 1.093049
Cr5   Cr    Cr6+3 0.665300 0.919470 0.999630 1.095598
Cr6   Cr    Cr6+3 0.916060 0.665490 0.000390 1.078029
H1    H     H_    0.475387 0.750142 0.787519 0.199020
H2    H     H_    0.553331 0.009359 0.161104 0.354322
H3    H     H_    0.290844 0.405760 0.298104 0.352702
H4    H     H_    0.973556 0.867426 0.327564 0.344446
H5    H     H_    0.429019 0.705188 0.344894 0.336725
H6    H     H_    0.323607 0.790627 0.136218 0.351389
H7    H     H_    0.936513 0.502531 0.203312 0.346255
H8    H     H_    0.815918 0.891589 0.811893 0.339633
H9    H     H_    0.340511 0.177299 0.807307 0.356623
H10   H     H_    0.186891 0.501721 0.798618 0.167265
H11   H     H_    0.709901 0.514379 0.195055 0.167098
H12   H     H_    0.607311 0.836156 0.304790 0.165365
H13   H     H_    0.522368 0.871085 0.717124 0.177736
H14   H     H_    0.826543 0.167726 0.704734 0.172771
H15   H     H_    0.205832 0.981234 0.813273 0.363001
H16   H     H_    0.327196 0.893256 0.692560 0.354726
H17   H     H_    0.807602 0.283025 0.270705 0.354952
I1    I     I_    0.477725 0.108995 0.682415 -0.232965
I2    I     I_    0.230129 0.410805 0.697573 -0.180407
I3    I     I_    0.441000 0.358258 0.175429 -0.264709
I4    I     I_    0.929648 0.969692 0.197186 -0.197559
I5    I     I_    0.992503 0.595738 0.325677 -0.264733
I6    I     I_    0.558945 0.496574 0.726445 -0.341053
I7    I     I_    0.859297 0.423348 0.793625 -0.214809
I8    I     I_    0.913709 0.595633 0.690149 -0.222232
I9    I     I_    0.920281 0.120451 0.805773 -0.233097
O1    O     O_R   0.503010 0.303330 0.550820 -0.488605
O2    O     O_R   0.827060 0.642880 0.947470 -0.498481
O3    O     O_R   0.013800 0.673690 0.954100 -0.497243
O4    O     O_R   0.320040 0.522690 0.547470 -0.491558
O5    O     O_R   0.031250 0.825430 0.055080 -0.481542
O6    O     O_R   0.814180 0.011990 0.050320 -0.486467
O7    O     O_R   0.640680 0.032900 0.051920 -0.495524
O8    O     O_R   0.671090 0.815590 0.046300 -0.481393
O9    O     O_R   0.822940 0.642440 0.050310 -0.498185
O10   O     O_R   0.009970 0.673280 0.049430 -0.493190
O11   O     O_3   0.833690 0.833830 0.001040 -0.276577
O12   O     O_R   0.522480 0.657560 0.452870 -0.498954
O13   O     O_R   0.303930 0.694040 0.551750 -0.491034
O14   O     O_R   0.523510 0.657900 0.548240 -0.497515
O15   O     O_R   0.694770 0.503160 0.551780 -0.492479
O16   O     O_R   0.657990 0.319990 0.547370 -0.497124
O17   O     O_R   0.501900 0.302960 0.447930 -0.497523
O18   O     O_R   0.319020 0.522350 0.452090 -0.484363
O19   O     O_R   0.302820 0.693680 0.448870 -0.492910
O20   O     O_2   0.269027 0.800512 0.848598 -0.507722
O21   O     O_R   0.189868 0.931789 0.791268 -0.628521
O22   O     O_2   0.162209 0.877431 0.675288 -0.473262
O23   O     O_R   0.693670 0.502790 0.448900 -0.472365
O24   O     O_R   0.326573 0.833013 0.713210 -0.684156
O25   O     O_2   0.689752 0.435850 0.322632 -0.470896
O26   O     O_R   0.786632 0.357796 0.255218 -0.686604
O27   O     O_2   0.604862 0.966898 0.241957 -0.502896
O28   O     O_R   0.570693 0.929175 0.167953 -0.675425
O29   O     O_2   0.457190 0.417346 0.317819 -0.466560
O30   O     O_R   0.358753 0.344859 0.280476 -0.635678
O31   O     O_2   0.895524 0.067608 0.338544 -0.492436
O32   O     O_R   0.909610 0.909611 0.304312 -0.647968
O33   O     O_2   0.315931 0.810628 0.279431 -0.466337
O34   O     O_R   0.656970 0.319650 0.452000 -0.475805
O35   O     O_R   0.391249 0.663938 0.330596 -0.646613
O36   O     O_2   0.412003 0.656403 0.198472 -0.489741
O37   O     O_R   0.263607 0.783268 0.154549 -0.661461
O38   O     O_2   0.924053 0.680673 0.184908 -0.514547
O39   O     O_R   0.000060 0.508111 0.219674 -0.633167
O40   O     O_2   0.759497 0.880557 0.732679 -0.498317
O41   O     O_R   0.776996 0.844382 0.811099 -0.680219
O42   O     O_2   0.534183 0.048070 0.827996 -0.490822
O43   O     O_R   0.392982 0.193686 0.787704 -0.647129
O44   O     O_3   0.499990 0.499990 0.499990 -0.276031
O45   O     O_R   0.035380 0.825870 0.952240 -0.485600
O46   O     O_R   0.818010 0.012400 0.954990 -0.495221
O47   O     O_R   0.644810 0.033340 0.949080 -0.481141
O48   O     O_R   0.674910 0.816000 0.950960 -0.483748

loop_
_geom_bond_atom_site_label_1
_geom_bond_atom_site_label_2
_ccdc_geom_bond_type
C70   O10   A    
C7    C10   A    
C40   O12   A    
C23   C45   S    
Cr6   O9    S    
C55   C59   A    
C28   O18   A    
C52   O17   A    
C41   C42   A    
C35   C36   S    
C51   C61   T    
C43   C44   A    
C2    C12   T    
C17   I2    S    
C68   O7    A    
C75   O26   S    
C72   C85   T    
C84   O43   S    
C56   C78   S    
C7    C8    A    
C4    O15   A    
C5    H14   S    
C53   C54   A    
C80   O33   D    
C46   C49   S    
C66   O45   A    
C23   C83   S    
C30   C35   A    
Cr2   O13   S    
C24   C26   T    
Cr3   O16   S    
C41   C77   S    
C5    C6    A    
C11   C14   T    
C15   C25   T    
C73   O21   S    
Cr3   O44   S    
H5    O35   S    
C65   O48   A    
C81   O36   D    
C62   C70   S    
C60   C62   T    
C64   C71   S    
Cr2   O14   S    
C9    C13   S    
Cr3   O23   S    
C67   I7    S    
Cr1   O17   S    
C71   H1    S    
C47   C48   S    
C29   C33   A    
C8    C9    A    
C45   C67   S    
C41   C46   A    
C56   C64   S    
H2    O28   S    
C1    C15   S    
C71   C78   S    
C4    C12   S    
C43   C47   A    
C77   O30   S    
C6    I9    S    
C3    C13   T    
C79   O32   S    
C82   O39   S    
C58   C61   S    
C48   C50   T    
C7    C84   S    
C38   C69   S    
C69   O8    A    
C59   C60   S    
C66   O3    A    
C78   I6    S    
C67   C78   S    
C31   C76   S    
C16   O16   A    
C68   O6    A    
C84   O42   D    
C44   C46   A    
C4    O14   A    
C54   C59   A    
C63   O47   A    
H7    O39   S    
Cr6   O11   S    
C26   C66   S    
C19   C73   S    
C19   C22   A    
C45   C56   S    
C1    O13   A    
C10   C11   S    
C53   C80   S    
C57   I5    S    
Cr4   O6    S    
C33   C37   S    
C81   O37   S    
Cr5   O47   S    
C34   C85   S    
C63   O46   A    
C42   I3    S    
C5    C9    A    
C29   C30   A    
C75   O25   D    
C16   O1    A    
C70   O5    A    
C31   C32   A    
C83   O40   D    
C27   C40   S    
C23   C34   S    
C30   H11   S    
Cr1   O4    S    
C17   C18   A    
C65   O2    A    
C32   H12   S    
C20   C74   S    
Cr1   O1    S    
Cr1   O44   S    
H6    O37   S    
C55   C82   S    
C34   C71   S    
Cr6   O10   S    
H4    O32   S    
C82   O38   D    
C76   O27   D    
C23   C64   S    
C39   C49   T    
C74   O24   S    
C76   O28   S    
C55   C57   A    
Cr5   O48   S    
Cr3   O34   S    
C22   C24   S    
H16   O24   S    
C43   I4    S    
Cr3   O15   S    
Cr4   O45   S    
H3    O30   S    
C80   O35   S    
C21   C25   S    
Cr2   O44   S    
C28   O19   A    
Cr5   O7    S    
Cr2   O19   S    
C44   C79   S    
C64   H13   S    
H9    O43   S    
C34   C67   S    
C69   O9    A    
C53   C58   A    
C79   O31   D    
C29   C75   S    
C65   C72   S    
C74   O22   D    
C32   C33   A    
Cr2   O12   S    
C19   C20   A    
C18   C22   A    
C2    C56   S    
C8    I1    S    
C45   I8    S    
C57   C58   A    
C83   O41   S    
C73   O20   D    
C27   C37   T    
C52   O34   A    
C14   C63   S    
C40   O23   A    
C31   C35   A    
C36   C38   T    
C28   C51   S    
Cr5   O8    S    
Cr4   O46   S    
C39   C52   S    
Cr6   O2    S    
C42   C47   A    
H17   O26   S    
C1    O4    A    
H15   O21   S    
C6    C10   A    
Cr1   O18   S    
C20   C21   A    
Cr4   O5    S    
H8    O41   S    
Cr5   O11   S    
Cr6   O3    S    
C50   C68   S    
C77   O29   D    
C18   H10   S    
C54   C81   S    
C3    C16   S    
Cr4   O11   S    
C17   C21   A    
