data_mof_unit_pretest_674.cif
_audit_creation_date              2012-12-11T16:23:54-0500
_audit_creation_method            fapswitch 2.2
_symmetry_space_group_name_H-M    P1
_symmetry_Int_Tables_number       1
_space_group_crystal_system       triclinic
_cell_length_a                    14.726851
_cell_length_b                    14.743457
_cell_length_c                    33.35822
_cell_angle_alpha                 96.010078
_cell_angle_beta                  96.340319
_cell_angle_gamma                 61.230591
_cell_volume                      6298.96756585

loop_
_atom_site_label
_atom_site_type_symbol
_atom_type_description
_atom_site_fract_x
_atom_site_fract_y
_atom_site_fract_z
_atom_type_partial_charge
C1    C     C_R   0.390913 0.699668 0.446094 0.544681
C2    C     C_1   0.318345 0.335178 0.229115 0.133325
C3    C     C_1   0.323726 0.340237 0.265333 0.118589
C4    C     C_R   0.405427 0.386315 0.434065 0.574098
C5    C     C_R   0.291191 0.294350 0.101848 0.013786
C6    C     C_R   0.754851 0.374192 0.409845 0.021809
C7    C     C_R   0.787332 0.436507 0.393193 -0.122578
C8    C     C_R   0.815933 0.416203 0.353517 -0.110613
C9    C     C_R   0.812883 0.333049 0.329796 0.034299
C10   C     C_R   0.789307 0.265349 0.347569 -0.114858
C11   C     C_R   0.760425 0.285805 0.387299 -0.126508
C12   C     C_R   0.331311 0.347777 0.308652 0.083074
C13   C     C_R   0.836056 0.311652 0.204888 0.347734
C14   C     C_R   0.825218 0.322997 0.286059 0.348841
C15   C     C_R   0.837984 0.389621 0.142493 -0.113007
C16   C     C_R   0.700382 0.410215 0.447415 0.544005
C17   C     C_R   0.867516 0.378484 0.103325 -0.125936
C18   C     C_R   0.911101 0.197141 0.099590 -0.121756
C19   C     C_R   0.881357 0.208357 0.138871 -0.116412
C20   C     C_R   0.848974 0.303635 0.161270 0.034172
C21   C     C_R   0.908747 0.281108 0.082203 0.023199
C22   C     C_R   0.370922 0.754766 0.409122 -0.005652
C23   C     C_R   0.392980 0.258111 0.329960 0.235518
C24   C     C_R   0.281310 0.775714 0.383908 -0.144910
C25   C     C_R   0.273406 0.803786 0.344713 -0.161933
C26   C     C_R   0.354558 0.812062 0.329856 0.077758
C27   C     C_R   0.440829 0.800905 0.356154 0.247839
C28   C     C_R   0.393767 0.701375 0.561373 0.605380
C29   C     C_R   0.448092 0.772261 0.395799 -0.123000
C30   C     C_R   0.350322 0.829980 0.205152 0.361058
C31   C     C_R   0.351671 0.821681 0.286118 0.366430
C32   C     C_R   0.257168 0.840581 0.137961 -0.157830
C33   C     C_R   0.235355 0.867619 0.097716 0.199340
C34   C     C_R   0.412061 0.268236 0.372488 0.079114
C35   C     C_R   0.395221 0.880806 0.101467 0.190831
C36   C     C_R   0.413929 0.857138 0.142315 0.130104
C37   C     C_R   0.341945 0.841572 0.161195 -0.002720
C38   C     C_R   0.300107 0.896526 0.080149 0.028627
C39   C     C_R   0.372387 0.365750 0.584827 0.014069
C40   C     C_R   0.407369 0.388510 0.549026 0.579061
C41   C     C_R   0.276200 0.434487 0.600818 0.218962
C42   C     C_R   0.255048 0.417587 0.639150 0.211764
C43   C     C_R   0.334185 0.339052 0.662652 0.079005
C44   C     C_R   0.427288 0.267325 0.645049 0.037657
C45   C     C_R   0.400697 0.265959 0.164766 0.054804
C46   C     C_R   0.443799 0.279799 0.606227 -0.184993
C47   C     C_R   0.314152 0.336866 0.786884 0.324612
C48   C     C_R   0.322003 0.336442 0.706023 0.399182
C49   C     C_R   0.216353 0.399291 0.848705 -0.113151
C50   C     C_R   0.205398 0.385763 0.888519 0.054735
C51   C     C_R   0.388357 0.254163 0.893613 0.219282
C52   C     C_R   0.701323 0.413705 0.562693 0.549600
C53   C     C_R   0.395521 0.265857 0.853385 -0.053975
C54   C     C_R   0.308991 0.335292 0.830399 -0.031947
C55   C     C_R   0.289959 0.306482 0.910387 0.027407
C56   C     C_R   0.391093 0.249089 0.122131 0.243387
C57   C     C_R   0.753582 0.381763 0.603018 -0.024673
C58   C     C_R   0.785653 0.445791 0.627785 -0.039977
C59   C     C_R   0.813912 0.429507 0.668855 0.260404
C60   C     C_R   0.809746 0.347032 0.685406 0.026045
C61   C     C_R   0.784309 0.279306 0.660255 -0.145592
C62   C     C_R   0.756755 0.296193 0.619350 -0.142448
C63   C     C_R   0.891960 0.216482 0.821021 -0.170363
C64   C     C_R   0.369128 0.367990 0.392417 0.011022
C65   C     C_R   0.923382 0.200013 0.862029 0.185528
C66   C     C_R   0.854803 0.387106 0.875645 0.191690
C67   C     C_R   0.204359 0.362904 0.123268 -0.181114
C68   C     C_R   0.829406 0.401461 0.833623 0.241155
C69   C     C_R   0.849190 0.315237 0.806836 0.017664
C70   C     C_1   0.834142 0.325921 0.763998 0.057905
C71   C     C_1   0.823573 0.334797 0.728147 -0.007060
C72   C     C_R   0.909057 0.285422 0.889400 0.068021
C73   C     C_R   0.377865 0.754297 0.602472 0.037548
C74   C     C_R   0.276861 0.809540 0.616421 0.238761
C75   C     C_R   0.264317 0.839740 0.657955 0.046001
C76   C     C_R   0.300907 0.454926 0.370658 -0.152529
C77   C     C_R   0.352459 0.813337 0.685042 0.016428
C78   C     C_R   0.213584 0.379787 0.165209 0.213422
C79   C     C_R   0.452317 0.763874 0.671163 0.220500
C80   C     C_R   0.465062 0.738936 0.629333 0.169851
C81   C     C_R   0.393295 0.879350 0.831499 -0.145511
C82   C     C_R   0.378012 0.906942 0.872796 0.225481
C83   C     C_R   0.224032 0.883490 0.863611 -0.156030
C84   C     C_R   0.239506 0.856513 0.822366 0.238032
C85   C     C_R   0.322843 0.857760 0.806398 0.045067
C86   C     C_1   0.333626 0.842209 0.763704 0.078748
C87   C     C_1   0.341720 0.830167 0.727875 0.077650
C88   C     C_R   0.282108 0.445730 0.328917 0.052797
C89   C     C_R   0.311222 0.328277 0.185799 0.084301
C90   C     C_R   0.289845 0.913156 0.888708 0.029956
C91   C     C_R   0.963809 0.264019 0.045636 0.540498
C92   C     C_R   0.273041 0.259627 0.059962 0.572891
C93   C     C_R   0.260285 0.957806 0.043506 0.556443
C94   C     C_R   0.962370 0.267607 0.930609 0.609901
C95   C     C_R   0.271210 0.265197 0.945635 0.545532
C96   C     C_R   0.256253 0.964750 0.928973 0.570306
Cr1   Cr    Cr6+3 0.576280 0.580550 0.506370 1.060008
Cr2   Cr    Cr6+3 0.346780 0.572400 0.496520 1.086456
Cr3   Cr    Cr6+3 0.576960 0.347070 0.497150 1.031019
Cr4   Cr    Cr6+3 0.087320 0.083240 0.984860 1.092950
Cr5   Cr    Cr6+3 0.087720 0.316210 0.996740 1.059412
Cr6   Cr    Cr6+3 0.317350 0.090340 0.995890 1.122180
H1    H     H_    0.736310 0.236002 0.399404 0.137966
H2    H     H_    0.205437 0.814226 0.325320 0.146326
H3    H     H_    0.203740 0.824313 0.151754 0.142697
H4    H     H_    0.517576 0.225317 0.594228 0.150029
H5    H     H_    0.150371 0.455622 0.831207 0.149329
H6    H     H_    0.469349 0.220021 0.840007 0.169395
H7    H     H_    0.905978 0.151107 0.799669 0.124428
H8    H     H_    0.781392 0.215730 0.672647 0.125550
H9    H     H_    0.732177 0.245635 0.601105 0.141403
H10   H     H_    0.784225 0.511957 0.615742 0.175958
H11   H     H_    0.458269 0.878219 0.818583 0.133378
H12   H     H_    0.863669 0.444896 0.090519 0.139551
H13   H     H_    0.157190 0.886353 0.875567 0.146487
H14   H     H_    0.266921 0.531623 0.385740 0.142558
H15   H     H_    0.127757 0.398634 0.107761 0.136374
H16   H     H_    0.784817 0.504611 0.409945 0.137505
H17   H     H_    0.541010 0.162893 0.116950 0.328711
H18   H     H_    0.112245 0.848166 0.092591 0.323843
H19   H     H_    0.548032 0.243195 0.177629 0.241534
H20   H     H_    0.532119 0.137452 0.182261 0.250059
H21   H     H_    0.574085 0.800452 0.364215 0.319171
H22   H     H_    0.471034 0.863705 0.055215 0.336851
H23   H     H_    0.835734 0.468657 0.340897 0.145180
H24   H     H_    0.570752 0.788926 0.149695 0.259588
H25   H     H_    0.509071 0.917081 0.163720 0.272967
H26   H     H_    0.164252 0.576142 0.598604 0.344092
H27   H     H_    0.051222 0.496174 0.884500 0.235853
H28   H     H_    0.117524 0.498146 0.928512 0.235205
H29   H     H_    0.105129 0.499969 0.631351 0.342720
H30   H     H_    0.524308 0.114421 0.650653 0.245938
H31   H     H_    0.575387 0.192835 0.668968 0.233164
H32   H     H_    0.475339 0.106387 0.326099 0.340292
H33   H     H_    0.472455 0.213904 0.943739 0.341657
H34   H     H_    0.787356 0.199987 0.330158 0.144516
H35   H     H_    0.976510 0.050678 0.852409 0.321756
H36   H     H_    0.812422 0.541061 0.836052 0.337187
H37   H     H_    0.765055 0.530386 0.893096 0.338301
H38   H     H_    0.442619 0.129929 0.392203 0.235559
H39   H     H_    0.549889 0.140623 0.384656 0.235375
H40   H     H_    0.864696 0.475373 0.719343 0.354693
H41   H     H_    0.502032 0.924251 0.881353 0.337560
H42   H     H_    0.596424 0.673863 0.688789 0.358758
H43   H     H_    0.604361 0.723037 0.631524 0.340511
H44   H     H_    0.126896 0.871200 0.602225 0.365377
H45   H     H_    0.811296 0.464616 0.158701 0.145032
H46   H     H_    0.117643 0.836054 0.812891 0.326637
H47   H     H_    0.152163 0.963280 0.687525 0.244419
H48   H     H_    0.156693 0.848208 0.693374 0.269970
H49   H     H_    0.065078 0.472086 0.167943 0.329150
H50   H     H_    0.192450 0.603486 0.325686 0.229134
H51   H     H_    0.151109 0.531235 0.295006 0.253626
H52   H     H_    0.942323 0.121150 0.083960 0.157619
H53   H     H_    0.889621 0.140946 0.152425 0.142580
H54   H     H_    0.220005 0.763936 0.393475 0.142735
H55   H     H_    0.517025 0.757546 0.415330 0.117409
N1    N     N_R   0.829448 0.395782 0.227936 -0.213253
N2    N     N_R   0.406602 0.860753 0.270959 -0.125072
N3    N     N_R   0.405414 0.865379 0.231246 -0.161372
N4    N     N_R   0.253705 0.424264 0.766958 -0.209841
N5    N     N_3   0.499377 0.217881 0.187383 -0.616325
N6    N     N_3   0.507220 0.847232 0.164383 -0.561329
N7    N     N_3   0.107124 0.448741 0.905829 -0.557971
N8    N     N_3   0.508532 0.184240 0.667076 -0.584735
N9    N     N_3   0.475781 0.179266 0.395538 -0.606379
N10   N     N_3   0.162157 0.893437 0.672575 -0.634400
N11   N     N_3   0.217611 0.536224 0.306560 -0.596803
N12   N     N_R   0.258322 0.424202 0.727344 -0.136336
N13   N     N_R   0.380697 0.248844 0.726060 -0.175829
N14   N     N_R   0.377025 0.248971 0.765670 -0.223497
N15   N     N_R   0.823853 0.401467 0.267661 -0.214408
N16   N     N_R   0.831546 0.238772 0.263042 -0.221354
N17   N     N_R   0.837568 0.232893 0.223235 -0.225183
N18   N     N_R   0.295513 0.791039 0.220435 -0.230943
N19   N     N_R   0.296419 0.786695 0.260038 -0.232937
O1    O     O_R   0.679450 0.499830 0.463150 -0.518096
O2    O     O_R   0.340240 0.172500 0.045430 -0.427901
O3    O     O_R   0.309670 0.000990 0.032050 -0.499285
O4    O     O_R   0.480650 0.664000 0.464630 -0.506624
O5    O     O_R   0.168330 0.982130 0.939200 -0.503975
O6    O     O_R   0.000140 0.178170 0.944610 -0.448669
O7    O     O_R   0.983010 0.336750 0.948660 -0.442933
O8    O     O_R   0.181800 0.312190 0.959860 -0.473996
O9    O     O_R   0.338500 0.175680 0.956950 -0.472917
O10   O     O_R   0.308050 0.003930 0.950020 -0.434823
O11   O     O_3   0.164130 0.163270 0.992500 -0.287925
O12   O     O_R   0.356040 0.477400 0.534170 -0.432811
O13   O     O_R   0.323930 0.675950 0.455370 -0.518410
O14   O     O_R   0.354700 0.475360 0.451930 -0.515675
O15   O     O_R   0.494470 0.320860 0.448390 -0.472916
O16   O     O_R   0.662580 0.357570 0.460050 -0.503433
O17   O     O_R   0.680900 0.502040 0.551870 -0.483139
O18   O     O_R   0.481990 0.666040 0.546870 -0.448655
O19   O     O_R   0.325370 0.678160 0.544080 -0.447495
O20   O     O_3   0.475775 0.187714 0.099615 -0.659332
O21   O     O_3   0.148836 0.870202 0.075787 -0.666968
O22   O     O_3   0.519813 0.811377 0.342015 -0.669078
O23   O     O_R   0.495910 0.323070 0.537100 -0.536220
O24   O     O_3   0.470416 0.890220 0.083791 -0.675040
O25   O     O_3   0.206372 0.518804 0.579363 -0.674417
O26   O     O_3   0.158406 0.476158 0.654249 -0.667682
O27   O     O_3   0.435279 0.163624 0.307976 -0.679033
O28   O     O_3   0.478283 0.188456 0.914952 -0.659444
O29   O     O_3   0.972135 0.100739 0.875401 -0.668452
O30   O     O_3   0.790022 0.497162 0.817705 -0.683210
O31   O     O_3   0.828519 0.470168 0.903696 -0.678695
O32   O     O_3   0.840670 0.498203 0.691518 -0.674495
O33   O     O_3   0.445792 0.931656 0.897412 -0.645946
O34   O     O_R   0.663920 0.359620 0.542290 -0.504931
O35   O     O_3   0.536012 0.736603 0.699394 -0.675486
O36   O     O_3   0.561991 0.696329 0.614396 -0.682953
O37   O     O_3   0.192657 0.831627 0.588741 -0.661058
O38   O     O_3   0.172354 0.832561 0.796952 -0.688327
O39   O     O_3   0.127794 0.442561 0.186890 -0.683728
O40   O     O_3   0.500010 0.500010 0.500010 -0.269768
O41   O     O_R   0.170070 0.978950 0.027680 -0.444323
O42   O     O_R   0.001760 0.175230 0.026640 -0.501237
O43   O     O_R   0.984760 0.333570 0.037150 -0.519482
O44   O     O_R   0.183410 0.309240 0.041890 -0.528355

loop_
_geom_bond_atom_site_label_1
_geom_bond_atom_site_label_2
_ccdc_geom_bond_type
C59   O32   S    
C66   C68   A    
C63   C65   A    
C22   C29   A    
C27   C29   A    
C18   C21   A    
C19   H53   S    
C41   C42   A    
C30   N18   A    
H21   O22   S    
C35   C36   A    
H47   N10   S    
C96   O5    A    
Cr2   O14   S    
C81   C82   A    
H36   O30   S    
C7    C8    A    
H41   O33   S    
H35   O29   S    
N16   N17   A    
C16   O1    A    
C30   N3    A    
H19   N5    S    
C67   C78   A    
C12   C23   A    
H39   N9    S    
Cr6   O10   S    
C58   H10   S    
C36   C37   A    
C10   H34   S    
C18   C19   A    
C14   N16   A    
H31   N8    S    
N2    N3    A    
C85   C86   S    
Cr3   O16   S    
C1    O4    A    
C95   O8    A    
C65   O29   S    
N13   N14   A    
C28   C73   S    
C49   C54   A    
C28   O19   A    
C44   N8    S    
C93   O41   A    
H17   O20   S    
C73   C74   A    
Cr1   O17   S    
H30   N8    S    
C92   O44   A    
H29   O26   S    
C15   H45   S    
Cr2   O12   S    
C3    C12   S    
C16   O16   A    
C56   O20   S    
C34   N9    S    
C66   C72   A    
C62   H9    S    
C63   C69   A    
C45   C56   A    
C84   O38   S    
C8    C9    A    
C88   N11   S    
Cr1   O40   S    
C50   C55   A    
C17   H12   S    
C36   N6    S    
C28   O18   A    
C70   C71   T    
H40   O32   S    
Cr4   O6    S    
C9    C10   A    
C76   C88   A    
C1    C22   S    
C61   C62   A    
Cr5   O7    S    
C5    C67   A    
C80   O36   S    
H43   O36   S    
N4    N12   A    
C14   N15   A    
Cr4   O42   S    
C59   C60   A    
H49   O39   S    
C52   O34   A    
Cr6   O3    S    
C7    H16   S    
C4    O15   A    
C4    C64   S    
C15   C20   A    
C27   O22   S    
Cr2   O13   S    
C61   H8    S    
H50   N11   S    
C44   C46   A    
C35   O24   S    
C31   N19   A    
C77   C79   A    
C78   C89   A    
C93   O3    A    
C13   N17   A    
Cr6   O9    S    
C74   C75   A    
C12   C88   A    
C50   N7    S    
H44   O37   S    
C83   H13   S    
H32   O27   S    
Cr4   O11   S    
C24   C25   A    
C49   H5    S    
C52   C57   S    
C6    C11   A    
C45   N5    S    
C86   C87   T    
C68   C69   A    
Cr1   O4    S    
C29   H55   S    
C60   C71   S    
C57   C62   A    
C25   C26   A    
C53   C54   A    
C17   C21   A    
C48   N12   A    
H27   N7    S    
C23   O27   S    
C60   C61   A    
C51   C53   A    
Cr1   O18   S    
C63   H7    S    
C2    C89   S    
C79   O35   S    
C9    C14   S    
C96   O10   A    
C4    O14   A    
C67   H15   S    
Cr5   O43   S    
Cr1   O1    S    
C83   C84   A    
C33   O21   S    
C23   C34   A    
C35   C38   A    
C34   C64   A    
H18   O21   S    
C64   C76   A    
C32   C37   A    
C84   C85   A    
Cr4   O5    S    
C75   C77   A    
C77   C87   S    
C6    C7    A    
Cr5   O8    S    
H37   O31   S    
C47   C54   S    
C48   N13   A    
C92   O2    A    
C55   C95   S    
H38   N9    S    
Cr4   O41   S    
C5    C56   A    
C32   H3    S    
C39   C46   A    
C74   O37   S    
C26   C27   A    
C43   C44   A    
Cr6   O2    S    
C22   C24   A    
C42   O26   S    
C42   C43   A    
C41   O25   S    
H24   N6    S    
C13   N1    A    
C39   C40   S    
C45   C89   A    
C51   O28   S    
C95   O9    A    
C21   C91   S    
H28   N7    S    
C15   C17   A    
C83   C90   A    
Cr2   O40   S    
H25   N6    S    
C13   C20   S    
C52   O17   A    
C33   C38   A    
C18   H52   S    
C78   O39   S    
C47   N14   A    
C25   H2    S    
C90   C96   S    
H33   O28   S    
C40   O12   A    
C40   O23   A    
C65   C72   A    
C11   H1    S    
H22   O24   S    
Cr6   O11   S    
C82   C90   A    
H20   N5    S    
C43   C48   S    
C32   C33   A    
C82   O33   S    
C19   C20   A    
C2    C3    T    
C58   C59   A    
C72   C94   S    
H51   N11   S    
N18   N19   A    
C30   C37   S    
Cr3   O15   S    
C66   O31   S    
C53   H6    S    
N1    N15   A    
C57   C58   A    
C68   O30   S    
C91   O42   A    
Cr3   O23   S    
H48   N10   S    
C46   H4    S    
C38   C93   S    
C76   H14   S    
C73   C80   A    
Cr2   O19   S    
C51   C55   A    
H26   O25   S    
C91   O43   A    
C69   C70   S    
C81   C85   A    
C5    C92   S    
C10   C11   A    
C6    C16   S    
C79   C80   A    
C47   N4    A    
Cr5   O44   S    
C8    H23   S    
C26   C31   S    
C39   C41   A    
C49   C50   A    
Cr3   O40   S    
C81   H11   S    
C75   N10   S    
C94   O6    A    
C94   O7    A    
Cr5   O11   S    
H46   O38   S    
H42   O35   S    
C31   N2    A    
C24   H54   S    
Cr3   O34   S    
C1    O13   A    
