data_mof_unit_pretest_465.cif
_audit_creation_date              2012-12-10T16:51:13-0500
_audit_creation_method            fapswitch 2.2
_symmetry_space_group_name_H-M    P1
_symmetry_Int_Tables_number       1
_space_group_crystal_system       triclinic
_cell_length_a                    27.781509
_cell_length_b                    8.718217
_cell_length_c                    7.419884
_cell_angle_alpha                 102.530702
_cell_angle_beta                  93.97846
_cell_angle_gamma                 92.440769
_cell_volume                      1747.0308764

loop_
_atom_site_label
_atom_site_type_symbol
_atom_type_description
_atom_site_fract_x
_atom_site_fract_y
_atom_site_fract_z
_atom_type_partial_charge
C1    C     C_R   0.497798 0.200308 0.454775 0.873783
C2    C     C_R   0.502202 0.799692 0.545225 0.873782
C3    C     C_R   0.102292 0.502715 0.513954 -0.040967
C4    C     C_R   0.897708 0.497314 0.486049 -0.040959
C5    C     C_R   0.126688 0.374465 0.554819 -0.028031
C6    C     C_R   0.873312 0.625533 0.445105 -0.028044
C7    C     C_R   0.100229 0.246117 0.590039 -0.143582
C8    C     C_R   0.899769 0.753849 0.409804 -0.143602
C9    C     C_R   0.129379 0.631968 0.479117 -0.032235
C10   C     C_R   0.870622 0.368092 0.520962 -0.032240
C11   C     C_R   0.354725 0.500216 0.509633 -0.106748
C12   C     C_R   0.645275 0.499792 0.490367 -0.106745
C13   C     C_R   0.972965 0.368142 0.535027 0.044227
C14   C     C_R   0.027036 0.631900 0.465011 0.044236
C15   C     C_R   0.975716 0.630344 0.457476 0.045135
C16   C     C_R   0.024284 0.369672 0.542495 0.045145
C17   C     C_R   0.949029 0.498562 0.492759 0.073109
C18   C     C_R   0.050972 0.501467 0.507245 0.073099
C19   C     C_R   0.944410 0.240117 0.568411 -0.210163
C20   C     C_R   0.055592 0.759969 0.431739 -0.210138
C21   C     C_R   0.894386 0.240477 0.561437 -0.132285
C22   C     C_R   0.105617 0.759617 0.438728 -0.132272
C23   C     C_R   0.407509 0.499901 0.502886 0.833235
C24   C     C_R   0.592491 0.500099 0.497114 0.833235
C25   C     C_R   0.050169 0.243479 0.584338 -0.208905
C26   C     C_R   0.949829 0.756492 0.415522 -0.208930
C27   C     C_2   0.490117 0.034919 0.435039 0.093084
C28   C     C_2   0.509883 0.965081 0.564961 0.093084
C29   C     C_R   0.177292 0.377236 0.558423 0.595138
C30   C     C_R   0.822707 0.622762 0.441499 0.595164
C31   C     C_R   0.179926 0.630152 0.484547 0.601635
C32   C     C_R   0.820076 0.369908 0.515530 0.601610
C33   C     C_R   0.284119 0.541504 0.686445 0.435211
C34   C     C_R   0.715881 0.458507 0.313553 0.435206
C35   C     C_R   0.334220 0.539706 0.680432 -0.231839
C36   C     C_R   0.665781 0.460295 0.319570 -0.231854
C37   C     C_R   0.324367 0.461474 0.344900 -0.138566
C38   C     C_R   0.675632 0.538553 0.655093 -0.138574
C39   C     C_R   0.274412 0.461773 0.350922 -0.112095
C40   C     C_R   0.725587 0.538265 0.649066 -0.112095
C41   C     C_R   0.254121 0.502013 0.520925 0.257321
C42   C     C_R   0.745879 0.498017 0.479066 0.257313
Cu1   Cu    Cu3+1 0.505380 0.517380 0.684380 1.049542
Cu2   Cu    Cu3+1 0.494620 0.482620 0.315620 1.049542
H1    H     H_    0.339147 0.430207 0.211390 0.192395
H2    H     H_    0.660851 0.569825 0.788600 0.192393
H3    H     H_    0.462429 0.378304 0.948534 0.240156
H4    H     H_    0.537571 0.621696 0.051466 0.240156
H5    H     H_    0.251286 0.430841 0.223311 0.200977
H6    H     H_    0.748711 0.569210 0.776673 0.200971
H7    H     H_    0.118152 0.146275 0.622376 0.187895
H8    H     H_    0.881845 0.853658 0.377386 0.187935
H9    H     H_    0.643002 0.429236 0.190993 0.201537
H10   H     H_    0.356999 0.570750 0.809014 0.201533
H11   H     H_    0.874355 0.139682 0.588755 0.193760
H12   H     H_    0.125649 0.860444 0.411490 0.193734
H13   H     H_    0.959295 0.136679 0.601016 0.136473
H14   H     H_    0.040709 0.863450 0.399243 0.136419
H15   H     H_    0.033102 0.139684 0.613864 0.135344
H16   H     H_    0.966895 0.860244 0.385890 0.135396
N1    N     N_R   0.202669 0.503839 0.523356 -0.456402
N2    N     N_R   0.797331 0.496190 0.476639 -0.456397
N3    N     N_2   0.486510 0.456430 0.038510 -0.184398
N4    N     N_2   0.513490 0.543570 0.961490 -0.184398
O1    O     O_R   0.503500 0.286120 0.619780 -0.566210
O2    O     O_R   0.496500 0.713880 0.380220 -0.566211
O3    O     O_R   0.494410 0.256780 0.308360 -0.537726
O4    O     O_R   0.505590 0.743220 0.691640 -0.537727
O5    O     O_R   0.434810 0.514700 0.655690 -0.599004
O6    O     O_R   0.565190 0.485300 0.344310 -0.599003
O7    O     O_R   0.425720 0.485350 0.344280 -0.572266
O8    O     O_R   0.574280 0.514650 0.655720 -0.572267
O9    O     O_2   0.200982 0.254190 0.595394 -0.492803
O10   O     O_2   0.799017 0.745778 0.404451 -0.492818
O11   O     O_2   0.793801 0.246749 0.549074 -0.471487
O12   O     O_2   0.206202 0.753343 0.451080 -0.471472
Cl1   Cl    Cl    0.740362 0.403729 0.098156 -0.573244
Cl2   Cl    Cl    0.259639 0.596267 0.901844 -0.573290
Cl3   Cl    Cl    0.448010 0.939515 0.248766 -0.550957
Cl4   Cl    Cl    0.551990 0.060485 0.751234 -0.550959

loop_
_geom_bond_atom_site_label_1
_geom_bond_atom_site_label_2
_ccdc_geom_bond_type
Cu1   O8    S    
C8    C26   A    
C14   C18   A    
Cu2   O2    S    
C34   C42   A    
C41   N1    S    
C32   O11   S    
C24   O6    A    
C39   C41   A    
C19   H13   S    
C3    C18   A    
C19   C21   A    
C27   Cl3   S    
C34   Cl1   S    
H3    N3    S    
C30   O10   S    
C33   Cl2   S    
H4    N4    S    
C29   O9    S    
Cu2   O7    S    
C11   C37   A    
C31   N1    A    
C36   H9    S    
C1    O3    A    
Cu1   O4    S    
C1    O1    A    
Cu2   O6    S    
C12   C36   A    
C42   N2    S    
C40   C42   A    
Cu2   N3    S    
C35   H10   S    
Cu1   N4    S    
C5    C29   A    
C10   C21   A    
C29   N1    A    
C13   C19   A    
C14   C20   A    
C4    C6    A    
C5    C7    A    
C15   C26   A    
C6    C8    A    
C2    O2    A    
C23   O5    A    
Cu1   Cu2   S    
C3    C9    A    
C23   O7    A    
Cu1   O1    S    
C4    C17   A    
C39   H5    S    
C20   C22   A    
C30   N2    A    
C20   H14   S    
C24   O8    A    
C21   H11   S    
C16   C25   A    
C15   C17   A    
C8    H8    S    
C6    C30   A    
C4    C10   A    
C3    C5    A    
C22   H12   S    
C12   C24   S    
C2    O4    A    
C7    C25   A    
C13   C17   A    
C33   C41   A    
C11   C35   A    
C7    H7    S    
C37   C39   A    
C38   C40   A    
C31   O12   S    
C26   H16   S    
C40   H6    S    
C11   C23   S    
C33   C35   A    
C34   C36   A    
C12   C38   A    
C28   Cl4   S    
C38   H2    S    
C9    C31   A    
C32   N2    A    
N3    N4    D    
C10   C32   A    
C16   C18   A    
C9    C22   A    
C13   C16   A    
C27   C28   D    
C1    C27   S    
C14   C15   A    
Cu2   O3    S    
C2    C28   S    
C25   H15   S    
Cu1   O5    S    
C37   H1    S    
