data_mof_unit_pretest_883.cif
_audit_creation_date              2012-10-26T18:33:58-0400
_audit_creation_method            fapswitch 2.2
_symmetry_space_group_name_H-M    P1
_symmetry_Int_Tables_number       1
_space_group_crystal_system       triclinic
_cell_length_a                    11.075053
_cell_length_b                    10.80997
_cell_length_c                    9.592108
_cell_angle_alpha                 89.079069
_cell_angle_beta                  102.37392
_cell_angle_gamma                 92.440161
_cell_volume                      1120.65425832

loop_
_atom_site_label
_atom_site_type_symbol
_atom_type_description
_atom_site_fract_x
_atom_site_fract_y
_atom_site_fract_z
_atom_type_partial_charge
C1    C     C_R   0.498515 0.262285 0.500372 0.545739
C2    C     C_2   0.871899 0.513765 0.592001 0.190502
C3    C     C_2   0.067551 0.522313 0.509728 -0.122748
C4    C     C_2   0.932713 0.512714 0.485320 -0.114297
C5    C     C_R   0.459267 0.064308 0.371518 -0.131138
C6    C     C_R   0.532442 0.935507 0.628623 -0.130322
C7    C     C_R   0.459035 0.936238 0.370986 -0.145371
C8    C     C_R   0.531233 0.063454 0.629446 -0.137978
C9    C     C_R   0.497540 0.871585 0.499165 0.023916
C10   C     C_R   0.496038 0.128264 0.500707 0.025567
C11   C     C_3   0.333723 0.322487 0.826878 -0.254889
C12   C     C_R   0.499467 0.737683 0.499321 0.542808
C13   C     C_3   0.198216 0.336119 0.840294 -0.299499
C14   C     C_3   0.148936 0.225273 0.915324 -0.409467
C15   C     C_3   0.667494 0.676481 0.172958 -0.231300
C16   C     C_3   0.636116 0.811306 0.127442 -0.328580
C17   C     C_3   0.731625 0.875173 0.053730 -0.439753
C18   C     C_R   0.263067 0.500602 0.441671 0.569064
C19   C     C_R   0.737018 0.503176 0.558114 0.573693
C20   C     C_R   0.425748 0.418971 0.059965 0.040044
C21   C     C_R   0.576774 0.578657 0.940707 0.050887
C22   C     C_R   0.422400 0.419133 0.911250 0.118315
C23   C     C_R   0.576614 0.581765 0.088425 0.125438
C24   C     C_2   0.128246 0.500049 0.406585 0.196203
Cl1   Cl    Cl    0.948026 0.531823 0.772921 -0.615873
Cl2   Cl    Cl    0.051374 0.466367 0.228699 -0.595133
Cu1   Cu    Cu3+1 0.500000 0.500020 0.640660 0.955107
Cu2   Cu    Cu3+1 0.500000 0.499980 0.359340 0.956615
H1    H     H_    0.880862 0.501827 0.376370 0.182496
H2    H     H_    0.204341 0.213965 0.025373 0.154130
H3    H     H_    0.051513 0.239707 0.921382 0.208803
H4    H     H_    0.187631 0.422192 0.897665 0.234894
H5    H     H_    0.138207 0.342994 0.731898 0.183615
H6    H     H_    0.332668 0.324121 0.713277 0.208079
H7    H     H_    0.366702 0.229515 0.864719 0.115857
H8    H     H_    0.824398 0.877691 0.126450 0.178540
H9    H     H_    0.736690 0.826629 0.954389 0.160324
H10   H     H_    0.705141 0.971810 0.025538 0.148921
H11   H     H_    0.542680 0.815830 0.056551 0.162397
H12   H     H_    0.119546 0.545643 0.615945 0.175365
H13   H     H_    0.634858 0.866003 0.224054 0.167769
H14   H     H_    0.673936 0.670239 0.287619 0.199182
H15   H     H_    0.761911 0.656064 0.159331 0.155710
H16   H     H_    0.367926 0.354104 0.105765 0.132405
H17   H     H_    0.638611 0.639651 0.896005 0.140209
H18   H     H_    0.429837 0.113088 0.271199 0.124081
H19   H     H_    0.561820 0.886845 0.729000 0.126696
H20   H     H_    0.428281 0.887941 0.270784 0.131566
H21   H     H_    0.559756 0.111521 0.730137 0.131454
H22   H     H_    0.151717 0.139244 0.854478 0.149207
N1    N     N_R   0.500030 0.500030 0.852080 -0.235470
N2    N     N_R   0.499970 0.499970 0.147920 -0.234088
O1    O     O_R   0.499990 0.319660 0.618740 -0.528113
O2    O     O_R   0.500010 0.680340 0.381260 -0.522389
O3    O     O_R   0.499990 0.319630 0.381170 -0.507591
O4    O     O_R   0.500010 0.680370 0.618830 -0.510492
O5    O     O_R   0.320690 0.500020 0.575130 -0.546603
O6    O     O_R   0.679310 0.499980 0.424870 -0.549857
O7    O     O_R   0.320680 0.499990 0.337560 -0.449083
O8    O     O_R   0.679320 0.500010 0.662440 -0.445562

loop_
_geom_bond_atom_site_label_1
_geom_bond_atom_site_label_2
_ccdc_geom_bond_type
C2    C4    D    
Cu1   O1    S    
C13   H5    S    
C17   H8    S    
Cu2   O6    S    
C19   O8    A    
Cu2   N2    S    
C5    H18   S    
C18   O5    A    
C4    H1    S    
C14   H3    S    
C17   H10   S    
C7    H20   S    
C6    C9    A    
C15   C23   S    
C1    O3    A    
C15   H15   S    
C5    C10   A    
C20   N2    A    
C14   H22   S    
C13   C14   S    
C1    O1    A    
Cu1   N1    S    
C11   C13   S    
C23   N2    A    
C12   O4    A    
C14   H2    S    
C18   C24   S    
C17   H9    S    
C16   H13   S    
C11   H7    S    
C20   H16   S    
Cu2   O3    S    
C24   Cl2   S    
C3    H12   S    
C2    Cl1   S    
C21   H17   S    
Cu1   O8    S    
C21   C23   A    
C19   O6    A    
C9    C12   S    
C6    H19   S    
C20   C22   A    
C16   H11   S    
C3    C4    S    
C18   O7    A    
C21   N1    A    
C8    C10   A    
Cu1   O5    S    
Cu2   O7    S    
Cu1   Cu2   S    
C7    C9    A    
Cu2   O2    S    
C5    C7    A    
C22   N1    A    
C6    C8    A    
C11   C22   S    
C2    C19   S    
Cu1   O4    S    
C13   H4    S    
C8    H21   S    
C11   H6    S    
C12   O2    A    
C1    C10   S    
C15   C16   S    
C15   H14   S    
C3    C24   D    
C16   C17   S    
