data_mof_unit_pretest_1683.cif
_audit_creation_date              2013-03-05T15:53:41-0500
_audit_creation_method            fapswitch 2.2
_symmetry_space_group_name_H-M    P1
_symmetry_Int_Tables_number       1
_space_group_crystal_system       triclinic
_cell_length_a                    8.296128
_cell_length_b                    12.905862
_cell_length_c                    16.416528
_cell_angle_alpha                 96.388703
_cell_angle_beta                  93.10371
_cell_angle_gamma                 98.201987
_cell_volume                      1724.52733891

loop_
_atom_site_label
_atom_site_type_symbol
_atom_site_description
_atom_site_fract_x
_atom_site_fract_y
_atom_site_fract_z
_atom_type_partial_charge
P1    P     P_3+3 0.983580 0.746680 0.563420 0.446938
O1    O     O_2   0.158840 0.763480 0.539220 -0.357218
O2    O     O_3   0.888900 0.629060 0.541050 -0.419161
O3    O     O_3   0.391330 0.697380 0.393380 -0.383022
O4    O     O_2   0.303992 0.873304 0.443543 -0.273705
O5    O     O_3   0.011552 0.776990 0.670304 -0.591997
O6    O     O_3   0.378241 0.846125 0.289635 -0.421001
H1    H     H_    0.517788 0.729166 0.253289 0.030207
C1    C     C_3   0.424060 0.794462 0.149753 -0.792911
H2    H     H_    0.317097 0.730976 0.139828 0.266604
H3    H     H_    0.385676 0.868957 0.133923 0.294911
P2    P     P_3+3 0.350740 0.415080 0.315970 0.548574
P3    P     P_3+3 0.939431 0.629236 0.245408 0.497434
O7    O     O_2   0.182780 0.447540 0.303450 -0.313598
O8    O     O_3   0.969510 0.643060 0.352850 -0.357967
O9    O     O_2   0.042293 0.546151 0.210924 -0.348405
O10   O     O_3   0.316950 0.287988 0.263968 -0.632777
O11   O     O_3   0.029290 0.744328 0.208236 -0.475525
C2    C     C_3   0.912227 0.811658 0.198994 0.432822
H4    H     H_    0.889161 0.850653 0.260065 0.108958
H5    H     H_    0.795176 0.770112 0.168865 -0.031751
C3    C     C_3   0.973992 0.893565 0.143549 -0.790771
H6    H     H_    0.897004 0.957399 0.146847 0.217699
H7    H     H_    0.102607 0.927793 0.162021 0.277693
C4    C     C_3   0.799152 0.309095 0.287001 0.330621
H8    H     H_    0.679894 0.337623 0.290031 -0.072412
H9    H     H_    0.895376 0.374805 0.312542 0.127349
C5    C     C_3   0.828516 0.275743 0.196833 0.804597
H10   H     H_    0.762227 0.193555 0.180554 0.055596
Ba1   Ba    Ba6+2 0.162890 0.552530 0.460820 1.640628
C6    C     C_3   0.037042 0.687119 0.706566 0.389158
H11   H     H_    0.143211 0.654844 0.681544 0.112456
H12   H     H_    0.927120 0.626101 0.695896 0.124935
C7    C     C_3   0.070285 0.718483 0.798726 -0.937251
H13   H     H_    0.186501 0.773963 0.811501 0.284010
H14   H     H_    0.079248 0.647981 0.830448 0.220651
H15   H     H_    0.969085 0.757343 0.823547 0.263182
C8    C     C_3   0.351049 0.215564 0.314899 0.547210
H16   H     H_    0.480216 0.230570 0.338186 0.052356
C9    C     C_3   0.309806 0.105755 0.265430 0.224327
H17   H     H_    0.197570 0.103973 0.224475 0.099983
P4    P     P_3+3 0.826720 0.253310 0.436510 0.570951
O12   O     O_2   0.651450 0.236450 0.460750 -0.359936
O13   O     O_3   0.921400 0.370930 0.458880 -0.389163
O14   O     O_3   0.418970 0.302610 0.606550 -0.314637
O15   O     O_3   0.796530 0.220187 0.329497 -0.542607
P5    P     P_3+3 0.862862 0.366128 0.754407 0.452146
O16   O     O_3   0.377910 0.555000 0.596240 -0.370107
O17   O     O_3   0.840790 0.356930 0.647080 -0.409532
O18   O     O_2   0.739605 0.435767 0.788725 -0.398819
O19   O     O_3   0.797079 0.242376 0.784889 -0.472006
Ba2   Ba    Ba6+2 0.647290 0.447460 0.539110 1.619878
P6    P     P_3+3 0.434457 0.830578 0.391146 0.566044
C10   C     C_3   0.492080 0.807312 0.238858 0.404595
H18   H     H_    0.606934 0.864023 0.246180 0.066077
H19   H     H_    0.518554 0.773114 0.108313 0.192018
O20   O     O_3   0.432390 0.444990 0.403690 -0.371760
C11   C     C_3   0.599618 0.772157 0.668117 0.407549
H20   H     H_    0.716704 0.800713 0.704968 0.099294
H21   H     H_    0.623712 0.717704 0.614139 0.097955
C12   C     C_3   0.535464 0.865891 0.636357 -0.954238
H22   H     H_    0.479050 0.911007 0.685580 0.266410
H23   H     H_    0.635750 0.918994 0.613726 0.212728
H24   H     H_    0.442434 0.837834 0.585082 0.284411
P7    P     P_3+3 0.454932 0.589288 0.698718 0.447277
O21   O     O_2   0.627510 0.552390 0.696520 -0.374566
O22   O     O_3   0.487445 0.726854 0.720182 -0.565963
H25   H     H_    0.968098 0.855994 0.078991 0.236184
C13   C     C_3   0.851631 0.165212 0.730369 0.537663
H26   H     H_    0.791277 0.162110 0.667800 0.095270
H27   H     H_    0.986332 0.181288 0.727761 -0.016256
C14   C     C_3   0.806531 0.057750 0.759744 -0.877076
H28   H     H_    0.851476 0.996292 0.717885 0.187521
H29   H     H_    0.860093 0.057018 0.822794 0.296949
H30   H     H_    0.672629 0.038634 0.761213 0.280865
P8    P     P_3+3 0.370262 0.165854 0.608551 0.503934
C15   C     C_3   0.362517 0.154994 0.767856 0.990543
H31   H     H_    0.282557 0.215647 0.756388 -0.170781
O23   O     O_2   0.477111 0.117237 0.545002 -0.314389
O24   O     O_3   0.451461 0.128656 0.699744 -0.609829
H32   H     H_    0.145410 0.037266 0.740069 0.028812
C16   C     C_3   0.251139 0.055912 0.786055 -0.147160
H33   H     H_    0.319150 0.987577 0.781171 0.126737
C17   C     C_R   0.055006 0.183791 0.546257 -0.365120
C18   C     C_R   0.737849 0.815288 0.467246 -0.470630
C19   C     C_R   0.709063 0.992318 0.437499 -0.128105
C20   C     C_R   0.645790 0.884465 0.433343 0.138593
C21   C     C_R   0.887023 0.850865 0.512016 0.275799
C22   C     C_R   0.947437 0.963062 0.521282 -0.011929
C23   C     C_R   0.856416 0.035258 0.483291 -0.069699
C24   C     C_R   0.913836 0.148210 0.494504 0.334423
C25   C     C_R   0.154212 0.113857 0.574119 0.180079
C26   C     C_R   0.098266 0.005122 0.564473 -0.207537
H34   H     H_    0.641706 0.043251 0.406815 0.221896
H35   H     H_    0.176087 0.954259 0.589255 0.174388
H36   H     H_    0.097612 0.267650 0.557689 0.172676
H37   H     H_    0.688068 0.732469 0.462371 0.163280
C27   C     C_R   0.622954 0.541765 0.269588 -0.485869
C28   C     C_R   0.463306 0.495307 0.245530 0.334649
C29   C     C_R   0.402597 0.492684 0.163110 -0.238697
C30   C     C_R   0.504377 0.535612 0.104756 0.105304
C31   C     C_R   0.667351 0.575839 0.129869 -0.238278
C32   C     C_R   0.725525 0.580277 0.211957 0.227299
C33   C     C_R   0.373987 0.536713 0.856585 -0.301073
C34   C     C_R   0.329641 0.521988 0.771779 0.284792
C35   C     C_R   0.266804 0.491597 0.912226 0.131718
N1    N     N_2   0.455234 0.532878 0.019553 -0.084108
N2    N     N_2   0.309284 0.496605 0.998570 -0.071307
C36   C     C_R   0.179969 0.463210 0.742143 -0.492505
H38   H     H_    0.490910 0.582636 0.878418 0.163199
H39   H     H_    0.749366 0.603512 0.085106 0.142052
C37   C     C_R   0.069179 0.424655 0.796249 0.239355
C38   C     C_R   0.112702 0.437606 0.880939 -0.249953
H40   H     H_    0.280371 0.452934 0.144134 0.186668
H41   H     H_    0.026887 0.405707 0.922506 0.160601
H42   H     H_    0.670936 0.541599 0.332197 0.156267
H43   H     H_    0.145075 0.453527 0.676929 0.159853
O25   O     O_3   0.774948 0.349398 0.147424 -0.656110
C39   C     C_3   0.641464 0.300810 0.092878 -0.290617
H44   H     H_    0.531720 0.280544 0.127184 0.184317
H45   H     H_    0.670438 0.229888 0.054734 0.179832
H46   H     H_    0.613377 0.356875 0.049940 0.178605
O26   O     O_3   0.997728 0.275211 0.190608 -0.600697
C40   C     C_3   0.027664 0.229713 0.111635 -0.052046
H47   H     H_    0.991913 0.277679 0.063329 0.157444
H48   H     H_    0.964798 0.146967 0.098225 0.114358
H49   H     H_    0.160654 0.227991 0.109374 0.178710
N3    N     N_R   0.245172 0.221112 0.381347 0.232043
O27   O     O_R   0.092446 0.185092 0.364856 -0.419478
O28   O     O_R   0.298305 0.270448 0.452834 -0.359018
N4    N     N_R   0.276637 0.028472 0.322633 0.259866
O29   O     O_R   0.361385 0.045486 0.392739 -0.376413
O30   O     O_R   0.133614 0.971354 0.318422 -0.366840
N5    N     N_R   0.442172 0.081189 0.215082 0.188688
O31   O     O_R   0.422168 0.074657 0.135437 -0.436753
O32   O     O_R   0.576381 0.058914 0.248761 -0.445350
O33   O     O_3   0.477670 0.186517 0.836245 -0.595013
C41   C     C_3   0.475764 0.291855 0.868629 -0.012815
H50   H     H_    0.372686 0.296611 0.908405 0.130239
H51   H     H_    0.469466 0.344109 0.819624 0.136770
H52   H     H_    0.590896 0.320630 0.906849 0.155332
N6    N     N_R   0.193208 0.070588 0.868522 0.265327
O34   O     O_R   0.220032 0.005483 0.921024 -0.349061
O35   O     O_R   0.119875 0.150614 0.891120 -0.451809

loop_
_geom_bond_atom_site_label_1
_geom_bond_atom_site_label_2
_geom_bond_distance
_ccdc_geom_bond_type
C30   N1    1.430759 S    
C8    C9    1.536375 S    
C30   C31   1.399741 A    
O3    P6    1.710084 S    
C12   H24   1.103366 S    
C7    H15   1.110923 S    
C2    H4    1.109515 S    
P8    O23   1.543047 D    
C16   N6    1.462541 S    
N3    O27   1.289011 A    
C33   C35   1.422194 A    
H32   C16   1.106732 S    
C5    O26   1.413964 S    
C36   H43   1.082539 S    
O26   C40   1.412210 S    
P5    O17   1.750535 S    
C15   H31   1.120572 S    
C4    C5    1.537178 S    
P3    O11   1.751990 S    
O14   P8    1.757916 S    
C3    H7    1.107368 S    
Ba1   O16   2.768381 S    
C5    H10   1.119604 S    
C2    H5    1.102504 S    
C15   O33   1.417724 S    
C7    H13   1.110829 S    
C17   H36   1.081639 S    
C8    H16   1.100860 S    
O12   Ba2   2.885167 S    
C18   C21   1.395294 A    
C11   H21   1.113437 S    
C27   C32   1.391902 A    
Ba1   O20   2.937257 S    
O11   C2    1.405500 S    
C13   H27   1.111161 S    
P1    O1    1.520088 D    
P4    O15   1.756826 S    
C12   H23   1.107872 S    
O25   C39   1.410993 S    
C37   C38   1.402853 A    
P2    C28   1.840885 S    
Ba1   Ba2   4.585146 S    
C19   H34   1.070570 S    
P5    C37   1.833140 S    
C31   C32   1.398832 A    
C28   C29   1.413053 A    
P7    O22   1.750091 S    
P2    O10   1.740401 S    
N1    N2    1.249445 D    
C6    H12   1.108843 S    
C17   C24   1.398672 A    
O16   P7    1.752607 S    
P3    C32   1.829567 S    
C1    H2    1.110173 S    
O13   Ba2   2.925281 S    
P1    C21   1.910076 S    
C18   C20   1.396152 A    
O5    C6    1.397985 S    
C26   H35   1.079423 S    
Ba1   O13   2.853846 S    
C31   H39   1.083382 S    
C13   H26   1.112125 S    
P4    O13   1.600194 S    
O7    Ba1   2.805076 S    
C14   H30   1.105216 S    
P7    C34   1.839196 S    
C33   C34   1.405505 A    
P5    O18   1.543596 D    
C39   H45   1.113197 S    
C35   C38   1.406717 A    
P1    O5    1.750133 S    
C2    C3    1.522682 S    
C29   H40   1.081769 S    
C14   H29   1.105654 S    
C19   C23   1.407518 A    
C36   C37   1.391989 A    
H1    C10   1.108086 S    
C19   C20   1.408605 A    
C25   C26   1.402341 A    
P5    O19   1.748656 S    
O14   Ba2   2.825894 S    
C4    H8    1.105480 S    
C9    N5    1.459063 S    
C16   H33   1.110720 S    
P1    O2    1.600194 S    
O2    Ba1   2.924433 S    
N5    O32   1.299254 A    
C27   H42   1.082282 S    
C6    H11   1.106261 S    
C39   H44   1.111250 S    
O17   Ba2   2.787780 S    
C6    C7    1.521719 S    
P6    C20   1.857625 S    
C1    H19   1.109484 S    
C1    H3    1.107825 S    
C3    H25   1.110844 S    
C41   H51   1.109488 S    
P8    C25   1.856110 S    
C40   H49   1.109235 S    
P2    O20   1.541970 S    
C9    H17   1.114538 S    
C9    N4    1.452765 S    
P2    O7    1.521202 D    
P7    O21   1.572966 D    
P3    O8    1.753505 S    
N6    O35   1.301107 A    
P4    O12   1.520411 D    
O6    P6    1.746944 S    
N4    O29   1.295836 A    
C13   C14   1.521941 S    
Ba2   O21   2.805183 S    
Ba2   O20   2.767787 S    
O8    Ba1   2.787182 S    
C40   H48   1.112308 S    
C39   H46   1.103887 S    
O4    P6    1.543045 D    
C34   C36   1.392001 A    
C10   H18   1.107736 S    
P2    Ba1   3.388415 S    
N6    O34   1.300830 A    
P8    O24   1.751710 S    
C14   H28   1.109595 S    
N4    O30   1.298557 A    
C41   H52   1.107220 S    
N3    O28   1.294060 A    
C8    N3    1.439074 S    
O2    Ba2   2.854429 S    
N5    O31   1.300836 A    
C4    H9    1.106210 S    
C17   C25   1.401515 A    
O33   C41   1.406155 S    
O1    Ba1   2.884543 S    
C11   H20   1.109032 S    
C5    O25   1.418498 S    
C33   H38   1.082439 S    
C15   O24   1.409481 S    
C23   C24   1.455490 A    
C35   N2    1.434091 S    
C15   C16   1.534929 S    
C11   C12   1.520708 S    
P1    Ba1   3.424015 S    
C7    H14   1.106866 S    
O10   C8    1.369859 S    
C22   C26   1.409827 A    
C12   H22   1.106815 S    
C18   H37   1.082055 S    
C41   H50   1.108130 S    
C11   O22   1.407307 S    
O16   Ba2   2.936413 S    
C21   C22   1.451444 A    
C27   C28   1.390592 A    
P3    O9    1.541686 D    
C3    H6    1.110635 S    
C29   C30   1.417696 A    
C1    C10   1.521719 S    
O19   C13   1.404190 S    
O6    C10   1.401780 S    
C22   C23   1.451357 A    
C4    O15   1.405860 S    
O3    Ba1   2.826491 S    
P4    C24   1.939385 S    
P4    Ba2   3.424580 S    
C40   H47   1.111856 S    
C38   H41   1.083267 S    
