data_mof_unit_pretest_1232.cif
_audit_creation_date              2012-12-11T15:10:49-0500
_audit_creation_method            fapswitch 2.2
_symmetry_space_group_name_H-M    P1
_symmetry_Int_Tables_number       1
_space_group_crystal_system       triclinic
_cell_length_a                    21.151259
_cell_length_b                    7.237136
_cell_length_c                    18.28326
_cell_angle_alpha                 90.179444
_cell_angle_beta                  93.337052
_cell_angle_gamma                 90.171403
_cell_volume                      2793.92822643

loop_
_atom_site_label
_atom_site_type_symbol
_atom_type_description
_atom_site_fract_x
_atom_site_fract_y
_atom_site_fract_z
_atom_type_partial_charge
O1    O     O_R   0.448880 0.506250 0.415280 -0.528742
O2    O     O_R   0.551120 0.006250 0.584720 -0.525591
O3    O     O_R   0.434830 0.174000 0.557310 -0.521351
O4    O     O_R   0.565170 0.674000 0.442690 -0.525725
C1    C     C_R   0.417193 0.344500 0.579942 0.754838
C2    C     C_R   0.582725 0.844539 0.419969 0.759970
O5    O     O_R   0.441680 0.176440 0.414130 -0.530574
O6    O     O_R   0.558320 0.676440 0.585870 -0.534633
O7    O     O_R   0.558020 0.007570 0.440520 -0.515367
O8    O     O_R   0.441980 0.507570 0.559480 -0.524099
C3    C     C_R   0.427661 0.344547 0.388620 0.803907
C4    C     C_R   0.572070 0.845456 0.611569 0.805198
O9    O     O_3   0.538160 0.339670 0.508820 -0.371102
O10   O     O_3   0.461840 0.839670 0.491180 -0.373847
V1    V     V_3+5 0.492920 0.064260 0.498360 1.494110
V2    V     V_3+5 0.507080 0.564260 0.501640 1.463515
C5    C     C_R   0.883328 0.926793 0.685911 0.436726
C6    C     C_R   0.121511 0.512434 0.311645 0.433921
H1    H     H_    0.969646 0.947170 0.754793 0.108657
H2    H     H_    0.036493 0.551251 0.242161 0.110346
C7    C     C_R   0.888711 0.938837 0.818962 -0.080223
C8    C     C_R   0.111403 0.445046 0.181159 -0.082868
C9    C     C_R   0.582314 0.854446 0.747796 0.216935
C10   C     C_R   0.415413 0.310608 0.253259 0.219314
C11   C     C_R   0.618224 0.882726 0.814047 0.415960
C12   C     C_R   0.377719 0.295217 0.187635 0.414143
C13   C     C_R   0.683531 0.904654 0.814103 -0.195946
C14   C     C_R   0.312804 0.324583 0.187319 -0.195153
C15   C     C_R   0.716713 0.898113 0.749303 -0.040364
C16   C     C_R   0.281792 0.369373 0.251388 -0.039224
C17   C     C_R   0.680733 0.876374 0.681078 -0.028683
C18   C     C_R   0.319182 0.381079 0.319135 -0.029645
C19   C     C_R   0.784639 0.913339 0.751103 0.017851
C20   C     C_R   0.214841 0.405704 0.249137 0.018228
C21   C     C_R   0.815817 0.919886 0.683875 -0.011440
C22   C     C_R   0.185853 0.453670 0.315148 -0.009119
C23   C     C_R   0.778744 0.916362 0.616647 0.134615
C24   C     C_R   0.222047 0.443784 0.382699 0.135809
C25   C     C_R   0.713292 0.878053 0.615436 0.277824
C26   C     C_R   0.288266 0.420701 0.384204 0.274763
C27   C     C_R   0.822779 0.922078 0.818133 -0.181796
C28   C     C_R   0.175514 0.396895 0.182931 -0.181320
C29   C     C_R   0.918370 0.940242 0.753332 -0.257418
C30   C     C_R   0.085383 0.505869 0.244833 -0.255058
C31   C     C_R   0.612888 0.855308 0.680597 -0.190047
C32   C     C_R   0.386547 0.350105 0.319769 -0.191116
H3    H     H_    0.803314 0.913624 0.871083 0.103449
H4    H     H_    0.192888 0.356412 0.131158 0.105356
H5    H     H_    0.706763 0.929300 0.867126 0.152943
H6    H     H_    0.288153 0.311942 0.134456 0.152467
C33   C     C_1   0.864627 0.938922 0.132231 -0.193567
C34   C     C_1   0.135357 0.438999 0.867732 -0.193223
C35   C     C_1   0.821809 0.924899 0.176039 0.019038
C36   C     C_1   0.178150 0.424952 0.823895 0.019318
C37   C     C_1   0.771250 0.905821 0.228171 0.027652
C38   C     C_1   0.228676 0.405813 0.771729 0.028029
C39   C     C_1   0.728640 0.889205 0.272111 0.038324
C40   C     C_1   0.271262 0.389143 0.727764 0.038345
C41   C     C_1   0.677983 0.870064 0.324098 0.037997
C42   C     C_1   0.321899 0.369951 0.675756 0.038638
C43   C     C_1   0.635035 0.855969 0.367719 -0.167765
C44   C     C_1   0.364845 0.355839 0.632137 -0.163832
O11   O     O_R   0.058070 0.289240 0.940580 -0.520531
O12   O     O_R   0.941930 0.789240 0.059420 -0.520796
O13   O     O_R   0.058330 0.616740 0.085880 -0.532480
O14   O     O_R   0.941670 0.116740 0.914120 -0.531520
C45   C     C_R   0.071885 0.449186 0.111799 0.706643
C46   C     C_R   0.928041 0.948194 0.888331 0.706516
O15   O     O_R   0.065180 0.619040 0.942700 -0.522253
O16   O     O_R   0.934820 0.119040 0.057300 -0.522055
O17   O     O_R   0.948870 0.787780 0.915270 -0.529591
O18   O     O_R   0.051130 0.287780 0.084730 -0.529696
C47   C     C_R   0.083167 0.450343 0.920155 0.705807
C48   C     C_R   0.916839 0.950315 0.079835 0.704276
O19   O     O_3   0.961870 0.453310 0.991210 -0.366134
O20   O     O_3   0.038130 0.953310 0.008790 -0.366584
V3    V     V_3+5 0.007070 0.728770 0.001630 1.433640
V4    V     V_3+5 0.992930 0.228770 0.998370 1.435297
I1    I     I_    0.814006 0.003844 0.513889 -0.286431
I2    I     I_    0.179200 0.420044 0.486484 -0.281720
O21   O     O_3   0.915028 0.908195 0.622419 -0.605730
H7    H     H_    0.961418 0.914600 0.633761 0.309754
O22   O     O_3   0.095715 0.589724 0.372251 -0.607239
H8    H     H_    0.050982 0.624304 0.360209 0.308780
O23   O     O_3   0.517439 0.831719 0.751123 -0.651816
H9    H     H_    0.498324 0.782987 0.704368 0.278999
O24   O     O_3   0.480026 0.283019 0.250208 -0.650957
H10   H     H_    0.503110 0.333958 0.294348 0.277670
O25   O     O_3   0.591325 0.889757 0.881167 -0.629532
H11   H     H_    0.544876 0.873542 0.874677 0.346218
O26   O     O_3   0.402557 0.253264 0.121270 -0.629859
H12   H     H_    0.448809 0.233876 0.127975 0.345836
O27   O     O_3   0.680350 0.846206 0.549340 -0.652646
H13   H     H_    0.707928 0.776314 0.517196 0.304399
O28   O     O_3   0.323067 0.432169 0.450147 -0.651114
H14   H     H_    0.304734 0.530321 0.480212 0.305499

loop_
_geom_bond_atom_site_label_1
_geom_bond_atom_site_label_2
_ccdc_geom_bond_type
C10   O24   S    
O14   C46   A    
O24   H10   S    
O27   H13   S    
C9    C31   A    
O16   V4    S    
O12   V3    S    
O15   V3    S    
O28   H14   S    
O1    C3    A    
C33   C48   S    
O2    C4    A    
C2    O7    A    
O21   H7    S    
O23   H9    S    
O5    C3    A    
C23   I1    S    
C2    C43   S    
C21   C23   A    
C10   C12   A    
C39   C41   S    
C13   C15   A    
C40   C42   S    
C15   C19   A    
C42   C44   T    
C45   O18   A    
C25   O27   S    
O18   V4    S    
C7    C29   A    
C14   H6    S    
C8    C30   A    
H1    C29   S    
O13   C45   A    
C20   C28   A    
O16   C48   A    
O15   C47   A    
C38   C40   T    
C20   C22   A    
O5    V1    S    
O6    V2    S    
C24   C26   A    
H2    C30   S    
C34   C36   T    
C35   C37   S    
O14   V4    S    
C36   C38   S    
C41   C43   T    
O13   V3    S    
C16   C20   A    
O20   V3    S    
O4    C2    A    
C34   C47   S    
O26   H12   S    
C11   O25   S    
O11   C47   A    
C12   O26   S    
C33   C35   T    
O4    V2    S    
C5    C29   A    
C6    C30   A    
O22   H8    S    
O6    C4    A    
C6    O22   S    
C27   H3    S    
O1    V2    S    
C28   H4    S    
O2    V1    S    
C7    C27   A    
C37   C39   T    
C7    C46   S    
C9    O23   S    
C26   O28   S    
O17   V3    S    
O3    V1    S    
C18   C32   A    
C4    C31   S    
O3    C1    A    
C11   C13   A    
C12   C14   A    
C19   C27   A    
C22   C24   A    
O7    V1    S    
C10   C32   A    
C1    O8    A    
C23   C25   A    
O8    V2    S    
C16   C18   A    
C8    C28   A    
C24   I2    S    
C46   O17   A    
C14   C16   A    
C19   C21   A    
C17   C25   A    
C1    C44   S    
C5    O21   S    
C18   C26   A    
O19   V4    S    
C8    C45   S    
C9    C11   A    
C15   C17   A    
C17   C31   A    
O9    V2    S    
O12   C48   A    
O10   V1    S    
C3    C32   S    
C5    C21   A    
O25   H11   S    
C6    C22   A    
C13   H5    S    
O11   V4    S    
