data_mof_unit_pretest_1666.cif
_audit_creation_date              2012-12-10T18:32:06-0500
_audit_creation_method            fapswitch 2.2
_symmetry_space_group_name_H-M    P1
_symmetry_Int_Tables_number       1
_space_group_crystal_system       triclinic
_cell_length_a                    23.531388
_cell_length_b                    22.200798
_cell_length_c                    27.848319
_cell_angle_alpha                 89.759831
_cell_angle_beta                  90.507033
_cell_angle_gamma                 89.995529
_cell_volume                      14547.6984911

loop_
_atom_site_label
_atom_site_type_symbol
_atom_type_description
_atom_site_fract_x
_atom_site_fract_y
_atom_site_fract_z
_atom_type_partial_charge
C1    C     C_R   0.390687 0.499994 0.499925 0.840166
C2    C     C_R   0.609312 0.499990 0.500075 0.841187
C3    C     C_R   0.499012 0.498561 0.253293 0.111604
C4    C     C_R   0.500519 0.501526 0.746700 0.114093
C5    C     C_R   0.498898 0.497904 0.101778 -0.039022
C6    C     C_R   0.500145 0.502164 0.898176 -0.038880
C7    C     C_R   0.449043 0.512087 0.126955 -0.052797
C8    C     C_R   0.551136 0.493162 0.873087 -0.052311
C9    C     C_R   0.399728 0.527155 0.101446 -0.103862
C10   C     C_R   0.601619 0.483790 0.898689 -0.103678
C11   C     C_R   0.548521 0.482888 0.127826 -0.050950
C12   C     C_R   0.449452 0.512010 0.872040 -0.050339
C13   C     C_R   0.499778 0.500380 0.354148 -0.306188
C14   C     C_R   0.500190 0.499636 0.645861 -0.306015
C15   C     C_R   0.448195 0.511742 0.973958 0.041892
C16   C     C_R   0.550306 0.486053 0.025956 0.041689
C17   C     C_R   0.551128 0.489515 0.974969 0.042347
C18   C     C_R   0.448331 0.512782 0.025020 0.042394
C19   C     C_R   0.499825 0.501170 0.949252 0.085915
C20   C     C_R   0.499169 0.498883 0.050701 0.086081
C21   C     C_R   0.397951 0.520581 0.946451 -0.170014
C22   C     C_R   0.598956 0.469715 0.053333 -0.170376
C23   C     C_R   0.499980 0.500166 0.407202 0.925272
C24   C     C_R   0.500053 0.499835 0.592801 0.924913
C25   C     C_R   0.398722 0.520807 0.896599 -0.101768
C26   C     C_R   0.597995 0.468367 0.103172 -0.101277
C27   C     C_R   0.399279 0.527663 0.051584 -0.169740
C28   C     C_R   0.601774 0.482135 0.948537 -0.169905
C29   C     C_R   0.879779 0.502188 0.457058 0.595339
C30   C     C_R   0.120220 0.501728 0.542937 0.595250
C31   C     C_R   0.880906 0.501736 0.542874 0.596337
C32   C     C_R   0.119094 0.502232 0.457121 0.596275
C33   C     C_R   0.940475 0.502337 0.543699 -0.084197
C34   C     C_R   0.059524 0.502835 0.456296 -0.084161
C35   C     C_R   0.969975 0.502679 0.499894 -0.088493
C36   C     C_R   0.030024 0.502683 0.500101 -0.088492
C37   C     C_R   0.939557 0.502813 0.455930 -0.137407
C38   C     C_R   0.060442 0.502331 0.544065 -0.137412
C39   C     C_R   0.971005 0.502322 0.587211 -0.196621
C40   C     C_R   0.028995 0.503300 0.412784 -0.196649
C41   C     C_R   0.030264 0.502319 0.587584 0.669480
C42   C     C_R   0.969736 0.503292 0.412411 0.669461
C43   C     C_R   0.464131 0.320459 0.469961 0.654319
C44   C     C_R   0.464210 0.679821 0.469871 0.699829
C45   C     C_R   0.535871 0.320176 0.530058 0.704192
C46   C     C_R   0.535797 0.679544 0.530098 0.650841
C47   C     C_R   0.463067 0.257117 0.469085 0.279310
C48   C     C_R   0.463139 0.743173 0.468945 0.270834
C49   C     C_R   0.536940 0.256824 0.530981 0.274562
C50   C     C_R   0.536858 0.742885 0.530972 0.275033
C51   C     C_R   0.238706 0.444450 0.499823 0.474703
C52   C     C_R   0.761300 0.444431 0.500221 0.475742
C53   C     C_R   0.298070 0.445228 0.499823 -0.131513
C54   C     C_R   0.701935 0.445213 0.500224 -0.135048
C55   C     C_R   0.328106 0.499922 0.499815 -0.145208
C56   C     C_R   0.671894 0.499910 0.500184 -0.145392
C57   C     C_R   0.297917 0.554437 0.499709 -0.157023
C58   C     C_R   0.702078 0.554422 0.500238 -0.152724
C59   C     C_R   0.238751 0.554276 0.499708 -0.115130
C60   C     C_R   0.761243 0.554257 0.500237 -0.115945
C61   C     C_R   0.208819 0.499814 0.499797 0.204609
C62   C     C_R   0.791181 0.499794 0.500196 0.204535
C63   C     C_R   0.464452 0.871779 0.530209 0.649153
C64   C     C_R   0.535542 0.128221 0.469779 0.650594
C65   C     C_R   0.535497 0.872109 0.469692 0.652460
C66   C     C_R   0.464501 0.127891 0.530300 0.653791
C67   C     C_R   0.536326 0.935983 0.469012 -0.209608
C68   C     C_R   0.463670 0.064018 0.530979 -0.210097
C69   C     C_R   0.463641 0.935645 0.530930 -0.207180
C70   C     C_R   0.536353 0.064356 0.469059 -0.207765
C71   C     C_R   0.499990 0.967881 0.499983 -0.163596
C72   C     C_R   0.500005 0.032120 0.500007 -0.163632
C73   C     C_R   0.572403 0.968803 0.438296 0.592701
C74   C     C_R   0.427592 0.031197 0.561694 0.594111
C75   C     C_R   0.427578 0.968130 0.561670 0.593390
C76   C     C_R   0.572416 0.031871 0.438319 0.594821
C77   C     C_R   0.449841 0.511426 0.177368 0.657333
C78   C     C_R   0.550434 0.493834 0.822675 0.656740
C79   C     C_R   0.500006 0.224188 0.500043 -0.080723
C80   C     C_R   0.499992 0.775812 0.499950 -0.076595
C81   C     C_R   0.547490 0.482781 0.178227 0.652053
C82   C     C_R   0.450598 0.512142 0.821641 0.652054
C83   C     C_R   0.502565 0.553944 0.277254 0.305205
C84   C     C_R   0.499542 0.446024 0.722788 0.304378
C85   C     C_R   0.502909 0.554775 0.327876 0.526283
C86   C     C_R   0.499378 0.445151 0.672167 0.527756
C87   C     C_R   0.496369 0.445541 0.329306 -0.323787
C88   C     C_R   0.501149 0.554594 0.670681 -0.324907
C89   C     C_R   0.495979 0.444641 0.279328 0.638398
C90   C     C_R   0.501283 0.555525 0.720658 0.636798
Cu1   Cu    Cu3+1 0.500000 0.559570 0.500000 1.098804
Cu2   Cu    Cu3+1 0.500000 0.440430 0.500000 1.100178
H1    H     H_    0.359714 0.541050 0.035084 0.153468
H2    H     H_    0.642810 0.475904 0.965176 0.153484
H3    H     H_    0.949120 0.502137 0.621269 0.224513
H4    H     H_    0.050880 0.503499 0.378726 0.224499
H5    H     H_    0.320657 0.402696 0.499855 0.216686
H6    H     H_    0.679352 0.402683 0.500231 0.213712
H7    H     H_    0.319975 0.597252 0.499655 0.207116
H8    H     H_    0.680016 0.597238 0.500253 0.210362
H9    H     H_    0.215932 0.596640 0.499676 0.178782
H10   H     H_    0.784058 0.596619 0.500230 0.179280
H11   H     H_    0.493834 0.403135 0.348541 0.253996
H12   H     H_    0.501838 0.597079 0.651432 0.251836
H13   H     H_    0.361006 0.538921 0.119972 0.200764
H14   H     H_    0.641540 0.477608 0.880250 0.200811
H15   H     H_    0.359044 0.527768 0.877328 0.201728
H16   H     H_    0.636501 0.455827 0.122355 0.201998
H17   H     H_    0.356740 0.526479 0.962184 0.153630
H18   H     H_    0.638596 0.456657 0.037460 0.153983
N1    N     N_R   0.498674 0.497167 0.201817 -0.414169
N2    N     N_R   0.500584 0.502945 0.798155 -0.413505
N3    N     N_R   0.852067 0.501356 0.500042 -0.493934
N4    N     N_R   0.147933 0.501378 0.499952 -0.493954
N5    N     N_R   0.500000 0.350920 0.500000 -0.366001
N6    N     N_R   0.500000 0.649080 0.500000 -0.364131
N7    N     N_R   0.499972 0.841388 0.499943 -0.472262
N8    N     N_R   0.500024 0.158613 0.500047 -0.473108
O1    O     O_R   0.417880 0.550320 0.500010 -0.558533
O2    O     O_R   0.582120 0.449680 0.499990 -0.561454
O3    O     O_R   0.582120 0.550320 0.499990 -0.548279
O4    O     O_R   0.417880 0.449680 0.500010 -0.552073
O5    O     O_R   0.500010 0.550300 0.430260 -0.484822
O6    O     O_R   0.499990 0.449700 0.569740 -0.485506
O7    O     O_R   0.499990 0.550300 0.569740 -0.565645
O8    O     O_R   0.500010 0.449700 0.430260 -0.565683
O9    O     O_2   0.430065 0.840191 0.559486 -0.407796
O10   O     O_2   0.569925 0.159810 0.440499 -0.403097
O11   O     O_2   0.569876 0.840840 0.440397 -0.401072
O12   O     O_2   0.430127 0.159160 0.559599 -0.396789
O13   O     O_2   0.402271 0.524935 0.201819 -0.485020
O14   O     O_2   0.599078 0.485320 0.798296 -0.485717
O15   O     O_2   0.402165 0.520995 0.796261 -0.489148
O16   O     O_2   0.594951 0.468919 0.203503 -0.487276
O17   O     O_2   0.849385 0.502147 0.415757 -0.411732
O18   O     O_2   0.150614 0.501231 0.584238 -0.411701
O19   O     O_2   0.851912 0.501263 0.584470 -0.483632
O20   O     O_2   0.148088 0.502225 0.415525 -0.483777
O21   O     O_3   0.425521 0.229722 0.437631 -0.602774
H19   H     H_    0.428878 0.185438 0.440459 0.352510
O22   O     O_3   0.425665 0.770865 0.437407 -0.605538
H20   H     H_    0.429002 0.815122 0.440218 0.351724
O23   O     O_3   0.574490 0.229130 0.562453 -0.599126
H21   H     H_    0.571120 0.184873 0.559667 0.352140
O24   O     O_3   0.574333 0.770284 0.562485 -0.608879
H22   H     H_    0.571004 0.814567 0.559631 0.352066
F1    F     F_    0.057563 0.502120 0.630740 -0.573040
F2    F     F_    0.942436 0.503569 0.369255 -0.573077
O25   O     O_3   0.211979 0.389062 0.499876 -0.664751
H23   H     H_    0.170283 0.394744 0.499825 0.342672
O26   O     O_3   0.788031 0.389042 0.500210 -0.665709
H24   H     H_    0.829727 0.394721 0.500232 0.342636
F3    F     F_    0.428725 0.351599 0.440281 -0.583098
F4    F     F_    0.428875 0.648948 0.440166 -0.555620
F5    F     F_    0.571295 0.351044 0.559689 -0.549867
F6    F     F_    0.571144 0.648406 0.559830 -0.585847
F7    F     F_    0.492394 0.391190 0.256044 -0.586827
F8    F     F_    0.502335 0.609090 0.743935 -0.588707
F9    F     F_    0.608122 0.940248 0.407851 -0.531750
F10   F     F_    0.391874 0.059752 0.592139 -0.530064
F11   F     F_    0.391846 0.939242 0.592093 -0.531712
F12   F     F_    0.608147 0.060758 0.407895 -0.530010
F13   F     F_    0.498276 0.391441 0.648952 -0.592741
F14   F     F_    0.506598 0.608342 0.351133 -0.596346
O27   O     O_3   0.498517 0.393846 0.749989 -0.657233
H25   H     H_    0.497958 0.358447 0.728475 0.398671
O28   O     O_3   0.505952 0.606035 0.250099 -0.657381
H26   H     H_    0.508135 0.641347 0.271641 0.398069

loop_
_geom_bond_atom_site_label_1
_geom_bond_atom_site_label_2
_ccdc_geom_bond_type
C15   C18   A    
C66   C68   A    
O27   H25   S    
C76   F12   S    
C35   C36   A    
C51   C61   A    
C47   C79   A    
C51   O25   S    
C42   F2    S    
O24   H22   S    
C78   N2    A    
C81   O16   S    
C39   C41   A    
C5    C20   A    
C11   C81   A    
C15   C19   A    
C6    C19   A    
C13   C23   S    
C33   C39   A    
C34   C40   A    
C28   H2    S    
C35   C37   A    
C84   C86   A    
C5    C11   A    
Cu2   O6    S    
C6    C12   A    
C63   N7    A    
C57   C59   A    
C65   C67   A    
C9    H13   S    
O23   H21   S    
C57   H7    S    
C79   N8    S    
C24   O6    A    
C64   N8    A    
Cu1   N6    S    
C30   C38   A    
C18   C20   A    
C60   C62   A    
C1    O1    A    
C14   C24   S    
C37   C42   A    
C77   N1    A    
C78   O14   S    
C1    O4    A    
C29   N3    A    
C84   O27   S    
C43   N5    A    
O22   H20   S    
C81   N1    A    
C3    N1    S    
C16   C17   A    
C22   H18   S    
C41   F1    S    
O26   H24   S    
C31   C33   A    
C67   C73   A    
C64   C70   A    
C31   O19   S    
C34   C36   A    
C68   C72   A    
C7    C77   A    
C40   C42   A    
C4    N2    S    
Cu1   O5    S    
C8    C78   A    
C40   H4    S    
C60   H10   S    
C88   H12   S    
C52   C54   A    
C46   C50   A    
C58   C60   A    
C4    C90   A    
C53   C55   A    
C54   C56   A    
C59   C61   A    
C69   C71   A    
C74   C75   A    
C59   H9    S    
C63   C69   A    
C58   H8    S    
C14   C86   A    
C62   N3    S    
C26   H16   S    
Cu1   Cu2   S    
C5    C7    A    
C2    O2    A    
C17   C19   A    
C23   O5    A    
C11   C26   A    
C53   H5    S    
C83   O28   S    
C2    C56   S    
C49   C79   A    
Cu2   O8    S    
C51   C53   A    
C82   N2    A    
C90   F8    S    
C32   O20   S    
Cu2   O4    S    
C45   N5    A    
C65   O11   S    
C4    C84   A    
C45   C49   A    
C16   C20   A    
C13   C87   A    
C64   O10   S    
C3    C89   A    
C12   C82   A    
C39   H3    S    
C38   C41   A    
C23   O8    A    
C87   H11   S    
C6    C8    A    
C50   O24   S    
C83   C85   A    
C88   C90   A    
C30   O18   S    
C55   C57   A    
C3    C83   A    
C24   O7    A    
C73   C76   A    
Cu1   O1    S    
C10   H14   S    
C47   O21   S    
C13   C85   A    
O28   H26   S    
C9    C27   A    
C30   N4    A    
C2    O3    A    
C10   C28   A    
C7    C9    A    
C21   C25   A    
C80   N7    S    
C16   C22   A    
Cu1   O7    S    
C29   O17   S    
C17   C28   A    
C77   O13   S    
C18   C27   A    
C50   C80   A    
C21   H17   S    
O21   H19   S    
C89   F7    S    
C74   F10   S    
C46   F6    S    
C73   F9    S    
C46   N6    A    
C12   C25   A    
C75   F11   S    
C44   F4    S    
C48   C80   A    
C82   O15   S    
C87   C89   A    
Cu2   O2    S    
C14   C88   A    
C71   C72   A    
C52   C62   A    
O25   H23   S    
C70   C76   A    
C43   C47   A    
C52   O26   S    
C49   O23   S    
C36   C38   A    
C33   C35   A    
C56   C58   A    
C48   O22   S    
C69   C75   A    
C67   C71   A    
C1    C55   S    
C45   F5    S    
Cu2   N5    S    
C27   H1    S    
C22   C26   A    
C15   C21   A    
Cu1   O3    S    
C44   N6    A    
C8    C10   A    
C66   N8    A    
C29   C37   A    
C61   N4    S    
C85   F14   S    
C65   N7    A    
C54   H6    S    
C70   C72   A    
C86   F13   S    
C32   N4    A    
C43   F3    S    
C68   C74   A    
C31   N3    A    
C25   H15   S    
C63   O9    S    
C44   C48   A    
C32   C34   A    
C66   O12   S    
