data_mof_unit_pretest_734.cif
_audit_creation_date              2012-12-10T18:21:23-0500
_audit_creation_method            fapswitch 2.2
_symmetry_space_group_name_H-M    P1
_symmetry_Int_Tables_number       1
_space_group_crystal_system       triclinic
_cell_length_a                    14.977666
_cell_length_b                    14.013669
_cell_length_c                    10.635265
_cell_angle_alpha                 89.864849
_cell_angle_beta                  90.083158
_cell_angle_gamma                 90.009694
_cell_volume                      2232.24902065

loop_
_atom_site_label
_atom_site_type_symbol
_atom_type_description
_atom_site_fract_x
_atom_site_fract_y
_atom_site_fract_z
_atom_type_partial_charge
C1    C     C_R   0.326760 0.499992 0.499814 0.881764
C2    C     C_3   0.597801 0.503218 0.927881 -0.403475
C3    C     C_R   0.811101 0.467937 0.392107 -0.275019
C4    C     C_R   0.767239 0.500014 0.498693 -0.050910
C5    C     C_R   0.812599 0.532009 0.603845 -0.265264
C6    C     C_R   0.904795 0.530521 0.604265 0.152036
C7    C     C_R   0.951473 0.499582 0.496169 0.044040
C8    C     C_R   0.904124 0.468858 0.387809 0.096003
C9    C     C_R   0.950480 0.559497 0.711464 -0.233806
C10   C     C_R   0.042591 0.555969 0.714282 -0.211600
C11   C     C_R   0.091275 0.524345 0.608852 0.114173
C12   C     C_R   0.500166 0.500031 0.257448 0.816429
C13   C     C_R   0.045065 0.499552 0.497146 -0.032760
C14   C     C_R   0.091794 0.474990 0.386685 0.063296
C15   C     C_R   0.043885 0.443225 0.280572 -0.261078
C16   C     C_R   0.950939 0.439544 0.279436 0.161517
C17   C     C_R   0.184698 0.515619 0.612973 0.082049
C18   C     C_R   0.230659 0.499981 0.498976 -0.147689
C19   C     C_R   0.185316 0.484348 0.384164 0.102157
C20   C     C_R   0.549605 0.798317 0.412886 -0.060150
C21   C     C_R   0.549635 0.202017 0.412915 -0.062125
C22   C     C_R   0.450450 0.797968 0.587156 -0.061360
C23   C     C_R   0.450449 0.201710 0.587160 -0.060861
C24   C     C_R   0.449282 0.898630 0.589308 0.015604
C25   C     C_R   0.449281 0.101040 0.589311 0.014873
C26   C     C_R   0.672747 0.500008 0.500023 0.888978
C27   C     C_R   0.500010 0.949392 0.500024 0.084834
C28   C     C_R   0.500012 0.050616 0.500027 0.085160
C29   C     C_R   0.550736 0.898978 0.410729 0.014987
C30   C     C_R   0.550752 0.101367 0.410745 0.015708
C31   C     C_R   0.398857 0.949513 0.678131 -0.207569
C32   C     C_R   0.398854 0.049822 0.678131 -0.207417
C33   C     C_R   0.601149 0.050491 0.321895 -0.208164
C34   C     C_R   0.601136 0.950193 0.321882 -0.206659
C35   C     C_R   0.500093 0.499966 0.742541 0.819318
C36   C     C_3   0.455872 0.592516 0.071324 -0.393365
C37   C     C_3   0.448170 0.411923 0.071112 -0.406726
C38   C     C_3   0.448445 0.588255 0.928666 -0.418393
C39   C     C_3   0.455365 0.407699 0.928451 -0.406135
C40   C     C_3   0.597826 0.496287 0.072532 -0.411769
C41   C     C_3   0.500384 0.500004 0.121164 0.194984
C42   C     C_3   0.500319 0.499973 0.878825 0.201369
H1    H     H_    0.496619 0.655903 0.097859 0.183355
H2    H     H_    0.475203 0.344208 0.110722 0.185397
H3    H     H_    0.074379 0.578739 0.800291 0.159886
H4    H     H_    0.078037 0.420902 0.196329 0.162393
H5    H     H_    0.588199 0.758220 0.345129 0.130726
H6    H     H_    0.588265 0.242369 0.345193 0.128891
H7    H     H_    0.411806 0.757597 0.654853 0.128217
H8    H     H_    0.411813 0.241833 0.654866 0.130586
H9    H     H_    0.359434 0.911755 0.747592 0.138858
H10   H     H_    0.359429 0.087317 0.747589 0.139230
H11   H     H_    0.640573 0.088244 0.252433 0.138244
H12   H     H_    0.640548 0.912704 0.252406 0.139521
H13   H     H_    0.388926 0.602449 0.113335 0.177179
H14   H     H_    0.376744 0.416531 0.097888 0.165859
H15   H     H_    0.376958 0.583843 0.901742 0.163595
H16   H     H_    0.388294 0.398239 0.886322 0.172784
H17   H     H_    0.475608 0.655878 0.889047 0.184528
H18   H     H_    0.495690 0.344069 0.901897 0.185569
H19   H     H_    0.637688 0.556067 0.112503 0.157195
H20   H     H_    0.630152 0.428399 0.102561 0.167533
H21   H     H_    0.630370 0.570981 0.898014 0.167094
H22   H     H_    0.637423 0.443274 0.888067 0.160988
H23   H     H_    0.771215 0.444243 0.313262 0.141985
H24   H     H_    0.775821 0.556110 0.685784 0.128195
H25   H     H_    0.914835 0.583783 0.794102 0.146059
N1    N     N_R   0.500070 0.750030 0.500050 -0.101524
N2    N     N_R   0.500070 0.249970 0.500050 -0.101489
O1    O     O_R   0.367860 0.580280 0.500020 -0.615347
O2    O     O_R   0.367860 0.419720 0.500020 -0.615457
O3    O     O_R   0.500000 0.580270 0.314790 -0.629516
O4    O     O_R   0.500000 0.419730 0.314790 -0.636258
O5    O     O_R   0.632160 0.580270 0.499960 -0.615464
O6    O     O_R   0.632160 0.419730 0.499960 -0.616502
O7    O     O_R   0.500030 0.580270 0.685200 -0.635554
O8    O     O_R   0.500030 0.419730 0.685200 -0.628737
Zn1   Zn    Zn3+2 0.500020 0.607200 0.499990 0.936766
Zn2   Zn    Zn3+2 0.500020 0.392800 0.499990 0.936199
C43   C     C_3   0.234425 0.519502 0.738579 -0.407342
C44   C     C_3   0.212021 0.432812 0.820630 -0.898917
H26   H     H_    0.139098 0.423479 0.833093 0.270388
H27   H     H_    0.239444 0.367068 0.777138 0.259718
H28   H     H_    0.241811 0.441825 0.915338 0.240891
H29   H     H_    0.307681 0.520100 0.726867 0.195121
H30   H     H_    0.219260 0.586837 0.788847 0.188636
C45   C     C_3   0.235843 0.481605 0.259334 -0.399967
C46   C     C_3   0.212592 0.567987 0.177042 -0.895215
H31   H     H_    0.139621 0.576429 0.163855 0.270443
H32   H     H_    0.239138 0.634096 0.220758 0.265418
H33   H     H_    0.242704 0.559383 0.082597 0.239158
H34   H     H_    0.309006 0.482488 0.272237 0.196513
H35   H     H_    0.222201 0.414019 0.208724 0.188993
C47   C     C_3   0.904933 0.405627 0.160152 -0.407499
C48   C     C_3   0.870216 0.489556 0.082205 -0.883978
H36   H     H_    0.821600 0.532757 0.136315 0.256165
H37   H     H_    0.926686 0.536022 0.053146 0.259823
H38   H     H_    0.836473 0.462406 0.996383 0.247379
H39   H     H_    0.952172 0.364621 0.100475 0.202086
H40   H     H_    0.850070 0.355113 0.182415 0.194218

loop_
_geom_bond_atom_site_label_1
_geom_bond_atom_site_label_2
_ccdc_geom_bond_type
C45   C46   S    
O1    Zn1   S    
C23   N2    A    
C48   H36   S    
C24   C27   A    
C6    C9    A    
O2    Zn2   S    
C44   H26   S    
C48   H38   S    
C7    C8    A    
C25   C28   A    
C1    C18   S    
C1    O2    A    
O7    Zn1   S    
C38   C42   S    
C19   C45   S    
C5    C6    A    
C27   C29   A    
C15   C16   A    
C40   H20   S    
C18   C19   A    
C35   C42   S    
C32   H10   S    
C43   H30   S    
C37   H14   S    
O3    Zn1   S    
C9    C10   A    
C21   H6    S    
C25   C32   A    
C12   O3    A    
C8    C16   A    
C13   C14   A    
N1    Zn1   S    
C36   C41   S    
C3    H23   S    
C44   H27   S    
C2    H22   S    
C17   C18   A    
C39   C42   S    
C20   C29   A    
O8    Zn2   S    
C33   H11   S    
C35   O7    A    
C3    C8    A    
C43   C44   S    
C23   H8    S    
C39   H16   S    
C29   C34   A    
C35   O8    A    
C17   C43   S    
C40   H19   S    
C21   N2    A    
C9    H25   S    
C43   H29   S    
C38   H15   S    
C31   C32   A    
C46   H33   S    
C47   H40   S    
C10   H3    S    
C26   O6    A    
O4    Zn2   S    
C22   N1    A    
C22   H7    S    
C40   C41   S    
C46   H32   S    
C34   H12   S    
C22   C24   A    
N2    Zn2   S    
C3    C4    A    
C44   H28   S    
C45   H34   S    
C2    H21   S    
C12   C41   S    
C11   C17   A    
C30   C33   A    
C14   C19   A    
C20   N1    A    
C31   H9    S    
C4    C5    A    
C4    C26   S    
C48   H37   S    
C6    C7    A    
C21   C30   A    
C16   C47   S    
C1    O1    A    
C37   H2    S    
C36   C38   S    
C24   C31   A    
C37   C39   S    
C36   H13   S    
C5    H24   S    
C11   C13   A    
C47   H39   S    
C2    C42   S    
C39   H18   S    
C45   H35   S    
C28   C30   A    
C26   O5    A    
C33   C34   A    
C23   C25   A    
C37   C41   S    
C47   C48   S    
C20   H5    S    
C10   C11   A    
C38   H17   S    
C2    C40   S    
C7    C13   A    
C46   H31   S    
O5    Zn1   S    
C27   C28   A    
C14   C15   A    
C36   H1    S    
C15   H4    S    
C12   O4    A    
O6    Zn2   S    
