data_mof_unit_pretest_1110.cif
_audit_creation_date              2013-03-05T15:52:10-0500
_audit_creation_method            fapswitch 2.2
_symmetry_space_group_name_H-M    P1
_symmetry_Int_Tables_number       1
_space_group_crystal_system       triclinic
_cell_length_a                    11.19639
_cell_length_b                    11.319341
_cell_length_c                    18.875063
_cell_angle_alpha                 90.544219
_cell_angle_beta                  89.998775
_cell_angle_gamma                 118.427036
_cell_volume                      2103.58772565

loop_
_atom_site_label
_atom_site_type_symbol
_atom_site_description
_atom_site_fract_x
_atom_site_fract_y
_atom_site_fract_z
_atom_type_partial_charge
O1    O     O_R   0.911480 0.572650 0.170990 -0.481898
O2    O     O_R   0.427350 0.338830 0.170990 -0.466317
O3    O     O_R   0.661170 0.088520 0.170990 -0.447959
O4    O     O_R   0.572650 0.911480 0.829010 -0.508292
O5    O     O_R   0.338830 0.427350 0.829010 -0.463208
O6    O     O_R   0.088520 0.661170 0.829010 -0.467347
O7    O     O_R   0.640340 0.528970 0.175680 -0.496591
O8    O     O_R   0.471030 0.111370 0.175680 -0.480728
O9    O     O_R   0.888630 0.359660 0.175680 -0.519916
O10   O     O_R   0.528970 0.640340 0.824320 -0.426999
O11   O     O_R   0.111370 0.471030 0.824320 -0.415858
O12   O     O_R   0.359660 0.888630 0.824320 -0.489752
C1    C     C_R   0.517369 0.453110 0.147733 0.552264
C2    C     C_R   0.575138 0.115224 0.139855 0.560311
C3    C     C_R   0.941172 0.482351 0.148740 0.548422
C4    C     C_R   0.426215 0.542389 0.859352 0.549810
C5    C     C_R   0.122670 0.578212 0.859969 0.554277
C6    C     C_R   0.483320 0.940338 0.851086 0.556323
O13   O     O_R   0.909980 0.572450 0.331530 -0.488623
O14   O     O_R   0.427550 0.337530 0.331530 -0.496808
O15   O     O_R   0.662470 0.090020 0.331530 -0.485740
O16   O     O_R   0.572450 0.909980 0.668470 -0.511078
O17   O     O_R   0.337530 0.427550 0.668470 -0.510053
O18   O     O_R   0.090020 0.662470 0.668470 -0.508776
O19   O     O_R   0.638950 0.528780 0.324500 -0.456158
O20   O     O_R   0.471220 0.110170 0.324500 -0.455488
O21   O     O_R   0.889830 0.361050 0.324500 -0.464318
O22   O     O_R   0.528780 0.638950 0.675500 -0.474782
O23   O     O_R   0.110170 0.471220 0.675500 -0.474159
O24   O     O_R   0.361050 0.889830 0.675500 -0.478605
C7    C     C_R   0.522243 0.455351 0.354277 0.561638
C8    C     C_R   0.543264 0.064587 0.353857 0.585292
C9    C     C_R   0.934045 0.477255 0.354180 0.568717
C10   C     C_R   0.454151 0.519337 0.646648 0.576305
C11   C     C_R   0.065357 0.546317 0.646429 0.587457
C12   C     C_R   0.479689 0.935030 0.646195 0.576545
Cr1   Cr    Cr6+3 0.769160 0.541570 0.250690 1.110534
Cr2   Cr    Cr6+3 0.458430 0.227590 0.250690 1.111498
Cr3   Cr    Cr6+3 0.772410 0.230840 0.250690 1.109701
Cr4   Cr    Cr6+3 0.541570 0.769160 0.749310 1.107751
Cr5   Cr    Cr6+3 0.227590 0.458430 0.749310 1.123565
Cr6   Cr    Cr6+3 0.230840 0.772410 0.749310 1.103554
O25   O     O_3   0.666667 0.333333 0.250560 -0.346839
O26   O     O_3   0.333333 0.666667 0.749440 -0.380740
C13   C     C_R   0.524288 0.018206 0.917480 0.053033
C14   C     C_R   0.099721 0.566929 0.937917 0.044749
C15   C     C_R   0.450648 0.526318 0.933584 0.057228
C16   C     C_R   0.027362 0.526999 0.083978 0.077040
C17   C     C_R   0.560892 0.078402 0.064366 0.066283
C18   C     C_R   0.478182 0.481297 0.078031 0.053331
C19   C     C_R   0.427810 0.031092 0.956975 -0.049658
C20   C     C_R   0.135305 0.486513 0.980106 -0.069501
C21   C     C_R   0.510896 0.634133 0.981378 -0.034939
C22   C     C_R   0.086016 0.457769 0.049931 0.029682
C23   C     C_R   0.445886 0.056954 0.028551 -0.113715
C24   C     C_R   0.533654 0.608594 0.051544 0.054869
C25   C     C_R   0.661763 0.063750 0.026366 0.075784
C26   C     C_R   0.035036 0.638198 0.047167 0.107201
C27   C     C_R   0.409192 0.375244 0.029615 0.036363
C28   C     C_R   0.041356 0.637864 0.973101 0.055438
C29   C     C_R   0.649996 0.047578 0.951607 0.101358
C30   C     C_R   0.423558 0.400254 0.957130 0.070595
C31   C     C_3   0.283047 0.932014 0.964937 0.071692
C32   C     C_3   0.094005 0.341645 0.967193 0.076641
C33   C     C_3   0.657179 0.736455 0.977924 0.055234
C34   C     C_3   0.026984 0.312337 0.038877 0.063374
C35   C     C_3   0.306385 0.953485 0.045105 0.075803
C36   C     C_3   0.679746 0.696782 0.051191 0.073511
H1    H     H_    0.263057 0.832982 0.944372 0.130952
H2    H     H_    0.177908 0.318339 0.963253 0.157090
H3    H     H_    0.663910 0.834388 0.975597 0.120522
H4    H     H_    0.916433 0.269796 0.034892 0.097412
H5    H     H_    0.249264 0.995361 0.074411 0.178409
H6    H     H_    0.731452 0.634753 0.051260 0.094554
C37   C     C_R   0.501366 0.985562 0.574202 0.032260
C38   C     C_R   0.014890 0.518741 0.574657 0.029525
C39   C     C_R   0.483210 0.494706 0.575086 0.033375
C40   C     C_R   0.982397 0.486501 0.426609 0.028824
C41   C     C_R   0.502681 0.012441 0.425431 0.027383
C42   C     C_R   0.511031 0.493616 0.426873 0.032450
C43   C     C_R   0.578930 0.949661 0.529724 -0.035371
C44   C     C_R   0.057178 0.627748 0.529242 -0.041285
C45   C     C_R   0.372631 0.422116 0.530122 -0.042731
C46   C     C_R   0.043514 0.612061 0.457732 -0.036532
C47   C     C_R   0.579548 0.962608 0.457792 -0.031062
C48   C     C_R   0.386242 0.421997 0.458446 -0.036713
C49   C     C_R   0.426543 0.055735 0.469386 0.055608
C50   C     C_R   0.925909 0.372372 0.472014 0.054832
C51   C     C_R   0.627723 0.561870 0.471523 0.058075
C52   C     C_R   0.941417 0.389163 0.546617 0.046998
C53   C     C_R   0.431830 0.048211 0.544454 0.046929
C54   C     C_R   0.613588 0.557340 0.546345 0.051978
C55   C     C_3   0.584010 0.820980 0.523413 -0.239858
C56   C     C_3   0.188797 0.752917 0.522726 -0.240444
C57   C     C_3   0.240451 0.422737 0.523913 -0.239961
C58   C     C_3   0.173104 0.734433 0.442848 -0.260315
C59   C     C_3   0.583687 0.835333 0.443745 -0.257714
C60   C     C_3   0.255788 0.421866 0.444223 -0.261715
H7    H     H_    0.490381 0.734596 0.543559 0.129692
H8    H     H_    0.275009 0.741902 0.544324 0.124246
H9    H     H_    0.247848 0.517755 0.544773 0.128107
H10   H     H_    0.155859 0.811984 0.416126 0.173007
H11   H     H_    0.680369 0.853602 0.418332 0.170507
H12   H     H_    0.179766 0.326814 0.418524 0.171330
H13   H     H_    0.681303 0.832341 0.544492 0.156257
H14   H     H_    0.178541 0.839861 0.542652 0.161850
H15   H     H_    0.155842 0.328527 0.544460 0.161788
H16   H     H_    0.250014 0.712453 0.417683 0.132098
H17   H     H_    0.489928 0.757386 0.417527 0.136094
H18   H     H_    0.270225 0.515353 0.418370 0.132406
N1    N     N_3   0.754707 0.033315 0.065071 -0.516753
H19   H     H_    0.810696 0.998963 0.036258 0.266546
H20   H     H_    0.821411 0.110319 0.097810 0.292022
N2    N     N_3   0.024279 0.744782 0.083919 -0.506036
H21   H     H_    0.056981 0.829016 0.053280 0.260836
H22   H     H_    0.923064 0.716182 0.089232 0.265587
N3    N     N_3   0.324543 0.243816 0.054091 -0.512754
H23   H     H_    0.272029 0.181311 0.012486 0.280883
H24   H     H_    0.389152 0.212518 0.075006 0.235086
N4    N     N_3   0.966140 0.688690 0.934774 -0.465558
H25   H     H_    0.922583 0.727252 0.969923 0.262617
H26   H     H_    0.028162 0.770303 0.904762 0.330238
N5    N     N_3   0.762698 0.055929 0.911019 -0.469304
H27   H     H_    0.845995 0.081663 0.942866 0.260145
H28   H     H_    0.748932 0.964630 0.892857 0.289381
N6    N     N_3   0.424514 0.304070 0.907847 -0.528412
H29   H     H_    0.492244 0.272210 0.926011 0.255072
H30   H     H_    0.326606 0.225560 0.902360 0.302959
N7    N     N_R   0.198390 0.983603 0.931848 -0.008374
O27   O     O_R   0.202104 0.996946 0.863334 -0.295581
O28   O     O_R   0.099110 0.987283 0.965828 -0.365665
N8    N     N_R   0.000175 0.285183 0.907892 0.061787
O29   O     O_R   0.899498 0.311679 0.899634 -0.301053
O30   O     O_R   0.024758 0.217831 0.858850 -0.260176
N9    N     N_R   0.726873 0.705345 0.920370 0.050916
O31   O     O_R   0.707953 0.583370 0.910394 -0.297018
O32   O     O_R   0.804913 0.797890 0.876563 -0.298815
N10   N     N_R   0.079010 0.249850 0.089111 0.073829
O33   O     O_R   0.138799 0.311519 0.147632 -0.278582
O34   O     O_R   0.050276 0.125167 0.080022 -0.288154
N11   N     N_R   0.309747 0.841244 0.082023 0.088432
O35   O     O_R   0.360138 0.771166 0.051605 -0.365724
O36   O     O_R   0.282274 0.825083 0.149334 -0.257701
N12   N     N_R   0.718790 0.795886 0.109193 0.079402
O37   O     O_R   0.627219 0.800754 0.150021 -0.238036
O38   O     O_R   0.845345 0.863460 0.128540 -0.304863
N13   N     N_3   0.341278 0.103049 0.437989 -0.576977
H31   H     H_    0.241098 0.041165 0.453541 0.211750
H32   H     H_    0.371654 0.198319 0.458460 0.244397
N14   N     N_3   0.846809 0.240942 0.443092 -0.570141
H33   H     H_    0.887006 0.179268 0.459733 0.224619
H34   H     H_    0.750153 0.206794 0.463898 0.229975
N15   N     N_3   0.759404 0.635731 0.441342 -0.571484
H35   H     H_    0.801994 0.735811 0.458199 0.213342
H36   H     H_    0.816813 0.594530 0.461852 0.239285
N16   N     N_3   0.884061 0.276718 0.593571 -0.584556
H37   H     H_    0.778669 0.227071 0.586960 0.241287
H38   H     H_    0.921161 0.210399 0.580440 0.228361
N17   N     N_3   0.366360 0.101667 0.590179 -0.590113
H39   H     H_    0.412190 0.205350 0.582720 0.242614
H40   H     H_    0.263898 0.060504 0.576411 0.225872
N18   N     N_3   0.729314 0.615395 0.592902 -0.582397
H41   H     H_    0.784956 0.564062 0.585212 0.241340
H42   H     H_    0.791072 0.716112 0.580309 0.226460

loop_
_geom_bond_atom_site_label_1
_geom_bond_atom_site_label_2
_geom_bond_distance
_ccdc_geom_bond_type
O14   Cr2   2.090450 S    
O19   C7    1.299613 A    
C39   C54   1.396334 A    
O20   C8    1.275006 A    
N6    H29   1.041833 S    
C60   H18   1.109512 S    
C49   C53   1.423186 A    
O18   Cr6   2.111579 S    
N13   H31   1.044418 S    
C15   C30   1.387696 A    
C41   C49   1.430095 A    
N2    H21   1.027484 S    
C57   C60   1.514394 S    
O23   Cr5   1.968598 S    
C7    C42   1.456525 S    
O21   C9    1.286521 A    
C16   C22   1.392384 A    
C25   C29   1.419210 A    
C49   N13   1.429071 S    
C44   C56   1.486481 S    
C18   C27   1.403294 A    
N16   H37   1.044570 S    
N13   H32   1.034797 S    
N18   H41   1.043958 S    
C58   H10   1.109983 S    
N3    H24   1.025330 S    
C10   C39   1.444744 S    
C9    C40   1.454770 S    
N5    H28   1.025136 S    
C2    C17   1.467948 S    
C13   C19   1.375418 A    
C36   H6    1.102346 S    
C14   C20   1.407307 A    
O9    Cr3   2.014112 S    
C17   C25   1.411912 A    
C23   C35   1.474516 S    
O10   Cr4   1.998507 S    
C46   C58   1.482137 S    
C13   C29   1.434189 A    
C42   C51   1.428566 A    
O2    C1    1.285049 A    
O5    C4    1.324304 A    
O12   Cr6   1.993406 S    
O13   Cr1   2.097997 S    
C55   H13   1.107770 S    
C40   C50   1.430574 A    
C34   H4    1.096114 S    
C31   H1    1.100105 S    
N4    H26   1.027472 S    
N8    O29   1.306758 A    
O8    Cr2   1.973925 S    
C42   C48   1.376676 A    
N17   H40   1.043795 S    
C36   N12   1.468962 S    
O1    C3    1.283350 A    
C32   H2    1.092339 S    
N15   H36   1.034113 S    
C21   C33   1.491180 S    
C55   H7    1.109403 S    
Cr4   O26   2.051006 S    
C53   N17   1.435509 S    
O1    Cr1   2.098138 S    
C15   C21   1.397688 A    
O4    C6    1.260612 A    
C33   C36   1.515857 S    
N9    O31   1.305060 A    
C58   H16   1.109384 S    
O22   C10   1.317887 A    
C27   N3    1.412622 S    
Cr6   O26   2.014290 S    
C3    C16   1.492721 S    
C4    C15   1.457161 S    
C20   C22   1.408746 A    
C26   C28   1.399853 A    
N18   H42   1.043527 S    
O15   C8    1.295491 A    
C31   C35   1.532847 S    
C11   C38   1.440838 S    
O18   C11   1.273543 A    
C32   N8    1.453345 S    
N5    H27   1.026653 S    
C19   C31   1.476467 S    
C5    C14   1.489718 S    
N12   O38   1.299624 A    
C20   C32   1.494208 S    
O21   Cr3   1.989444 S    
C30   N6    1.429215 S    
O16   Cr4   2.123691 S    
C37   C43   1.397711 A    
Cr3   O25   2.013822 S    
O8    C2    1.330395 A    
C33   H3    1.076034 S    
C18   C24   1.368779 A    
C32   C34   1.508419 S    
Cr1   O25   2.073024 S    
O22   Cr4   1.973279 S    
O4    Cr4   2.097526 S    
C12   C37   1.454383 S    
C43   C55   1.488166 S    
O2    Cr2   2.103047 S    
C51   N15   1.425718 S    
N17   H39   1.044174 S    
C34   N10   1.464125 S    
C56   H8    1.108628 S    
O17   C10   1.292500 A    
C45   C57   1.487925 S    
O7    Cr1   1.976252 S    
N1    H20   1.034119 S    
C59   H11   1.110573 S    
C51   C54   1.419806 A    
C56   C58   1.518818 S    
C33   N9    1.472198 S    
O3    C2    1.282644 A    
C57   H15   1.109522 S    
C35   H5    1.106021 S    
C50   C52   1.418668 A    
C44   C46   1.358817 A    
O13   C9    1.304482 A    
Cr5   O26   2.073790 S    
N14   H34   1.038933 S    
C38   C44   1.394751 A    
C35   N11   1.470889 S    
C6    C13   1.466922 S    
C55   C59   1.514211 S    
C41   C47   1.378670 A    
N4    H25   1.032307 S    
C38   C52   1.394508 A    
N7    O27   1.301783 A    
C21   C24   1.407094 A    
C54   N18   1.435742 S    
N9    O32   1.299810 A    
O6    C5    1.312143 A    
O5    Cr5   2.089342 S    
C56   H14   1.106235 S    
C27   C30   1.393507 A    
N6    H30   1.035815 S    
N1    H19   1.033434 S    
C14   C28   1.414987 A    
C50   N14   1.423294 S    
O15   Cr3   2.135953 S    
O20   Cr2   1.986044 S    
N12   O37   1.304231 A    
C17   C23   1.368672 A    
O11   C5    1.333813 A    
N2    H22   1.024902 S    
C16   C26   1.410012 A    
C22   C34   1.465573 S    
C37   C53   1.399119 A    
O16   C12   1.272202 A    
O23   C11   1.300143 A    
O17   Cr5   2.089268 S    
O24   C12   1.300180 A    
C29   N5    1.440803 S    
N11   O36   1.301179 A    
C59   H17   1.111419 S    
O9    C3    1.330010 A    
Cr2   O25   2.052239 S    
C24   C36   1.455196 S    
N3    H23   1.027793 S    
C8    C41   1.462782 S    
C25   N1    1.442724 S    
C60   H12   1.111573 S    
N16   H38   1.044435 S    
N10   O34   1.299193 A    
C28   N4    1.425739 S    
C19   C23   1.374037 A    
C31   N7    1.470861 S    
C48   C60   1.484389 S    
C47   C59   1.484689 S    
N10   O33   1.302306 A    
O3    Cr3   2.110274 S    
C1    C18   1.471892 S    
C40   C46   1.375329 A    
O7    C1    1.333071 A    
C45   C48   1.361498 A    
N8    O30   1.303931 A    
O6    Cr6   2.124448 S    
O11   Cr5   1.972537 S    
O12   C6    1.318202 A    
C26   N2    1.440034 S    
C39   C45   1.395185 A    
N14   H33   1.044936 S    
O24   Cr6   2.005775 S    
O10   C4    1.337755 A    
N15   H35   1.044412 S    
N11   O35   1.301781 A    
C52   N16   1.435654 S    
C43   C47   1.366670 A    
C57   H9    1.107172 S    
O19   Cr1   1.972332 S    
N7    O28   1.300863 A    
O14   C7    1.315286 A    
