data_mof_unit_pretest_1953.cif
_audit_creation_date              2012-12-11T16:11:42-0500
_audit_creation_method            fapswitch 2.2
_symmetry_space_group_name_H-M    P1
_symmetry_Int_Tables_number       1
_space_group_crystal_system       triclinic
_cell_length_a                    6.989103
_cell_length_b                    14.260968
_cell_length_c                    15.879421
_cell_angle_alpha                 90.247801
_cell_angle_beta                  91.497769
_cell_angle_gamma                 88.926003
_cell_volume                      1581.89336515

loop_
_atom_site_label
_atom_site_type_symbol
_atom_type_description
_atom_site_fract_x
_atom_site_fract_y
_atom_site_fract_z
_atom_type_partial_charge
O1    O     O_R   0.638960 0.835150 0.161940 -0.530194
O2    O     O_R   0.361040 0.164850 0.838060 -0.530200
O3    O     O_R   0.309170 0.846340 0.337470 -0.543035
O4    O     O_R   0.690830 0.153660 0.662530 -0.543031
O5    O     O_R   0.138810 0.664830 0.338070 -0.525790
O6    O     O_R   0.861190 0.335170 0.661930 -0.525790
C1    C     C_R   0.478285 0.868514 0.366253 0.795120
C2    C     C_R   0.521715 0.131486 0.633747 0.795103
O7    O     O_R   0.309250 0.846350 0.162570 -0.522550
O8    O     O_R   0.690750 0.153650 0.837430 -0.522557
O9    O     O_R   0.138880 0.664840 0.161920 -0.536270
O10   O     O_R   0.861120 0.335160 0.838080 -0.536270
C3    C     C_R   0.475788 0.867320 0.132537 0.778990
C4    C     C_R   0.524212 0.132679 0.867462 0.778965
O11   O     O_R   0.638880 0.835150 0.338090 -0.534902
O12   O     O_R   0.361120 0.164850 0.661910 -0.534894
O13   O     O_3   0.472380 0.690440 0.250000 -0.366594
O14   O     O_3   0.527620 0.309560 0.750000 -0.366584
V1    V     V_3+5 0.197550 0.761040 0.250010 1.598216
V2    V     V_3+5 0.802450 0.238960 0.749990 1.598228
O15   O     O_R   0.809160 0.653640 0.162540 -0.550259
O16   O     O_R   0.190840 0.346360 0.837460 -0.550255
C5    C     C_R   0.977304 0.631571 0.133698 0.752511
C6    C     C_R   0.022696 0.368428 0.866301 0.752504
O17   O     O_R   0.809090 0.653640 0.337440 -0.519032
O18   O     O_R   0.190910 0.346360 0.662560 -0.519027
C7    C     C_R   0.980644 0.633748 0.367999 0.811758
C8    C     C_R   0.019356 0.366252 0.632001 0.811804
V3    V     V_3+5 0.697540 0.738950 0.250000 1.586640
V4    V     V_3+5 0.302460 0.261050 0.750000 1.586683
O19   O     O_3   0.972580 0.809550 0.250010 -0.367281
O20   O     O_3   0.027420 0.190450 0.749990 -0.367290
C9    C     C_3   0.102441 0.573951 0.526111 0.295094
C10   C     C_3   0.897558 0.426049 0.473889 0.295125
C11   C     C_3   0.924903 0.536374 0.569983 -0.261188
C12   C     C_3   0.075096 0.463625 0.430017 -0.261164
H1    H     H_    0.861269 0.565433 0.628129 0.212558
H2    H     H_    0.138730 0.434567 0.371870 0.212554
C13   C     C_3   0.003631 0.435007 0.559979 -0.238945
C14   C     C_3   0.996369 0.564993 0.440021 -0.238962
C15   C     C_3   0.180569 0.471847 0.516630 0.316198
C16   C     C_3   0.819430 0.528153 0.483369 0.316191
C17   C     C_3   0.927763 0.417196 0.024200 -0.216410
C18   C     C_3   0.072239 0.582801 0.975802 -0.216646
C19   C     C_3   0.097817 0.468567 0.065876 0.404510
C20   C     C_3   0.902189 0.531430 0.934127 0.404461
H3    H     H_    0.872274 0.348738 0.044678 0.161988
H4    H     H_    0.127728 0.651261 0.955323 0.161983
C21   C     C_3   0.986503 0.561992 0.062645 -0.087099
C22   C     C_3   0.013498 0.438006 0.937357 -0.087078
C23   C     C_3   0.813840 0.512199 0.020105 -0.229781
C24   C     C_3   0.186161 0.487799 0.979896 -0.229991
H5    H     H_    0.661023 0.523435 0.035351 0.144363
H6    H     H_    0.338977 0.476566 0.964646 0.144392
C25   C     C_3   0.589282 0.034565 0.432351 -0.213689
C26   C     C_3   0.410721 0.965435 0.567649 -0.213281
C27   C     C_3   0.416783 0.079285 0.477035 0.441197
C28   C     C_3   0.583216 0.920713 0.522966 0.441258
H7    H     H_    0.658917 0.063843 0.376460 0.184906
H8    H     H_    0.341084 0.936156 0.623540 0.184897
C29   C     C_3   0.511606 0.061016 0.563512 -0.110003
C30   C     C_3   0.488394 0.938984 0.436488 -0.110045
C31   C     C_3   0.686467 0.015105 0.520189 -0.228594
C32   C     C_3   0.313536 0.984896 0.479811 -0.228198
H9    H     H_    0.839381 0.025774 0.537723 0.153769
H10   H     H_    0.160621 0.974228 0.462277 0.153772
C33   C     C_3   0.669381 0.958097 0.014456 0.317427
C34   C     C_3   0.330620 0.041902 0.985543 0.317440
C35   C     C_3   0.556025 0.957102 0.929901 0.244244
C36   C     C_3   0.443975 0.042897 0.070098 0.244260
C37   C     C_3   0.515566 0.063068 0.938697 -0.213613
C38   C     C_3   0.484435 0.936931 0.061302 -0.213604
C39   C     C_3   0.629655 0.065026 0.023552 -0.232936
C40   C     C_3   0.370346 0.934973 0.976447 -0.232937
H11   H     H_    0.730219 0.119594 0.045564 0.210785
H12   H     H_    0.269781 0.880406 0.954435 0.210780
Br1   Br    Br    0.636566 0.894902 0.827596 -0.503034
Br2   Br    Br    0.363434 0.105098 0.172403 -0.503128
Br3   Br    Br    0.911038 0.891542 0.031616 -0.496392
Br4   Br    Br    0.088962 0.108457 0.968383 -0.496350
Br5   Br    Br    0.214123 0.687206 0.572505 -0.420287
Br6   Br    Br    0.785875 0.312795 0.427495 -0.420314
Br7   Br    Br    0.422922 0.405553 0.534959 -0.393244
Br8   Br    Br    0.577077 0.594447 0.465041 -0.393170
O21   O     O_3   0.200933 0.436409 0.136980 -0.627439
H13   H     H_    0.257841 0.375179 0.120153 0.319036
O22   O     O_3   0.799070 0.563595 0.863031 -0.627462
H14   H     H_    0.742855 0.625011 0.879758 0.319134
O23   O     O_3   0.328725 0.164575 0.454140 -0.595114
H15   H     H_    0.280816 0.155546 0.395415 0.334138
O24   O     O_3   0.671198 0.835405 0.545860 -0.595034
H16   H     H_    0.720264 0.844624 0.604386 0.333952

loop_
_geom_bond_atom_site_label_1
_geom_bond_atom_site_label_2
_ccdc_geom_bond_type
C18   C21   S    
C28   C30   S    
O22   H14   S    
C31   H9    S    
C34   Br4   S    
C25   H7    S    
C36   Br2   S    
O13   V3    S    
C4    C37   S    
C35   Br1   S    
C10   C16   S    
O4    C2    A    
V1    O19   S    
C13   C15   S    
O21   H13   S    
O9    V1    S    
C27   O23   S    
C11   H1    S    
O3    C1    A    
C11   C13   S    
C5    C21   S    
C34   C40   S    
C15   Br7   S    
C25   C30   S    
C35   C37   S    
C33   C38   S    
C29   C31   S    
C11   C16   S    
O7    C3    A    
C30   C32   S    
C9    C11   S    
O5    C7    A    
O7    V1    S    
O6    C8    A    
O8    V2    S    
C21   C23   S    
C25   C31   S    
C22   C24   S    
C26   C32   S    
O3    V1    S    
C33   C39   S    
C17   H3    S    
C28   O24   S    
C10   C12   S    
C2    C29   S    
C18   C24   S    
C14   C16   S    
C2    O12   A    
C6    C22   S    
C39   H11   S    
C12   C15   S    
C18   C20   S    
O11   V3    S    
O17   V3    S    
C9    C14   S    
C10   C13   S    
C12   C14   S    
C33   Br3   S    
C38   C40   S    
O8    C4    A    
O24   H16   S    
C37   C39   S    
C1    O11   A    
C8    C13   S    
O15   V3    S    
C20   C23   S    
C26   H8    S    
C33   C35   S    
C32   H10   S    
C19   O21   S    
C1    C30   S    
C19   C21   S    
C7    C14   S    
O10   V2    S    
C36   C39   S    
O1    V3    S    
C16   Br8   S    
C35   C40   S    
C17   C19   S    
C40   H12   S    
O14   V4    S    
O18   V4    S    
C25   C27   S    
O16   C6    A    
O1    C3    A    
C12   H2    S    
C27   C32   S    
C20   O22   S    
V2    O20   S    
C28   C31   S    
O10   C6    A    
O16   V4    S    
C17   C22   S    
C27   C29   S    
O5    V1    S    
C3    C38   S    
O17   C7    A    
O6    V2    S    
C20   C22   S    
O18   C8    A    
C19   C24   S    
O2    V4    S    
C9    C15   S    
O15   C5    A    
V3    O19   S    
V4    O20   S    
C17   C23   S    
C9    Br5   S    
C34   C37   S    
O9    C5    A    
O13   V1    S    
C26   C28   S    
C24   H6    S    
O14   V2    S    
O2    C4    A    
O4    V2    S    
C34   C36   S    
C26   C29   S    
C36   C38   S    
C10   Br6   S    
C23   H5    S    
O23   H15   S    
O12   V4    S    
C18   H4    S    
