data_mof_unit_pretest_1930.cif
_audit_creation_date              2012-12-10T19:37:35-0500
_audit_creation_method            fapswitch 2.2
_symmetry_space_group_name_H-M    P1
_symmetry_Int_Tables_number       1
_space_group_crystal_system       triclinic
_cell_length_a                    30.491658
_cell_length_b                    30.500641
_cell_length_c                    39.84021
_cell_angle_alpha                 89.947692
_cell_angle_beta                  89.994216
_cell_angle_gamma                 89.998293
_cell_volume                      37051.981805

loop_
_atom_site_label
_atom_site_type_symbol
_atom_type_description
_atom_site_fract_x
_atom_site_fract_y
_atom_site_fract_z
_atom_type_partial_charge
C1    C     C_R   0.500265 0.000060 0.158898 0.538753
C2    C     C_R   0.040103 0.499278 0.896462 0.201519
C3    C     C_R   0.686437 0.147621 0.727306 0.265539
C4    C     C_R   0.852867 0.687350 0.271529 0.241623
C5    C     C_R   0.147104 0.313132 0.727835 0.265260
C6    C     C_R   0.687553 0.146900 0.271468 0.241686
C7    C     C_R   0.313608 0.852378 0.727331 0.265019
C8    C     C_R   0.147073 0.687435 0.728428 0.241651
C9    C     C_R   0.852374 0.313596 0.272704 0.265496
C10   C     C_R   0.310699 0.145124 0.730583 0.240956
C11   C     C_R   0.686333 0.852257 0.272716 0.265510
C12   C     C_R   0.852911 0.312638 0.728458 0.241541
C13   C     C_R   0.499756 0.040546 0.103499 0.194862
C14   C     C_R   0.147876 0.686148 0.272793 0.265495
C15   C     C_R   0.687749 0.853238 0.728852 0.241699
C16   C     C_R   0.313691 0.147721 0.272735 0.265482
C17   C     C_R   0.647242 0.812714 0.771730 0.240888
C18   C     C_R   0.352266 0.186336 0.227290 0.265237
C19   C     C_R   0.812558 0.352885 0.771522 0.241881
C20   C     C_R   0.186225 0.647845 0.227136 0.265555
C21   C     C_R   0.354989 0.189528 0.768690 0.239945
C22   C     C_R   0.647773 0.813768 0.227261 0.265410
C23   C     C_R   0.187380 0.647131 0.771536 0.241633
C24   C     C_R   0.511888 0.963548 0.896410 0.200012
C25   C     C_R   0.813644 0.352295 0.227384 0.265612
C26   C     C_R   0.646976 0.187606 0.228731 0.241839
C27   C     C_R   0.352253 0.813653 0.772679 0.264979
C28   C     C_R   0.812607 0.647141 0.228401 0.241686
C29   C     C_R   0.186905 0.352762 0.772071 0.265420
C30   C     C_R   0.352389 0.813167 0.227880 0.241712
C31   C     C_R   0.647656 0.186393 0.772514 0.266607
C32   C     C_R   0.187383 0.352874 0.228440 0.241636
C33   C     C_R   0.813776 0.647809 0.772812 0.265535
C34   C     C_R   0.183373 0.316613 0.250019 0.210649
C35   C     C_R   0.040109 0.500788 0.103533 0.201458
C36   C     C_R   0.816632 0.683748 0.750192 0.120030
C37   C     C_R   0.316609 0.816648 0.249962 0.210830
C38   C     C_R   0.683584 0.183538 0.749899 0.119112
C39   C     C_R   0.816614 0.683372 0.249960 0.210641
C40   C     C_R   0.183531 0.316415 0.749931 0.120802
C41   C     C_R   0.683403 0.183364 0.250105 0.210542
C42   C     C_R   0.316391 0.816488 0.750001 0.120028
C43   C     C_R   0.183344 0.683413 0.749981 0.210643
C44   C     C_R   0.816481 0.316408 0.250054 0.120011
C45   C     C_R   0.316679 0.183421 0.749642 0.210106
C46   C     C_R   0.959883 0.500719 0.896464 0.201487
C47   C     C_R   0.683588 0.816480 0.249986 0.120113
C48   C     C_R   0.816612 0.316637 0.749984 0.210603
C49   C     C_R   0.183587 0.683532 0.249958 0.119771
C50   C     C_R   0.683640 0.816876 0.750316 0.211132
C51   C     C_R   0.316445 0.183561 0.250015 0.120084
C52   C     C_R   0.118333 0.381658 0.250008 -0.028185
C53   C     C_R   0.881713 0.618398 0.750050 -0.069290
C54   C     C_R   0.381645 0.881696 0.249982 -0.027914
C55   C     C_R   0.618356 0.118327 0.749954 -0.070349
C56   C     C_R   0.881656 0.618323 0.249980 -0.028146
C57   C     C_R   0.502746 0.960585 0.103211 0.193440
C58   C     C_R   0.118338 0.381655 0.749998 -0.069111
C59   C     C_R   0.618325 0.118353 0.250051 -0.028267
C60   C     C_R   0.381640 0.881673 0.750008 -0.070308
C61   C     C_R   0.118324 0.618349 0.749989 -0.028195
C62   C     C_R   0.881674 0.381644 0.250017 -0.069270
C63   C     C_R   0.381749 0.118398 0.749798 -0.034848
C64   C     C_R   0.618357 0.881684 0.250001 -0.069009
C65   C     C_R   0.881654 0.381681 0.750008 -0.028120
C66   C     C_R   0.118358 0.618320 0.249980 -0.069296
C67   C     C_R   0.618445 0.881766 0.750143 -0.032538
C68   C     C_R   0.470863 0.032401 0.894879 0.219680
C69   C     C_R   0.381662 0.118346 0.250003 -0.069358
C70   C     C_R   0.257412 0.290363 0.266566 0.223963
C71   C     C_R   0.743651 0.711147 0.732035 0.180176
C72   C     C_R   0.290673 0.742336 0.266060 0.223916
C73   C     C_R   0.710819 0.256620 0.731809 0.180136
C74   C     C_R   0.742577 0.709606 0.266508 0.223948
C75   C     C_R   0.255030 0.287752 0.729638 0.180135
C76   C     C_R   0.709757 0.257254 0.266832 0.224134
C77   C     C_R   0.289204 0.743428 0.731934 0.180318
C78   C     C_R   0.257363 0.709699 0.733406 0.223913
C79   C     C_R   0.459851 0.000523 0.603556 0.201756
C80   C     C_R   0.743488 0.289090 0.268282 0.180024
C81   C     C_R   0.288865 0.256004 0.730899 0.224865
C82   C     C_R   0.710746 0.743341 0.268000 0.180017
C83   C     C_R   0.742639 0.290362 0.733323 0.224167
C84   C     C_R   0.256986 0.710449 0.267552 0.179927
C85   C     C_R   0.709935 0.742995 0.733540 0.224119
C86   C     C_R   0.289262 0.256642 0.268041 0.180014
C87   C     C_R   0.757563 0.790460 0.767030 0.223764
C88   C     C_R   0.243321 0.210763 0.232000 0.179862
C89   C     C_R   0.790362 0.242614 0.766564 0.224352
C90   C     C_R   0.540059 0.998429 0.396465 0.201293
C91   C     C_R   0.210479 0.756944 0.232342 0.179982
C92   C     C_R   0.244077 0.211005 0.768507 0.223722
C93   C     C_R   0.756702 0.789293 0.231953 0.179849
C94   C     C_R   0.209558 0.757411 0.766549 0.224116
C95   C     C_R   0.789196 0.243420 0.231905 0.180084
C96   C     C_R   0.757357 0.209690 0.233392 0.224183
C97   C     C_R   0.243277 0.789259 0.768031 0.179616
C98   C     C_R   0.790410 0.757426 0.233416 0.223983
C99   C     C_R   0.212333 0.244827 0.769964 0.180308
C100  C     C_R   0.242330 0.790658 0.233849 0.223953
C101  C     C_R   0.999273 0.540127 0.603513 0.201479
C102  C     C_R   0.756654 0.210748 0.768002 0.180470
C103  C     C_R   0.209596 0.242606 0.233479 0.223965
C104  C     C_R   0.789389 0.756711 0.768459 0.179941
C105  C     C_R   0.282274 0.217724 0.250018 -0.002032
C106  C     C_R   0.717749 0.782741 0.750302 0.135486
C107  C     C_R   0.217756 0.717706 0.249945 -0.002061
C108  C     C_R   0.782496 0.282508 0.749966 0.135522
C109  C     C_R   0.717751 0.782306 0.249985 -0.002036
C110  C     C_R   0.282488 0.217493 0.749658 0.135052
C111  C     C_R   0.782320 0.282237 0.250081 -0.002085
C112  C     C_R   0.499466 0.999898 0.840929 0.523026
C113  C     C_R   0.999246 0.459875 0.396487 0.201472
C114  C     C_R   0.217456 0.717545 0.749977 0.135413
C115  C     C_R   0.282220 0.782325 0.749987 -0.001949
C116  C     C_R   0.717547 0.217466 0.250118 0.135331
C117  C     C_R   0.217710 0.282268 0.749853 -0.001914
C118  C     C_R   0.782495 0.717500 0.249955 0.135413
C119  C     C_R   0.717763 0.217695 0.749889 -0.002298
C120  C     C_R   0.282500 0.782513 0.249959 0.135681
C121  C     C_R   0.782493 0.717942 0.750228 -0.002052
C122  C     C_R   0.217495 0.282491 0.250023 0.135417
C123  C     C_R   0.960257 0.496784 0.068332 0.209629
C124  C     C_R   0.540078 0.999871 0.603517 0.201562
C125  C     C_R   0.039736 0.496849 0.931676 0.209618
C126  C     C_R   0.495485 0.040570 0.068225 0.210881
C127  C     C_R   0.506053 0.961641 0.931374 0.207716
C128  C     C_R   0.039737 0.503216 0.068319 0.209635
C129  C     C_R   0.960245 0.503145 0.931674 0.209697
C130  C     C_R   0.505073 0.961464 0.067904 0.206399
C131  C     C_R   0.468570 0.031919 0.930250 0.245749
C132  C     C_R   0.460121 0.998164 0.568345 0.209974
C133  C     C_R   0.539618 0.996054 0.431683 0.209481
C134  C     C_R   0.996859 0.539762 0.568299 0.209649
C135  C     C_R   0.459894 0.001805 0.396446 0.201317
C136  C     C_R   0.996831 0.460241 0.431702 0.209633
C137  C     C_R   0.539751 0.002370 0.568308 0.209825
C138  C     C_R   0.460306 0.004329 0.431654 0.209453
C139  C     C_R   0.003202 0.460298 0.568353 0.209609
C140  C     C_R   0.003230 0.539700 0.431646 0.209605
C141  C     C_3   0.909377 0.449476 0.048059 0.012292
C142  C     C_3   0.868414 0.445611 0.026501 -0.366452
C143  C     C_3   0.090698 0.449628 0.952019 0.012414
C144  C     C_3   0.131665 0.445835 0.973585 -0.366938
C145  C     C_3   0.453634 0.099990 0.054265 0.011817
C146  C     C_R   0.000759 0.459930 0.603563 0.201547
C147  C     C_3   0.452198 0.140654 0.032180 -0.355955
C148  C     C_3   0.483839 0.893327 0.945550 0.012505
C149  C     C_3   0.492328 0.854321 0.968393 -0.373431
C150  C     C_3   0.090615 0.550525 0.047968 0.012376
C151  C     C_3   0.131574 0.554389 0.026394 -0.366990
C152  C     C_3   0.909276 0.550362 0.951955 0.012362
C153  C     C_3   0.868311 0.554153 0.973524 -0.366822
C154  C     C_3   0.560695 0.916827 0.052074 0.015402
C155  C     C_3   0.573938 0.879602 0.028876 -0.373041
C156  C     C_3   0.401002 0.055680 0.947479 0.010814
C157  C     C_R   0.000786 0.540070 0.396437 0.201505
C158  C     C_3   0.382569 0.062334 0.982507 -0.381929
C159  C     C_3   0.407840 0.952398 0.548088 0.012693
C160  C     C_3   0.366784 0.949747 0.526526 -0.367177
C161  C     C_3   0.589365 0.947552 0.452019 0.012333
C162  C     C_3   0.630206 0.942705 0.473602 -0.367155
C163  C     C_3   0.949608 0.590687 0.547944 0.012454
C164  C     C_3   0.945802 0.631638 0.526345 -0.367140
C165  C     C_3   0.949543 0.409353 0.452063 0.012448
C166  C     C_3   0.945707 0.368406 0.473663 -0.367125
C167  C     C_3   0.591914 0.048277 0.547988 0.012647
C168  C     C_R   0.000001 0.500000 0.121608 -0.050141
C169  C     C_3   0.632965 0.051041 0.526418 -0.367194
C170  C     C_3   0.410571 0.052941 0.451794 0.012268
C171  C     C_3   0.369748 0.057901 0.473380 -0.367185
C172  C     C_3   0.050472 0.409378 0.548079 0.012478
C173  C     C_3   0.054297 0.368424 0.526543 -0.367142
C174  C     C_3   0.050537 0.590585 0.451911 0.012443
C175  C     C_3   0.054392 0.631535 0.473448 -0.367113
C176  C     C_3   0.902489 0.540498 0.121458 0.027549
C177  C     C_3   0.860579 0.539778 0.142150 -0.349258
C178  C     C_3   0.097431 0.540659 0.878487 0.027547
C179  C     C_R   0.999995 0.499999 0.878391 -0.050157
C180  C     C_3   0.139384 0.539994 0.857848 -0.349310
C181  C     C_3   0.545229 0.094799 0.121112 0.023569
C182  C     C_3   0.547521 0.137281 0.140976 -0.352448
C183  C     C_3   0.578428 0.936659 0.881320 0.015797
C184  C     C_3   0.601436 0.901697 0.860588 -0.353680
C185  C     C_3   0.097518 0.459511 0.121493 0.027570
C186  C     C_3   0.139447 0.460242 0.142153 -0.349371
C187  C     C_3   0.902566 0.459332 0.878543 0.027585
C188  C     C_3   0.860647 0.459984 0.857867 -0.349104
C189  C     C_3   0.465245 0.899914 0.119671 0.024765
C190  C     C_R   0.500609 0.000352 0.121460 -0.045613
C191  C     C_3   0.467727 0.858874 0.141306 -0.348364
C192  C     C_3   0.412275 0.052971 0.862480 0.004840
C193  C     C_3   0.386737 0.092935 0.850675 -0.340705
C194  C     C_3   0.403991 0.043620 0.621799 0.027549
C195  C     C_3   0.362109 0.044174 0.642532 -0.349992
C196  C     C_3   0.598484 0.038336 0.378583 0.027597
C197  C     C_3   0.640073 0.036768 0.357540 -0.348912
C198  C     C_3   0.040627 0.597453 0.621433 0.027585
C199  C     C_3   0.039942 0.639355 0.642087 -0.349523
C200  C     C_3   0.040557 0.402511 0.378566 0.027561
C201  C     C_R   0.494643 0.999147 0.877894 -0.051047
C202  C     C_3   0.039844 0.360613 0.357908 -0.349476
C203  C     C_3   0.596206 0.956951 0.621565 0.027593
C204  C     C_3   0.638440 0.956598 0.641861 -0.350144
C205  C     C_3   0.401433 0.961882 0.378721 0.027484
C206  C     C_3   0.359788 0.963429 0.357748 -0.348783
C207  C     C_3   0.959396 0.402587 0.621530 0.027657
C208  C     C_3   0.960081 0.360647 0.642196 -0.349474
C209  C     C_3   0.959464 0.597448 0.378480 0.027615
C210  C     C_3   0.960174 0.639379 0.357803 -0.349455
C211  C     C_R   0.499979 0.000129 0.621610 -0.050654
C212  C     C_R   0.000001 0.500000 0.158946 0.536591
C213  C     C_R   0.499984 0.000073 0.378389 -0.049765
C214  C     C_R   0.000009 0.500028 0.621610 -0.050128
C215  C     C_R   0.000009 0.499972 0.378390 -0.050133
C216  C     C_R   0.999996 0.500000 0.050954 -0.051221
C217  C     C_R   0.999989 0.499997 0.949046 -0.051222
C218  C     C_R   0.498002 0.000869 0.050613 -0.043167
C219  C     C_R   0.488130 0.997601 0.948361 -0.051043
C220  C     C_R   0.499926 0.000280 0.550953 -0.051403
C221  C     C_R   0.499953 0.000223 0.449041 -0.051041
C222  C     C_R   0.000034 0.500029 0.550954 -0.051223
C223  C     C_R   0.999998 0.500000 0.841054 0.536526
C224  C     C_R   0.000035 0.499972 0.449045 -0.051226
C225  C     C_1   0.999992 0.499999 0.015031 0.071263
C226  C     C_1   0.999989 0.499998 0.984969 0.071270
C227  C     C_1   0.493892 0.000348 0.014572 0.087921
C228  C     C_1   0.490512 0.999255 0.984464 0.090770
C229  C     C_1   0.499916 0.000286 0.515029 0.071299
C230  C     C_1   0.499930 0.000269 0.484965 0.071515
C231  C     C_1   0.000036 0.500015 0.515031 0.071251
C232  C     C_1   0.000036 0.499987 0.484968 0.071252
C233  C     C_R   0.415788 0.915808 0.250000 0.516304
C234  C     C_R   0.000001 0.500014 0.658948 0.536501
C235  C     C_R   0.584213 0.084200 0.749988 0.510300
C236  C     C_R   0.915792 0.584197 0.249993 0.515746
C237  C     C_R   0.084208 0.415797 0.750005 0.512246
C238  C     C_R   0.584201 0.084217 0.250009 0.515761
C239  C     C_R   0.415786 0.915792 0.750005 0.507075
C240  C     C_R   0.084207 0.415789 0.250002 0.515932
C241  C     C_R   0.915796 0.584218 0.750004 0.512394
C242  C     C_R   0.415811 0.084211 0.749964 0.507513
C243  C     C_R   0.584211 0.915803 0.250004 0.512524
C244  C     C_R   0.915791 0.415803 0.750006 0.515774
C245  C     C_R   0.000001 0.499986 0.341052 0.536469
C246  C     C_R   0.084213 0.584198 0.249993 0.512218
C247  C     C_R   0.584230 0.915811 0.750030 0.511193
C248  C     C_R   0.415791 0.084213 0.250000 0.512084
C249  C     C_R   0.084205 0.584211 0.749997 0.515867
C250  C     C_R   0.915794 0.415786 0.250003 0.512432
C251  C     C_R   0.114702 0.345277 0.271390 -0.138875
C252  C     C_R   0.884528 0.653946 0.727890 -0.070498
C253  C     C_R   0.345735 0.884807 0.271860 -0.138574
C254  C     C_R   0.653895 0.115513 0.727796 -0.070509
C255  C     C_R   0.885282 0.654676 0.271340 -0.138829
C256  C     C_R   0.499999 0.000026 0.658946 0.536171
C257  C     C_R   0.115073 0.345744 0.728266 -0.070187
C258  C     C_R   0.654858 0.114505 0.271249 -0.138706
C259  C     C_R   0.346158 0.884473 0.727799 -0.071429
C260  C     C_R   0.114668 0.654751 0.728630 -0.138899
C261  C     C_R   0.884469 0.346146 0.272226 -0.070424
C262  C     C_R   0.343411 0.112741 0.730837 -0.141579
C263  C     C_R   0.653790 0.884365 0.272260 -0.070498
C264  C     C_R   0.885324 0.345310 0.728668 -0.138802
C265  C     C_R   0.115745 0.653633 0.272326 -0.070516
C266  C     C_R   0.655007 0.885583 0.728973 -0.138395
C267  C     C_R   0.499997 0.000011 0.341053 0.537798
C268  C     C_R   0.346226 0.115610 0.272265 -0.070418
C269  C     C_R   0.614739 0.845303 0.771442 -0.145976
C270  C     C_R   0.384380 0.153801 0.227749 -0.071032
C271  C     C_R   0.845234 0.385302 0.771338 -0.138838
C272  C     C_R   0.153698 0.615722 0.227624 -0.070529
C273  C     C_R   0.387433 0.156885 0.768533 -0.149097
C274  C     C_R   0.615654 0.846295 0.227733 -0.070604
C275  C     C_R   0.154717 0.614705 0.771343 -0.138892
C276  C     C_R   0.846173 0.384413 0.227825 -0.070336
C277  C     C_R   0.614539 0.154957 0.228914 -0.139058
C278  C     C_R   0.959891 0.499214 0.103542 0.201531
C279  C     C_R   0.384381 0.846173 0.772218 -0.072508
C280  C     C_R   0.845281 0.614721 0.228608 -0.138858
C281  C     C_R   0.154310 0.384825 0.771706 -0.070199
C282  C     C_R   0.384798 0.845850 0.228075 -0.138144
C283  C     C_R   0.615542 0.153863 0.772076 -0.068774
C284  C     C_R   0.154710 0.385291 0.228632 -0.138857
C285  C     C_R   0.846248 0.615636 0.772283 -0.070359
C286  C     C_R   0.147117 0.312602 0.271593 0.241672
C287  C     C_R   0.852489 0.686555 0.727502 0.265469
C288  C     C_R   0.313062 0.852387 0.272043 0.241737
H1    H     H_    0.086701 0.342228 0.287946 0.121987
H2    H     H_    0.911705 0.343613 0.289590 0.175801
H3    H     H_    0.857986 0.410780 0.025107 0.109273
H4    H     H_    0.841401 0.465302 0.037562 0.163756
H5    H     H_    0.098071 0.435550 0.926859 0.175049
H6    H     H_    0.064190 0.430066 0.964186 0.124839
H7    H     H_    0.124752 0.457806 0.999358 0.190114
H8    H     H_    0.142155 0.411022 0.975030 0.108241
H9    H     H_    0.158645 0.465572 0.962498 0.163598
H10   H     H_    0.447919 0.110565 0.080582 0.188146
H11   H     H_    0.426696 0.077543 0.046638 0.112480
H12   H     H_    0.458692 0.131639 0.005636 0.201792
H13   H     H_    0.338801 0.083116 0.716293 0.123070
H14   H     H_    0.419394 0.156296 0.033945 0.100402
H15   H     H_    0.477465 0.164494 0.040540 0.169085
H16   H     H_    0.482147 0.881109 0.919260 0.180603
H17   H     H_    0.451415 0.907555 0.952646 0.117366
H18   H     H_    0.490495 0.864761 0.995030 0.186406
H19   H     H_    0.467027 0.828771 0.964022 0.110294
H20   H     H_    0.525150 0.840129 0.963109 0.160735
H21   H     H_    0.097965 0.564614 0.073128 0.174949
H22   H     H_    0.064071 0.570043 0.035807 0.124738
H23   H     H_    0.124679 0.542410 0.000622 0.190120
H24   H     H_    0.656270 0.911513 0.289683 0.175431
H25   H     H_    0.142002 0.589221 0.024949 0.108162
H26   H     H_    0.158589 0.534698 0.037475 0.163533
H27   H     H_    0.901900 0.564437 0.926775 0.175017
H28   H     H_    0.935783 0.569929 0.964087 0.124712
H29   H     H_    0.875229 0.542188 0.999313 0.190087
H30   H     H_    0.857817 0.588966 0.974919 0.108246
H31   H     H_    0.841333 0.534412 0.962471 0.163821
H32   H     H_    0.570540 0.907685 0.078052 0.181517
H33   H     H_    0.579265 0.946654 0.044218 0.127419
H34   H     H_    0.568521 0.889399 0.002380 0.191868
H35   H     H_    0.913358 0.342263 0.712150 0.121990
H36   H     H_    0.609302 0.872129 0.032289 0.110138
H37   H     H_    0.554555 0.849717 0.034687 0.161040
H38   H     H_    0.392224 0.021589 0.939628 0.091703
H39   H     H_    0.384316 0.079005 0.930310 0.163155
H40   H     H_    0.388037 0.096601 0.990767 0.156173
H41   H     H_    0.346742 0.055800 0.982425 0.108512
H42   H     H_    0.398551 0.039222 0.000217 0.146659
H43   H     H_    0.400074 0.938535 0.573269 0.175190
H44   H     H_    0.433791 0.932097 0.535953 0.124722
H45   H     H_    0.374041 0.961473 0.500727 0.190007
H46   H     H_    0.088643 0.656027 0.289825 0.175889
H47   H     H_    0.355304 0.915246 0.525159 0.108162
H48   H     H_    0.340377 0.970263 0.537565 0.163439
H49   H     H_    0.596405 0.933321 0.426853 0.174944
H50   H     H_    0.562364 0.928647 0.464159 0.124865
H51   H     H_    0.623567 0.954791 0.499386 0.190236
H52   H     H_    0.639829 0.907640 0.475013 0.108163
H53   H     H_    0.657676 0.961788 0.462552 0.163331
H54   H     H_    0.935514 0.598055 0.573107 0.174954
H55   H     H_    0.930056 0.564177 0.535811 0.124810
H56   H     H_    0.957787 0.624728 0.500571 0.190091
H57   H     H_    0.658147 0.913675 0.712517 0.121980
H58   H     H_    0.910974 0.642108 0.524912 0.108117
H59   H     H_    0.965528 0.658620 0.537398 0.163328
H60   H     H_    0.935446 0.401995 0.426902 0.174964
H61   H     H_    0.930009 0.435879 0.464197 0.124812
H62   H     H_    0.957696 0.375307 0.499436 0.190093
H63   H     H_    0.910872 0.357962 0.475101 0.108153
H64   H     H_    0.965415 0.341408 0.462608 0.163334
H65   H     H_    0.599652 0.062122 0.573159 0.175095
H66   H     H_    0.565921 0.068540 0.535845 0.124840
H67   H     H_    0.625736 0.039317 0.500630 0.190078
H68   H     H_    0.343737 0.088412 0.289680 0.175553
H69   H     H_    0.644365 0.085569 0.525017 0.108193
H70   H     H_    0.659418 0.030576 0.537472 0.163297
H71   H     H_    0.403523 0.067064 0.426576 0.175039
H72   H     H_    0.437589 0.071888 0.463845 0.124890
H73   H     H_    0.376401 0.045929 0.499209 0.190122
H74   H     H_    0.360139 0.092976 0.474655 0.108298
H75   H     H_    0.342262 0.038779 0.462423 0.163300
H76   H     H_    0.064552 0.402017 0.573256 0.175039
H77   H     H_    0.070028 0.435889 0.535911 0.124816
H78   H     H_    0.042325 0.375327 0.500756 0.190129
H79   H     H_    0.586607 0.842120 0.787869 0.132810
H80   H     H_    0.089127 0.357958 0.525132 0.108137
H81   H     H_    0.034568 0.341441 0.537633 0.163311
H82   H     H_    0.064620 0.597936 0.426732 0.174962
H83   H     H_    0.070075 0.564058 0.464075 0.124798
H84   H     H_    0.042417 0.624640 0.499237 0.190132
H85   H     H_    0.089229 0.641974 0.474853 0.108167
H86   H     H_    0.034681 0.658533 0.462362 0.163329
H87   H     H_    0.894328 0.552624 0.095840 0.162233
H88   H     H_    0.925843 0.563732 0.133589 0.124685
H89   H     H_    0.867664 0.527696 0.167891 0.185573
H90   H     H_    0.411564 0.156305 0.210331 0.175971
H91   H     H_    0.846703 0.573373 0.143801 0.092628
H92   H     H_    0.836069 0.517840 0.130203 0.165774
H93   H     H_    0.105515 0.552833 0.904089 0.162127
H94   H     H_    0.074054 0.563832 0.866278 0.124723
H95   H     H_    0.132379 0.527851 0.832128 0.185503
H96   H     H_    0.153191 0.573615 0.856133 0.092706
H97   H     H_    0.163917 0.518128 0.869878 0.165674
H98   H     H_    0.557655 0.101316 0.095297 0.167046
H99   H     H_    0.566889 0.070279 0.133614 0.127376
H100  H     H_    0.534740 0.131927 0.166756 0.184017
H101  H     H_    0.842155 0.413297 0.787864 0.122062
H102  H     H_    0.582054 0.148666 0.142567 0.100031
H103  H     H_    0.527529 0.162950 0.128433 0.162743
H104  H     H_    0.590729 0.934572 0.907594 0.165174
H105  H     H_    0.587054 0.969316 0.870567 0.119459
H106  H     H_    0.590387 0.903640 0.834080 0.174569
H107  H     H_    0.637466 0.906855 0.861478 0.112592
H108  H     H_    0.593771 0.868621 0.870689 0.166335
H109  H     H_    0.105654 0.447375 0.095889 0.162214
H110  H     H_    0.074176 0.436280 0.133679 0.124823
H111  H     H_    0.132387 0.472338 0.167878 0.185543
H112  H     H_    0.911741 0.656476 0.710500 0.175754
H113  H     H_    0.156103 0.588640 0.210134 0.175856
H114  H     H_    0.153326 0.426649 0.143850 0.092635
H115  H     H_    0.163945 0.482176 0.130150 0.165601
H116  H     H_    0.894441 0.447170 0.904159 0.162520
H117  H     H_    0.925964 0.436155 0.866391 0.124807
H118  H     H_    0.867695 0.472109 0.832131 0.185464
H119  H     H_    0.846843 0.426362 0.856200 0.093420
H120  H     H_    0.836093 0.481858 0.869837 0.165883
H121  H     H_    0.455873 0.890027 0.093752 0.162541
H122  H     H_    0.439282 0.921623 0.130287 0.123695
H123  H     H_    0.476925 0.867746 0.167407 0.185766
H124  H     H_    0.417118 0.161646 0.783004 0.134995
H125  H     H_    0.435336 0.842231 0.141680 0.091484
H126  H     H_    0.492629 0.835977 0.130991 0.167039
H127  H     H_    0.391173 0.034063 0.880088 0.088159
H128  H     H_    0.418805 0.032085 0.840239 0.133634
H129  H     H_    0.407090 0.112457 0.833073 0.179276
H130  H     H_    0.356350 0.082432 0.837589 0.109395
H131  H     H_    0.377730 0.113763 0.872452 0.158184
H132  H     H_    0.396254 0.056337 0.596270 0.161557
H133  H     H_    0.428187 0.065842 0.634076 0.124801
H134  H     H_    0.368748 0.031367 0.668134 0.186219
H135  H     H_    0.588477 0.843834 0.210312 0.175022
H136  H     H_    0.349558 0.078250 0.644562 0.098272
H137  H     H_    0.336744 0.023422 0.630388 0.163833
H138  H     H_    0.607300 0.049968 0.404189 0.162714
H139  H     H_    0.575580 0.062305 0.366750 0.124853
H140  H     H_    0.632314 0.025260 0.331773 0.186139
H141  H     H_    0.654835 0.069995 0.355999 0.092043
H142  H     H_    0.664141 0.014003 0.369136 0.165718
H143  H     H_    0.052791 0.605590 0.595822 0.162187
H144  H     H_    0.063826 0.574077 0.633612 0.124798
H145  H     H_    0.027816 0.632294 0.667819 0.185535
H146  H     H_    0.157787 0.586684 0.787882 0.121986
H147  H     H_    0.073564 0.653179 0.643771 0.092733
H148  H     H_    0.018045 0.663888 0.630090 0.165397
H149  H     H_    0.052706 0.394360 0.404177 0.162185
H150  H     H_    0.063779 0.425869 0.366389 0.124750
H151  H     H_    0.027736 0.367689 0.332176 0.185551
H152  H     H_    0.073454 0.346757 0.356228 0.092633
H153  H     H_    0.017919 0.336099 0.369901 0.165453
H154  H     H_    0.603585 0.944283 0.595975 0.161512
H155  H     H_    0.572321 0.934612 0.634100 0.125045
H156  H     H_    0.632170 0.969373 0.667512 0.185048
H157  H     H_    0.843622 0.411647 0.210448 0.175899
H158  H     H_    0.651198 0.922584 0.643788 0.094421
H159  H     H_    0.663485 0.977485 0.629434 0.164813
H160  H     H_    0.392672 0.950338 0.404379 0.162693
H161  H     H_    0.424283 0.937854 0.366928 0.124754
H162  H     H_    0.367494 0.974813 0.331923 0.185929
H163  H     H_    0.344965 0.930221 0.356369 0.090874
H164  H     H_    0.335791 0.986284 0.369298 0.166057
H165  H     H_    0.947238 0.394496 0.595922 0.162125
H166  H     H_    0.936193 0.425940 0.633702 0.124825
H167  H     H_    0.972209 0.367659 0.667923 0.185524
H168  H     H_    0.586385 0.158222 0.212552 0.121568
H169  H     H_    0.926458 0.346821 0.643890 0.092688
H170  H     H_    0.981976 0.336136 0.630202 0.165398
H171  H     H_    0.947324 0.605560 0.404091 0.162149
H172  H     H_    0.936237 0.574110 0.366323 0.124817
H173  H     H_    0.972279 0.632344 0.332072 0.185598
H174  H     H_    0.926563 0.653236 0.356125 0.092588
H175  H     H_    0.982099 0.663874 0.369780 0.165445
H176  H     H_    0.411597 0.843619 0.789596 0.176654
H177  H     H_    0.842237 0.586742 0.212064 0.122041
H178  H     H_    0.157254 0.412400 0.788688 0.175746
H179  H     H_    0.412394 0.843254 0.211073 0.122723
H180  H     H_    0.343075 0.912385 0.288836 0.121963
H181  H     H_    0.588277 0.156438 0.789408 0.180689
H182  H     H_    0.157759 0.413296 0.212073 0.122012
H183  H     H_    0.843683 0.588366 0.789625 0.175937
H184  H     H_    0.117054 0.278930 0.306150 0.326083
H185  H     H_    0.832605 0.740513 0.705427 0.344861
H186  H     H_    0.280126 0.881629 0.307377 0.325902
H187  H     H_    0.740233 0.167632 0.705073 0.344831
H188  H     H_    0.882927 0.720970 0.306066 0.326070
H189  H     H_    0.166001 0.258238 0.706681 0.344639
H190  H     H_    0.721465 0.116486 0.305700 0.326134
H191  H     H_    0.656465 0.088254 0.710483 0.176186
H192  H     H_    0.259843 0.832380 0.705079 0.344853
H193  H     H_    0.116976 0.721131 0.693906 0.326058
H194  H     H_    0.832413 0.259759 0.294914 0.344808
H195  H     H_    0.273860 0.111781 0.699956 0.326594
H196  H     H_    0.740063 0.832143 0.294984 0.344857
H197  H     H_    0.883046 0.278988 0.693971 0.326067
H198  H     H_    0.168194 0.739589 0.295287 0.344847
H199  H     H_    0.721612 0.883514 0.694515 0.326060
H200  H     H_    0.259975 0.167790 0.295028 0.344830
H201  H     H_    0.617018 0.778851 0.806092 0.329221
H202  H     H_    0.913280 0.657705 0.287892 0.122038
H203  H     H_    0.332177 0.240074 0.205012 0.344854
H204  H     H_    0.778821 0.382933 0.806006 0.326637
H205  H     H_    0.239710 0.668167 0.204632 0.344922
H206  H     H_    0.388300 0.226531 0.799219 0.332677
H207  H     H_    0.667879 0.760106 0.204956 0.344862
H208  H     H_    0.221077 0.617037 0.806057 0.326243
H209  H     H_    0.759824 0.332292 0.205212 0.345141
H210  H     H_    0.616673 0.221610 0.194493 0.326841
H211  H     H_    0.332167 0.759899 0.794937 0.344860
H212  H     H_    0.778946 0.617122 0.193865 0.326184
H213  H     H_    0.087446 0.342865 0.711304 0.175787
H214  H     H_    0.241821 0.333718 0.793172 0.345072
H215  H     H_    0.381714 0.780317 0.192544 0.326014
H216  H     H_    0.667663 0.240180 0.794693 0.345521
H217  H     H_    0.221047 0.382943 0.193883 0.326167
H218  H     H_    0.760046 0.667863 0.795095 0.344928
H219  H     H_    0.295880 0.337335 0.281228 0.348046
H220  H     H_    0.719949 0.679132 0.694007 0.344583
H221  H     H_    0.337920 0.703662 0.279938 0.347991
H222  H     H_    0.678557 0.280491 0.693926 0.344643
H223  H     H_    0.704088 0.662615 0.281175 0.348027
H224  H     H_    0.658011 0.086346 0.287648 0.122405
H225  H     H_    0.275600 0.317077 0.689296 0.344404
H226  H     H_    0.662844 0.295602 0.281813 0.348138
H227  H     H_    0.321571 0.719607 0.694112 0.344588
H228  H     H_    0.295833 0.662751 0.718692 0.348209
H229  H     H_    0.719815 0.321205 0.306275 0.344540
H230  H     H_    0.334443 0.293126 0.712120 0.348384
H231  H     H_    0.678353 0.719387 0.305793 0.344541
H232  H     H_    0.704195 0.337317 0.718523 0.348386
H233  H     H_    0.281505 0.677465 0.304830 0.344607
H234  H     H_    0.662999 0.704705 0.718526 0.348260
H235  H     H_    0.343643 0.911709 0.710421 0.175884
H236  H     H_    0.321650 0.280510 0.305830 0.344532
H237  H     H_    0.795957 0.837292 0.782063 0.347835
H238  H     H_    0.219397 0.178431 0.194211 0.344257
H239  H     H_    0.837341 0.204198 0.781363 0.347961
H240  H     H_    0.177514 0.781476 0.195065 0.344513
H241  H     H_    0.207073 0.165329 0.787281 0.347288
H242  H     H_    0.780632 0.821711 0.194162 0.344520
H243  H     H_    0.162550 0.795821 0.781259 0.347674
H244  H     H_    0.821342 0.219770 0.193909 0.344929
H245  H     H_    0.795728 0.162804 0.218415 0.348055
H246  H     H_    0.086655 0.657810 0.712092 0.121979
H247  H     H_    0.219369 0.821545 0.805853 0.343888
H248  H     H_    0.837434 0.795875 0.218748 0.347971
H249  H     H_    0.183232 0.224015 0.810324 0.343944
H250  H     H_    0.203610 0.837866 0.219970 0.347852
H251  H     H_    0.780459 0.178414 0.805880 0.345421
H252  H     H_    0.162588 0.204172 0.218818 0.347904
H253  H     H_    0.821557 0.780255 0.806476 0.344350
H254  H     H_    0.902031 0.435387 0.073241 0.175184
H255  H     H_    0.935918 0.429958 0.035920 0.124939
H256  H     H_    0.875305 0.457591 0.000710 0.190168
O1    O     O_3   0.500000 1.000000 0.250000 -0.444644
O2    O     O_R   0.500000 0.036360 0.824790 -0.509616
O3    O     O_3   0.327158 0.260333 0.286840 -0.680000
O4    O     O_3   0.764103 0.831025 0.781603 -0.679308
O5    O     O_3   0.239602 0.172901 0.213198 -0.680733
O6    O     O_3   0.831028 0.236037 0.781013 -0.677125
O7    O     O_3   0.172303 0.760950 0.213911 -0.680104
O8    O     O_3   0.238814 0.171557 0.785103 -0.681871
O9    O     O_3   0.760435 0.827202 0.213157 -0.680306
O10   O     O_3   0.168852 0.763980 0.780931 -0.677939
O11   O     O_3   0.826970 0.239838 0.212944 -0.679974
O12   O     O_3   0.763878 0.169093 0.218863 -0.677039
O13   O     O_R   0.963640 0.500000 0.175210 -0.506371
O14   O     O_3   0.239562 0.827099 0.786859 -0.682608
O15   O     O_3   0.831124 0.764035 0.219050 -0.677616
O16   O     O_3   0.176088 0.242653 0.790716 -0.681176
O17   O     O_3   0.235471 0.831601 0.219939 -0.677745
O18   O     O_3   0.760325 0.172881 0.786856 -0.679204
O19   O     O_3   0.168882 0.236014 0.219124 -0.677731
O20   O     O_3   0.827171 0.760230 0.787411 -0.680466
O21   O     O_3   0.921218 0.494075 0.050765 -0.553058
O22   O     O_3   0.078778 0.494207 0.949249 -0.552993
O23   O     O_3   0.494923 0.079660 0.050508 -0.539779
O24   O     O_R   0.036360 0.500000 0.824790 -0.506276
O25   O     O_3   0.517977 0.924431 0.949058 -0.545455
O26   O     O_3   0.078774 0.505926 0.050739 -0.552978
O27   O     O_3   0.921200 0.505784 0.949247 -0.552870
O28   O     O_3   0.514838 0.923677 0.050176 -0.549543
O29   O     O_3   0.446626 0.064798 0.947333 -0.517410
O30   O     O_3   0.421005 0.996626 0.550795 -0.552382
O31   O     O_3   0.578568 0.992418 0.449273 -0.553237
O32   O     O_3   0.994204 0.578792 0.550698 -0.552989
O33   O     O_3   0.994148 0.421213 0.449303 -0.553005
O34   O     O_3   0.578842 0.004019 0.550722 -0.552655
O35   O     O_R   0.000000 0.536360 0.675210 -0.506505
O36   O     O_3   0.421343 0.008057 0.449217 -0.553353
O37   O     O_3   0.005873 0.421268 0.550807 -0.553001
O38   O     O_3   0.005929 0.578729 0.449192 -0.552998
O39   O     O_3   0.920075 0.497688 0.120142 -0.520278
O40   O     O_3   0.079924 0.497819 0.879869 -0.520240
O41   O     O_3   0.501316 0.080139 0.120336 -0.533219
O42   O     O_3   0.532752 0.929297 0.880217 -0.523904
O43   O     O_3   0.079925 0.502318 0.120122 -0.520420
O44   O     O_3   0.920065 0.502175 0.879870 -0.520405
O45   O     O_3   0.506535 0.920886 0.119773 -0.525823
O46   O     O_R   0.000000 0.463640 0.324790 -0.506525
O47   O     O_3   0.451869 0.067019 0.877644 -0.498773
O48   O     O_3   0.420008 0.000219 0.620155 -0.519846
O49   O     O_3   0.579828 0.995974 0.379863 -0.520788
O50   O     O_3   0.997784 0.579929 0.620084 -0.520404
O51   O     O_3   0.997728 0.420073 0.379916 -0.520405
O52   O     O_3   0.579939 0.000267 0.620077 -0.520050
O53   O     O_3   0.420139 0.004226 0.379825 -0.520738
O54   O     O_3   0.002237 0.420119 0.620178 -0.520216
O55   O     O_3   0.002292 0.579879 0.379821 -0.520333
O56   O     O_R   0.536360 0.000000 0.675210 -0.505479
O57   O     O_R   0.463640 0.000000 0.324790 -0.506837
O58   O     O_R   0.000000 0.463640 0.675210 -0.506151
O59   O     O_R   0.000000 0.536360 0.324790 -0.506275
O60   O     O_R   0.463640 0.000000 0.675210 -0.504934
O61   O     O_3   0.500000 0.000000 0.750000 -0.447334
O62   O     O_R   0.536360 0.000000 0.324790 -0.506863
O63   O     O_R   0.448850 0.912530 0.230420 -0.553173
O64   O     O_R   0.551150 0.087470 0.769580 -0.536561
O65   O     O_R   0.912530 0.551150 0.230420 -0.553660
O66   O     O_R   0.087470 0.448850 0.769580 -0.539769
O67   O     O_R   0.551150 0.087470 0.230420 -0.552380
O68   O     O_R   0.448850 0.912530 0.769580 -0.540839
O69   O     O_R   0.087470 0.448850 0.230420 -0.553491
O70   O     O_R   0.912530 0.551150 0.769580 -0.539720
O71   O     O_R   0.448850 0.087470 0.769580 -0.543778
O72   O     O_3   0.000000 0.500000 0.250000 -0.444551
O73   O     O_R   0.551150 0.912530 0.230420 -0.540381
O74   O     O_R   0.912530 0.448850 0.769580 -0.553600
O75   O     O_R   0.087470 0.551150 0.230420 -0.539871
O76   O     O_R   0.551150 0.912530 0.769580 -0.543081
O77   O     O_R   0.448850 0.087470 0.230420 -0.539133
O78   O     O_R   0.087470 0.551150 0.769580 -0.553549
O79   O     O_R   0.912530 0.448850 0.230420 -0.539686
O80   O     O_R   0.948850 0.412530 0.730420 -0.553624
O81   O     O_R   0.051150 0.587470 0.269580 -0.539722
O82   O     O_R   0.412530 0.051150 0.730420 -0.556198
O83   O     O_3   0.000000 0.500000 0.750000 -0.444569
O84   O     O_R   0.587470 0.948850 0.269580 -0.540171
O85   O     O_R   0.051150 0.587470 0.730420 -0.553610
O86   O     O_R   0.948850 0.412530 0.269580 -0.539844
O87   O     O_R   0.587470 0.948850 0.730420 -0.553719
O88   O     O_R   0.412530 0.051150 0.269580 -0.540090
O89   O     O_R   0.948850 0.587470 0.269580 -0.553516
O90   O     O_R   0.051150 0.412530 0.730420 -0.539822
O91   O     O_R   0.412530 0.948850 0.269580 -0.553790
O92   O     O_R   0.587470 0.051150 0.730420 -0.540362
O93   O     O_R   0.051150 0.412530 0.269580 -0.553574
O94   O     O_R   0.500000 0.036360 0.175210 -0.504238
O95   O     O_R   0.948850 0.587470 0.730420 -0.539823
O96   O     O_R   0.587470 0.051150 0.269580 -0.554021
O97   O     O_R   0.412530 0.948850 0.730420 -0.541355
O98   O     O_3   0.144293 0.276694 0.292654 -0.675240
O99   O     O_3   0.857763 0.720135 0.704496 -0.667926
O100  O     O_3   0.277610 0.854703 0.293574 -0.675368
O101  O     O_3   0.720000 0.142352 0.704302 -0.667610
O102  O     O_3   0.855690 0.723226 0.292571 -0.675266
O103  O     O_3   0.141224 0.279049 0.705402 -0.668643
O104  O     O_3   0.723613 0.143856 0.292342 -0.675101
O105  O     O_R   0.500000 0.963640 0.824790 -0.505008
O106  O     O_3   0.280109 0.857633 0.704267 -0.668352
O107  O     O_3   0.144223 0.723362 0.707389 -0.675317
O108  O     O_3   0.857634 0.280066 0.295754 -0.667860
O109  O     O_3   0.272841 0.140281 0.711893 -0.674997
O110  O     O_3   0.719788 0.857386 0.295826 -0.667997
O111  O     O_3   0.855779 0.276744 0.707437 -0.675380
O112  O     O_3   0.142835 0.719446 0.296021 -0.667684
O113  O     O_3   0.723806 0.856224 0.707964 -0.675452
O114  O     O_3   0.280233 0.142529 0.295846 -0.668031
O115  O     O_3   0.644351 0.776722 0.792700 -0.674554
O116  O     O_R   0.036360 0.500000 0.175210 -0.506438
O117  O     O_3   0.357436 0.219813 0.204183 -0.668025
O118  O     O_3   0.776611 0.355700 0.792530 -0.673768
O119  O     O_3   0.219552 0.642826 0.203900 -0.667507
O120  O     O_3   0.359775 0.227446 0.787284 -0.672160
O121  O     O_3   0.642612 0.780358 0.204143 -0.668271
O122  O     O_3   0.223297 0.644293 0.792571 -0.675037
O123  O     O_3   0.780106 0.357530 0.204351 -0.667136
O124  O     O_3   0.644007 0.223713 0.207884 -0.674241
O125  O     O_3   0.357452 0.780126 0.795740 -0.667357
O126  O     O_3   0.776707 0.644345 0.207350 -0.675077
O127  O     O_R   0.963640 0.500000 0.824790 -0.506413
O128  O     O_3   0.221073 0.358542 0.794469 -0.667709
O129  O     O_3   0.354757 0.777767 0.206339 -0.675221
O130  O     O_3   0.642381 0.219946 0.795497 -0.661112
O131  O     O_3   0.223285 0.355701 0.207384 -0.675153
O132  O     O_3   0.780268 0.642572 0.795876 -0.667406
O133  O     O_3   0.264027 0.331047 0.280923 -0.677562
O134  O     O_3   0.740027 0.673436 0.713044 -0.679938
O135  O     O_3   0.331613 0.735506 0.279976 -0.677616
O136  O     O_3   0.672991 0.260300 0.712924 -0.679449
O137  O     O_3   0.735944 0.668887 0.280862 -0.677537
O138  O     O_R   0.500000 0.963640 0.175210 -0.506590
O139  O     O_3   0.257081 0.324107 0.708981 -0.680501
O140  O     O_3   0.669139 0.263761 0.281375 -0.677353
O141  O     O_3   0.327087 0.739764 0.713111 -0.679296
O142  O     O_3   0.263979 0.669031 0.719019 -0.677417
O143  O     O_3   0.739889 0.326846 0.287223 -0.680136
O144  O     O_3   0.328234 0.261380 0.714221 -0.676397
O145  O     O_3   0.672852 0.739618 0.286809 -0.680103
O146  O     O_3   0.736051 0.331051 0.718908 -0.677392
O147  O     O_3   0.261008 0.672261 0.285980 -0.680000
O148  O     O_3   0.669309 0.736540 0.719002 -0.676993
Zn1   Zn    Zn3+2 0.448060 0.000000 0.278050 0.944981
Zn2   Zn    Zn3+2 0.051940 0.500000 0.221950 0.945479
Zn3   Zn    Zn3+2 0.500000 0.051940 0.778050 0.954644
Zn4   Zn    Zn3+2 0.500000 0.948060 0.221950 0.944417
Zn5   Zn    Zn3+2 0.051940 0.500000 0.778050 0.945588
Zn6   Zn    Zn3+2 0.948060 0.500000 0.221950 0.945504
Zn7   Zn    Zn3+2 0.500000 0.948060 0.778050 0.950452
Zn8   Zn    Zn3+2 0.500000 0.051940 0.221950 0.947903
Zn9   Zn    Zn3+2 0.551940 0.000000 0.721950 0.945526
Zn10  Zn    Zn3+2 0.000000 0.551940 0.278050 0.945411
Zn11  Zn    Zn3+2 0.000000 0.448060 0.721950 0.945464
Zn12  Zn    Zn3+2 0.551940 0.000000 0.278050 0.944774
Zn13  Zn    Zn3+2 0.448060 0.000000 0.721950 0.939311
Zn14  Zn    Zn3+2 0.000000 0.448060 0.278050 0.945467
Zn15  Zn    Zn3+2 0.000000 0.551940 0.721950 0.945456
Zn16  Zn    Zn3+2 0.948060 0.500000 0.778050 0.945529

loop_
_geom_bond_atom_site_label_1
_geom_bond_atom_site_label_2
_ccdc_geom_bond_type
C54   C282  A    
O78   Zn5   S    
C163  O32   S    
C73   C119  A    
C279  H176  S    
C56   C280  A    
C260  H246  S    
C267  O57   A    
C7    C259  A    
C75   C117  A    
C202  H153  S    
C46   C129  A    
C205  O53   S    
O90   Zn11  S    
C155  H34   S    
C170  O36   S    
C188  H119  S    
C35   O43   S    
H209  O123  S    
C8    O107  S    
O71   Zn3   S    
C239  O68   A    
C17   O115  S    
C131  O29   S    
C9    O108  S    
C212  O13   A    
C288  O100  S    
C33   C36   A    
C23   C43   A    
C113  O51   S    
C7    C42   A    
C145  O23   S    
C6    O104  S    
C189  O45   S    
C23   C275  A    
C151  H26   S    
H212  O126  S    
C91   C100  A    
C97   C115  A    
C217  C226  S    
O83   Zn11  S    
C1    C190  S    
C193  H131  S    
C68   O47   S    
C22   C47   A    
C68   C201  A    
C194  H132  S    
C176  H88   S    
C123  C216  A    
C164  H56   S    
C284  H182  S    
H229  O143  S    
C198  H144  S    
C174  H83   S    
H220  O134  S    
C246  O75   A    
O92   Zn9   S    
O59   Zn10  S    
C18   C51   A    
C28   C280  A    
O56   Zn9   S    
C158  H42   S    
C65   C244  S    
C147  H15   S    
C157  C215  A    
C197  H142  S    
O75   Zn2   S    
C168  C278  A    
C91   C107  A    
C124  C137  A    
C210  H174  S    
O68   Zn7   S    
H199  O113  S    
C17   C269  A    
C70   O133  S    
C15   O113  S    
C19   C271  A    
C97   O14   S    
C94   C97   A    
C125  O22   S    
C181  C182  S    
C163  H55   S    
H225  O139  S    
C203  H155  S    
C99   O16   S    
C10   C262  A    
C3    O101  S    
C141  H254  S    
C32   C34   A    
C166  H63   S    
C68   C131  A    
C31   C283  A    
C183  C184  S    
C81   O144  S    
C229  C230  T    
C52   C284  A    
C194  O48   S    
C53   C285  A    
C227  C228  T    
C155  H37   S    
C261  H2    S    
C185  O43   S    
C191  H123  S    
C62   C276  A    
C154  C155  S    
C146  C214  A    
C197  H141  S    
C38   C119  S    
C33   C285  A    
C215  C245  S    
C238  O67   A    
C212  O116  A    
C171  H73   S    
C175  H84   S    
C251  H1    S    
C72   O135  S    
C157  O55   S    
C65   C264  A    
C160  H48   S    
C277  H168  S    
H203  O117  S    
O89   Zn10  S    
C35   C168  A    
C66   C246  S    
C5    O103  S    
C167  H66   S    
C191  H126  S    
C177  H92   S    
C187  O44   S    
O61   Zn13  S    
C80   O143  S    
C196  C197  S    
C195  H136  S    
C145  H11   S    
C148  H17   S    
C271  H101  S    
C124  C211  A    
C27   O125  S    
C39   C118  S    
O72   Zn6   S    
C12   O111  S    
C192  O47   S    
C156  C158  S    
C165  H61   S    
H238  O5    S    
C24   O42   S    
C146  O54   S    
O93   Zn14  S    
C144  H8    S    
C89   C108  A    
C141  H255  S    
C258  H224  S    
C265  H46   S    
C25   C44   A    
O86   Zn14  S    
C130  O28   S    
H240  O7    S    
C79   O48   S    
C182  H102  S    
C132  O30   S    
C149  H19   S    
H218  O132  S    
C81   C110  A    
C233  O91   A    
C200  C202  S    
C164  H58   S    
C283  H181  S    
C96   C116  A    
C257  H213  S    
C61   C260  A    
O96   Zn12  S    
C77   C115  A    
C183  O42   S    
C73   C83   A    
C156  H38   S    
C102  C119  A    
C126  C218  A    
O63   Zn4   S    
C158  H40   S    
O83   Zn16  S    
C151  H23   S    
O82   Zn13  S    
C95   C96   A    
C198  H143  S    
C16   C51   A    
C30   C282  A    
C211  C256  S    
C15   C266  A    
C156  O29   S    
C186  H114  S    
C87   O4    S    
C64   C263  A    
C167  C169  S    
C64   C243  S    
C94   O10   S    
O81   Zn10  S    
C159  O30   S    
C159  H44   S    
C220  C229  S    
C267  O62   A    
C53   C241  S    
C223  O24   A    
C25   C276  A    
C141  O21   S    
C153  H30   S    
O13   Zn6   S    
C137  C220  A    
C170  C171  S    
C102  O18   S    
C143  O22   S    
H200  O114  S    
C84   C107  A    
C12   C264  A    
C189  C191  S    
C184  H107  S    
C247  O87   A    
C174  C175  S    
C69   C270  A    
C95   O11   S    
C63   C273  A    
C134  C222  A    
C60   C279  A    
C136  C224  A    
C221  C230  S    
C237  O66   A    
C59   C258  A    
C282  H179  S    
C287  O99   S    
C219  C228  S    
O88   Zn1   S    
C256  O60   A    
C208  H169  S    
H243  O10   S    
C170  H71   S    
C192  H128  S    
C180  H96   S    
C34   C122  S    
C240  O93   A    
C209  O55   S    
C161  H49   S    
C10   C45   A    
C2    O40   S    
C195  H134  S    
C5    C257  A    
C11   O110  S    
C98   C118  A    
C21   C45   A    
O77   Zn8   S    
C142  H4    S    
O127  Zn16  S    
C74   C118  A    
C167  O34   S    
C24   C201  A    
C259  H235  S    
C82   C109  A    
C57   O45   S    
C57   C130  A    
O2    Zn3   S    
C169  H70   S    
H242  O9    S    
C276  H157  S    
C140  C224  A    
C255  H202  S    
H196  O110  S    
C47   C109  S    
H195  O109  S    
H188  O102  S    
C13   C190  A    
C183  H104  S    
C142  H256  S    
C132  C220  A    
C10   O109  S    
C189  H121  S    
C150  O26   S    
C84   O147  S    
C139  O37   S    
C24   C127  A    
C20   C49   A    
O85   Zn15  S    
C138  O36   S    
C101  O50   S    
C99   C117  A    
C182  H100  S    
C70   C122  A    
C183  H105  S    
C185  H109  S    
C51   C105  S    
C172  H77   S    
C72   C120  A    
O1    Zn4   S    
C28   O126  S    
C209  C210  S    
C204  H159  S    
C135  O53   S    
O24   Zn5   S    
C192  C193  S    
C275  H146  S    
C104  O20   S    
C66   C265  A    
C162  H52   S    
C128  C216  A    
O61   Zn7   S    
C29   C281  A    
C113  C215  A    
C13   O41   S    
C206  H163  S    
C89   O6    S    
C174  O38   S    
C200  O51   S    
C171  H75   S    
C85   C106  A    
C58   C237  S    
C63   C262  A    
C18   C270  A    
C139  C222  A    
C78   O142  S    
C173  H78   S    
C77   O141  S    
C181  H98   S    
C83   O146  S    
C239  O97   A    
C112  O105  A    
C71   C121  A    
C207  O54   S    
C76   C80   A    
C238  O96   A    
C171  H74   S    
C21   C273  A    
C7    O106  S    
O97   Zn13  S    
H251  O18   S    
C269  H79   S    
C213  C267  S    
H214  O128  S    
C165  H60   S    
C20   O119  S    
C177  H89   S    
O94   Zn8   S    
C36   C121  S    
C178  H93   S    
C32   C284  A    
C195  H137  S    
C88   C105  A    
C273  H124  S    
C27   C42   A    
C92   C110  A    
C148  H16   S    
C34   C286  A    
C82   O145  S    
H205  O119  S    
C40   C117  S    
O1    Zn8   S    
H222  O136  S    
C90   C213  A    
C237  O90   A    
C52   C240  S    
C243  O84   A    
C2    C125  A    
C152  C153  S    
C61   C249  S    
C245  O46   A    
C23   O122  S    
C151  H25   S    
O72   Zn14  S    
C150  C151  S    
C56   C236  S    
C143  H5    S    
C41   C116  S    
C30   O129  S    
C247  O76   A    
C186  H111  S    
C240  O69   A    
C92   C99   A    
C93   C109  A    
C165  O33   S    
C193  H130  S    
C90   O49   S    
H190  O104  S    
C139  C146  A    
C205  H160  S    
C25   O123  S    
C11   C47   A    
C204  H156  S    
C8    C43   A    
H216  O130  S    
C12   C48   A    
H244  O11   S    
C46   O44   S    
C161  C162  S    
C253  C288  A    
C127  C219  A    
C136  O33   S    
C207  H166  S    
C78   C114  A    
C77   C78   A    
C79   C211  A    
C152  H28   S    
H198  O112  S    
C152  H27   S    
H210  O124  S    
C210  H175  S    
C234  O58   A    
C253  H180  S    
C235  O64   A    
C209  H172  S    
C187  H117  S    
C43   C114  S    
O83   Zn5   S    
H252  O19   S    
C128  O26   S    
C285  H183  S    
C236  O65   A    
C173  H81   S    
C278  O39   S    
C62   C261  A    
C83   C108  A    
H231  O145  S    
C16   O114  S    
O46   Zn14  S    
C166  H64   S    
C76   O140  S    
C129  C217  A    
C202  H151  S    
C62   C250  S    
C208  H167  S    
C144  H9    S    
C250  O79   A    
H194  O108  S    
O79   Zn6   S    
C197  H140  S    
O72   Zn2   S    
C133  C221  A    
C234  O35   A    
C18   O117  S    
C184  H106  S    
C92   O8    S    
H187  O101  S    
C14   C265  A    
C248  O77   A    
C161  O31   S    
C194  C195  S    
O84   Zn12  S    
C173  H80   S    
H186  O100  S    
H247  O14   S    
H228  O142  S    
C187  H116  S    
H207  O121  S    
C214  C234  S    
C112  C201  S    
C74   C82   A    
C175  H85   S    
H204  O118  S    
O67   Zn8   S    
C145  C147  S    
H193  O107  S    
C245  O59   A    
C29   O128  S    
O65   Zn6   S    
C167  H65   S    
C191  H125  S    
C176  O39   S    
C181  H99   S    
C177  H91   S    
C59   C238  S    
C1    O94   A    
C123  O21   S    
O60   Zn13  S    
H250  O17   S    
C67   C266  A    
C140  O38   S    
C145  H10   S    
C28   C39   A    
C64   C274  A    
C160  H45   S    
C205  C206  S    
C63   C242  S    
C162  H53   S    
C175  H86   S    
C207  C208  S    
C30   C37   A    
O70   Zn16  S    
C53   C252  A    
O57   Zn1   S    
C169  H67   S    
C241  O95   A    
O95   Zn15  S    
H223  O137  S    
C161  H50   S    
C159  C160  S    
H185  O99   S    
C101  C214  A    
C33   O132  S    
C60   C239  S    
H249  O16   S    
C152  O27   S    
C13   C126  A    
C149  H18   S    
C176  H87   S    
C172  H76   S    
C75   O139  S    
C204  H158  S    
C174  H82   S    
H219  O133  S    
C252  C287  A    
C218  C227  S    
C243  O73   A    
C4    O102  S    
C90   C133  A    
C158  H41   S    
O83   Zn15  S    
C252  H112  S    
C124  O52   S    
O138  Zn4   S    
C148  O25   S    
C45   C110  S    
C154  O28   S    
C210  H173  S    
C55   C235  S    
C178  C180  S    
C280  H177  S    
C55   C254  A    
C58   C281  A    
C159  H43   S    
C216  C225  S    
C194  H133  S    
C31   C38   A    
H184  O98   S    
C236  O89   A    
C6    C258  A    
H234  O148  S    
C166  H62   S    
C143  C144  S    
C3    C254  A    
C187  C188  S    
O91   Zn1   S    
C153  H29   S    
C46   C179  A    
O80   Zn11  S    
O61   Zn3   S    
C185  C186  S    
C48   C108  S    
C85   O148  S    
C31   O130  S    
C196  O49   S    
C80   C111  A    
C249  O85   A    
C200  H149  S    
C129  O27   S    
O73   Zn4   S    
H192  O106  S    
C35   C128  A    
C184  H108  S    
C196  H139  S    
C181  O41   S    
C87   C104  A    
C67   C269  A    
C44   C111  S    
C42   C115  S    
C133  O31   S    
O116  Zn2   S    
C244  O80   A    
C5    C40   A    
C134  O32   S    
C242  O71   A    
C50   C106  S    
C178  O40   S    
C199  H148  S    
C36   C287  A    
C286  O98   S    
C103  C122  A    
H241  O8    S    
C26   C277  A    
C208  H170  S    
C22   C274  A    
C8    C260  A    
O105  Zn7   S    
C22   O121  S    
C125  C217  A    
C26   O124  S    
C135  C138  A    
C203  C204  S    
C165  C166  S    
C270  H90   S    
C262  H13   S    
C89   C102  A    
C168  C212  S    
O76   Zn7   S    
C163  C164  S    
C93   O9    S    
C19   O118  S    
C69   C268  A    
C94   C114  A    
C123  C278  A    
C49   C107  S    
H208  O122  S    
C101  C134  A    
C160  H47   S    
C98   O15   S    
C37   C120  S    
C126  O23   S    
C235  O92   A    
O1    Zn12  S    
C100  O17   S    
C60   C259  A    
C131  C219  A    
C242  O82   A    
C169  H69   S    
O66   Zn5   S    
C103  O19   S    
C224  C232  S    
C15   C50   A    
C14   C49   A    
C79   C132  A    
C144  H7    S    
C55   C283  A    
C32   O131  S    
C1    O138  A    
C29   C40   A    
C130  C218  A    
C21   O120  S    
C186  H115  S    
H217  O131  S    
C86   O3    S    
H221  O135  S    
C71   C85   A    
H227  O141  S    
C149  H20   S    
C266  H57   S    
C74   O137  S    
C71   O134  S    
C9    C261  A    
C3    C38   A    
C198  C199  S    
C100  C120  A    
C251  C286  A    
C11   C263  A    
C20   C272  A    
H233  O147  S    
C147  H14   S    
C172  O37   S    
C206  H164  S    
C199  H145  S    
C67   C247  S    
C263  H24   S    
C73   O136  S    
O35   Zn15  S    
C37   C288  A    
C91   O7    S    
O58   Zn11  S    
C163  H54   S    
C14   O112  S    
C203  H154  S    
C58   C257  A    
C200  H150  S    
C256  O56   A    
C170  H72   S    
C66   C272  A    
C148  C149  S    
C223  O127  A    
H237  O4    S    
C153  H31   S    
C6    C41   A    
C154  H32   S    
C19   C48   A    
C75   C81   A    
C27   C279  A    
C104  C121  A    
C155  H36   S    
C138  C221  A    
C113  C136  A    
C179  C223  S    
C272  H113  S    
H189  O103  S    
H239  O6    S    
C178  H94   S    
H201  O115  S    
H232  O146  S    
C140  C157  A    
H245  O12   S    
C112  O2    A    
C69   C248  S    
C4    C39   A    
O72   Zn10  S    
C225  C226  T    
C61   C275  A    
C241  O70   A    
C72   C84   A    
C254  H191  S    
H236  O3    S    
H197  O111  S    
C16   C268  A    
C192  H127  S    
C176  C177  S    
C180  H95   S    
C222  C231  S    
C150  H21   S    
C206  H162  S    
C198  O50   S    
C54   C253  A    
C86   C105  A    
C2    C179  A    
C182  H103  S    
O64   Zn3   S    
C199  H147  S    
C249  O78   A    
C70   C86   A    
C88   C103  A    
C172  C173  S    
C127  O25   S    
C88   O5    S    
C96   O12   S    
C193  H129  S    
C142  H3    S    
C9    C44   A    
C205  H161  S    
C137  O34   S    
H248  O15   S    
O87   Zn9   S    
C17   C50   A    
C274  H135  S    
C143  H6    S    
C207  H165  S    
O61   Zn9   S    
C54   C233  S    
C246  O81   A    
C250  O86   A    
C189  H122  S    
C59   C277  A    
C57   C190  A    
C209  H171  S    
C95   C111  A    
C141  C142  S    
O1    Zn1   S    
C135  C213  A    
C87   C106  A    
H230  O144  S    
C185  H110  S    
H211  O125  S    
C180  H97   S    
C164  H59   S    
C76   C116  A    
H206  O120  S    
C281  H178  S    
C65   C271  A    
C52   C251  A    
O62   Zn12  S    
C203  O52   S    
C268  H68   S    
C156  H39   S    
C202  H152  S    
C162  H51   S    
O74   Zn16  S    
H215  O129  S    
C147  H12   S    
C264  H35   S    
C150  H22   S    
C188  H120  S    
C56   C255  A    
C244  O74   A    
C231  C232  T    
C188  H118  S    
C248  O88   A    
C4    C255  A    
C233  O63   A    
C154  H33   S    
C196  H138  S    
C93   C98   A    
O69   Zn2   S    
C26   C41   A    
H226  O140  S    
H253  O20   S    
