data_mof_unit_pretest_1904.cif
_audit_creation_date              2012-12-10T17:36:24-0500
_audit_creation_method            fapswitch 2.2
_symmetry_space_group_name_H-M    P1
_symmetry_Int_Tables_number       1
_space_group_crystal_system       triclinic
_cell_length_a                    24.546588
_cell_length_b                    24.546587
_cell_length_c                    32.799804
_cell_angle_alpha                 90.01546
_cell_angle_beta                  89.999988
_cell_angle_gamma                 90.0
_cell_volume                      19763.0278027

loop_
_atom_site_label
_atom_site_type_symbol
_atom_type_description
_atom_site_fract_x
_atom_site_fract_y
_atom_site_fract_z
_atom_type_partial_charge
C1    C     C_1   0.500000 0.000004 0.981185 0.046805
C2    C     C_R   0.762804 0.278032 0.175792 0.357605
C3    C     C_R   0.168327 0.331366 0.787440 0.435908
C4    C     C_R   0.331852 0.831087 0.212741 0.439074
C5    C     C_R   0.668148 0.168913 0.787259 0.439075
C6    C     C_R   0.168897 0.331837 0.212741 0.439217
C7    C     C_R   0.831103 0.668163 0.787259 0.439219
C8    C     C_R   0.331852 0.168914 0.787259 0.439074
C9    C     C_R   0.668148 0.831086 0.212741 0.439075
C10   C     C_R   0.168897 0.668163 0.787259 0.439220
C11   C     C_R   0.831103 0.331837 0.212741 0.439220
C12   C     C_R   0.668649 0.831690 0.787440 0.436054
C13   C     C_R   0.278067 0.237231 0.824207 0.357527
C14   C     C_R   0.331351 0.168310 0.212560 0.436051
C15   C     C_R   0.831674 0.331365 0.787440 0.435908
C16   C     C_R   0.168326 0.668635 0.212560 0.435908
C17   C     C_R   0.148499 0.648239 0.749934 -0.341737
C18   C     C_R   0.851501 0.351761 0.250066 -0.341737
C19   C     C_R   0.351760 0.148501 0.749934 -0.341799
C20   C     C_R   0.648240 0.851499 0.250066 -0.341798
C21   C     C_R   0.851760 0.351499 0.750066 -0.341797
C22   C     C_R   0.148240 0.648501 0.249934 -0.341797
C23   C     C_R   0.648500 0.851761 0.750066 -0.341737
C24   C     C_R   0.721934 0.762770 0.175793 0.357527
C25   C     C_R   0.351500 0.148239 0.249934 -0.341737
C26   C     C_R   0.851760 0.648501 0.249934 -0.341798
C27   C     C_R   0.148240 0.351499 0.750066 -0.341798
C28   C     C_R   0.648499 0.148239 0.249934 -0.341737
C29   C     C_R   0.351500 0.851761 0.750066 -0.341737
C30   C     C_R   0.148499 0.351761 0.250066 -0.341737
C31   C     C_R   0.851500 0.648239 0.749934 -0.341737
C32   C     C_R   0.351760 0.851499 0.250066 -0.341797
C33   C     C_R   0.648240 0.148501 0.749934 -0.341798
C34   C     C_R   0.211876 0.706390 0.787311 0.001990
C35   C     C_R   0.765269 0.275008 0.824672 0.354216
C36   C     C_R   0.788124 0.293610 0.212689 0.001989
C37   C     C_R   0.293627 0.211893 0.787311 0.001971
C38   C     C_R   0.706374 0.788107 0.212689 0.001970
C39   C     C_R   0.788799 0.292846 0.787593 0.003415
C40   C     C_R   0.211200 0.707154 0.212407 0.003416
C41   C     C_R   0.707170 0.788816 0.787593 0.003436
C42   C     C_R   0.292830 0.211184 0.212407 0.003438
C43   C     C_R   0.788799 0.707153 0.212407 0.003416
C44   C     C_R   0.211201 0.292847 0.787593 0.003417
C45   C     C_R   0.707170 0.211184 0.212407 0.003438
C46   C     C_R   0.234731 0.724992 0.175328 0.354216
C47   C     C_R   0.292830 0.788816 0.787593 0.003438
C48   C     C_R   0.211876 0.293610 0.212689 0.001991
C49   C     C_R   0.788124 0.706390 0.787311 0.001990
C50   C     C_R   0.293625 0.788108 0.212689 0.001971
C51   C     C_R   0.706374 0.211892 0.787311 0.001970
C52   C     C_R   0.711876 0.206390 0.287311 0.001990
C53   C     C_R   0.288124 0.793610 0.712689 0.001990
C54   C     C_R   0.793626 0.711893 0.287311 0.001969
C55   C     C_R   0.206373 0.288107 0.712689 0.001972
C56   C     C_R   0.288800 0.792846 0.287593 0.003415
C57   C     C_R   0.725025 0.765302 0.824672 0.354310
C58   C     C_R   0.711201 0.207154 0.712407 0.003415
C59   C     C_R   0.207169 0.288815 0.287593 0.003436
C60   C     C_R   0.792830 0.711184 0.712407 0.003437
C61   C     C_R   0.288799 0.207153 0.712407 0.003416
C62   C     C_R   0.711201 0.792847 0.287593 0.003416
C63   C     C_R   0.207170 0.711184 0.712407 0.003438
C64   C     C_R   0.792830 0.288816 0.287593 0.003436
C65   C     C_R   0.711876 0.793610 0.712689 0.001989
C66   C     C_R   0.288123 0.206389 0.287311 0.001990
C67   C     C_R   0.793626 0.288107 0.712689 0.001970
C68   C     C_R   0.274975 0.234698 0.175328 0.354310
C69   C     C_R   0.206374 0.711892 0.287311 0.001971
C70   C     C_R   0.229530 0.729619 0.749941 -0.198913
C71   C     C_R   0.770470 0.270381 0.250059 -0.198912
C72   C     C_R   0.270381 0.229530 0.749941 -0.198955
C73   C     C_R   0.729619 0.770470 0.250059 -0.198954
C74   C     C_R   0.770381 0.270470 0.750059 -0.198953
C75   C     C_R   0.229619 0.729530 0.249941 -0.198954
C76   C     C_R   0.729530 0.770381 0.750059 -0.198912
C77   C     C_R   0.270470 0.229619 0.249941 -0.198912
C78   C     C_R   0.770380 0.729530 0.249941 -0.198953
C79   C     C_R   0.765267 0.724991 0.175328 0.354218
C80   C     C_R   0.229619 0.270470 0.750059 -0.198954
C81   C     C_R   0.729530 0.229619 0.249941 -0.198912
C82   C     C_R   0.270470 0.770381 0.750059 -0.198913
C83   C     C_R   0.229529 0.270380 0.250058 -0.198913
C84   C     C_R   0.770470 0.729619 0.749941 -0.198912
C85   C     C_R   0.270380 0.770470 0.250059 -0.198953
C86   C     C_R   0.729620 0.229530 0.749941 -0.198953
C87   C     C_R   0.234733 0.275010 0.824672 0.354217
C88   C     C_R   0.725025 0.234698 0.175328 0.354311
C89   C     C_1   0.500000 0.999996 0.018815 0.046805
C90   C     C_R   0.274975 0.765302 0.824672 0.354311
C91   C     C_R   0.237196 0.278032 0.175792 0.357605
C92   C     C_R   0.762804 0.721967 0.824208 0.357606
C93   C     C_R   0.278064 0.762772 0.175793 0.357527
C94   C     C_R   0.721935 0.237229 0.824207 0.357528
C95   C     C_R   0.737196 0.221968 0.324208 0.357606
C96   C     C_R   0.262804 0.778032 0.675792 0.357605
C97   C     C_R   0.778066 0.737230 0.324207 0.357527
C98   C     C_R   0.221933 0.262769 0.675793 0.357527
C99   C     C_R   0.265269 0.775007 0.324672 0.354217
C100  C     C_1   0.000000 0.500000 0.981185 0.046804
C101  C     C_R   0.734731 0.224992 0.675328 0.354217
C102  C     C_R   0.225023 0.265300 0.324672 0.354312
C103  C     C_R   0.774975 0.734698 0.675328 0.354311
C104  C     C_R   0.265267 0.224990 0.675328 0.354216
C105  C     C_R   0.734733 0.775009 0.324672 0.354217
C106  C     C_R   0.225025 0.734698 0.675328 0.354311
C107  C     C_R   0.774975 0.265302 0.324672 0.354312
C108  C     C_R   0.737196 0.778033 0.675792 0.357606
C109  C     C_R   0.262802 0.221966 0.324207 0.357605
C110  C     C_R   0.778065 0.262771 0.675793 0.357528
C111  C     C_1   1.000000 0.500000 0.018815 0.046804
C112  C     C_R   0.221935 0.737228 0.324207 0.357528
C113  C     C_1   0.500000 0.000016 0.899094 -0.099682
C114  C     C_1   0.500000 0.999984 0.100906 -0.099682
C115  C     C_1   0.000000 0.499999 0.899094 -0.099682
C116  C     C_1   0.000000 0.500001 0.100906 -0.099682
C117  C     C_1   1.000000 0.500016 0.399094 -0.099682
C118  C     C_1   1.000000 0.499984 0.600906 -0.099682
C119  C     C_1   0.500000 0.999999 0.399094 -0.099682
C120  C     C_1   0.500000 0.000001 0.600906 -0.099682
C121  C     C_1   0.500000 0.000013 0.936724 0.033932
C122  C     C_1   0.000000 0.500004 0.481185 0.046805
C123  C     C_1   0.500000 0.999987 0.063276 0.033932
C124  C     C_1   0.000000 0.499999 0.936724 0.033932
C125  C     C_1   0.000000 0.500001 0.063276 0.033932
C126  C     C_1   1.000000 0.500013 0.436724 0.033932
C127  C     C_1   0.000000 0.499987 0.563276 0.033932
C128  C     C_1   0.500000 0.999999 0.436724 0.033932
C129  C     C_1   0.500000 0.000001 0.563276 0.033932
C130  C     C_R   0.500000 0.000001 0.646132 0.779943
C131  C     C_R   0.500000 0.999999 0.353868 0.779944
C132  C     C_R   0.000000 0.499994 0.646132 0.779943
C133  C     C_1   0.000000 0.499996 0.518815 0.046805
C134  C     C_R   0.000000 0.500006 0.353868 0.779943
C135  C     C_R   0.000000 0.500000 0.146132 0.779943
C136  C     C_R   1.000000 0.499999 0.853868 0.779944
C137  C     C_R   0.500000 0.999994 0.146132 0.779943
C138  C     C_R   0.500000 0.000006 0.853868 0.779943
C139  C     C_R   0.606094 0.893938 0.750009 0.807341
C140  C     C_R   0.393906 0.106062 0.249991 0.807342
C141  C     C_R   0.106094 0.606062 0.749991 0.807341
C142  C     C_R   0.893906 0.393938 0.250009 0.807341
C143  C     C_R   0.393936 0.106096 0.749991 0.807400
C144  C     C_1   0.500000 1.000000 0.481185 0.046804
C145  C     C_R   0.606064 0.893904 0.250009 0.807399
C146  C     C_R   0.893936 0.393904 0.750009 0.807399
C147  C     C_R   0.106064 0.606096 0.249991 0.807399
C148  C     C_R   0.393936 0.893904 0.250009 0.807399
C149  C     C_R   0.606064 0.106096 0.749991 0.807399
C150  C     C_R   0.893936 0.606096 0.249991 0.807399
C151  C     C_R   0.106064 0.393904 0.750009 0.807399
C152  C     C_R   0.606094 0.106062 0.249991 0.807341
C153  C     C_R   0.393906 0.893938 0.750009 0.807341
C154  C     C_R   0.106094 0.393938 0.250009 0.807342
C155  C     C_1   0.500000 0.000000 0.518815 0.046804
C156  C     C_R   0.893906 0.606062 0.749991 0.807341
C157  C     C_R   0.168649 0.668310 0.712560 0.436051
C158  C     C_R   0.831351 0.331690 0.287440 0.436053
C159  C     C_R   0.331673 0.168634 0.712560 0.435908
C160  C     C_R   0.668327 0.831366 0.287440 0.435908
C161  C     C_R   0.831852 0.331087 0.712741 0.439075
C162  C     C_R   0.168148 0.668913 0.287259 0.439074
C163  C     C_R   0.668897 0.831837 0.712741 0.439219
C164  C     C_R   0.331102 0.168162 0.287259 0.439218
C165  C     C_R   0.831852 0.668914 0.287259 0.439076
C166  C     C_R   0.237196 0.721968 0.824208 0.357605
C167  C     C_R   0.168148 0.331086 0.712741 0.439074
C168  C     C_R   0.668897 0.168163 0.287259 0.439218
C169  C     C_R   0.331103 0.831837 0.712741 0.439220
C170  C     C_R   0.168648 0.331689 0.287440 0.436052
C171  C     C_R   0.831351 0.668310 0.712560 0.436052
C172  C     C_R   0.331674 0.831365 0.287440 0.435908
C173  C     C_R   0.668326 0.168634 0.712560 0.435909
C174  C     C_R   0.668649 0.168310 0.212560 0.436052
C175  C     C_R   0.331351 0.831690 0.787440 0.436051
C176  C     C_R   0.831673 0.668634 0.212560 0.435908
H1    H     H_    0.258762 0.693214 0.877136 0.351057
H2    H     H_    0.219033 0.266195 0.882424 0.348590
H3    H     H_    0.733869 0.218969 0.117578 0.348615
H4    H     H_    0.266130 0.781031 0.882422 0.348615
H5    H     H_    0.258761 0.306785 0.122864 0.351059
H6    H     H_    0.741238 0.693213 0.877136 0.351057
H7    H     H_    0.306843 0.741182 0.122867 0.350987
H8    H     H_    0.693156 0.258819 0.877133 0.350987
H9    H     H_    0.758762 0.193213 0.377136 0.351058
H10   H     H_    0.241238 0.806786 0.622864 0.351058
H11   H     H_    0.806846 0.758821 0.377132 0.350988
H12   H     H_    0.741238 0.306787 0.122864 0.351057
H13   H     H_    0.193153 0.241178 0.622868 0.350987
H14   H     H_    0.280972 0.766190 0.382423 0.348590
H15   H     H_    0.719029 0.233809 0.617576 0.348590
H16   H     H_    0.233866 0.281028 0.382422 0.348615
H17   H     H_    0.766131 0.718969 0.617578 0.348615
H18   H     H_    0.280968 0.233806 0.617576 0.348590
H19   H     H_    0.719031 0.766193 0.382423 0.348590
H20   H     H_    0.233870 0.718969 0.617578 0.348615
H21   H     H_    0.766130 0.281031 0.382422 0.348615
H22   H     H_    0.758762 0.806787 0.622864 0.351058
H23   H     H_    0.306847 0.258822 0.877131 0.350987
H24   H     H_    0.241235 0.193211 0.377135 0.351057
H25   H     H_    0.806844 0.241181 0.622867 0.350987
H26   H     H_    0.193157 0.758818 0.377133 0.350988
H27   H     H_    0.143554 0.607191 0.679463 0.324660
H28   H     H_    0.856446 0.392809 0.320537 0.324660
H29   H     H_    0.392780 0.143532 0.679462 0.324591
H30   H     H_    0.607219 0.856468 0.320538 0.324591
H31   H     H_    0.856070 0.392792 0.679759 0.324133
H32   H     H_    0.143930 0.607208 0.320240 0.324133
H33   H     H_    0.607181 0.856048 0.679760 0.324205
H34   H     H_    0.693153 0.741179 0.122868 0.350988
H35   H     H_    0.392818 0.143952 0.320240 0.324204
H36   H     H_    0.856071 0.607209 0.320241 0.324133
H37   H     H_    0.143929 0.392790 0.679759 0.324134
H38   H     H_    0.607181 0.143952 0.320240 0.324204
H39   H     H_    0.392819 0.856048 0.679760 0.324204
H40   H     H_    0.143554 0.392808 0.320537 0.324660
H41   H     H_    0.856446 0.607191 0.679463 0.324661
H42   H     H_    0.392782 0.856467 0.320538 0.324591
H43   H     H_    0.607218 0.143532 0.679462 0.324591
H44   H     H_    0.643554 0.107191 0.179463 0.324660
H45   H     H_    0.780971 0.266191 0.882423 0.348590
H46   H     H_    0.356446 0.892809 0.820537 0.324660
H47   H     H_    0.892781 0.643532 0.179462 0.324591
H48   H     H_    0.107220 0.356468 0.820538 0.324591
H49   H     H_    0.356070 0.892792 0.179759 0.324133
H50   H     H_    0.643930 0.107208 0.820241 0.324133
H51   H     H_    0.107181 0.356048 0.179760 0.324204
H52   H     H_    0.892819 0.643952 0.820240 0.324204
H53   H     H_    0.356071 0.107210 0.820241 0.324134
H54   H     H_    0.643929 0.892791 0.179759 0.324133
H55   H     H_    0.107181 0.643952 0.820240 0.324204
H56   H     H_    0.219028 0.733810 0.117577 0.348590
H57   H     H_    0.892819 0.356048 0.179760 0.324204
H58   H     H_    0.643554 0.892809 0.820537 0.324660
H59   H     H_    0.356446 0.107192 0.179463 0.324661
H60   H     H_    0.892782 0.356467 0.820538 0.324591
H61   H     H_    0.107218 0.643533 0.179462 0.324590
H62   H     H_    0.733869 0.781030 0.882422 0.348615
H63   H     H_    0.266129 0.218967 0.117578 0.348614
H64   H     H_    0.780968 0.733806 0.117576 0.348591
O1    O     O_3   0.500000 0.000000 0.750000 -0.497454
O2    O     O_R   0.454070 0.000000 0.333910 -0.611644
O3    O     O_3   0.646554 0.151103 0.675915 -0.648976
O4    O     O_3   0.651131 0.146525 0.175915 -0.648821
O5    O     O_3   0.348868 0.853475 0.824085 -0.648821
O6    O     O_3   0.853444 0.651102 0.175915 -0.648976
O7    O     O_3   0.146556 0.348898 0.824085 -0.648975
O8    O     O_3   0.347948 0.853614 0.175964 -0.650143
O9    O     O_3   0.652051 0.146386 0.824036 -0.650143
O10   O     O_3   0.146356 0.347921 0.175964 -0.649989
O11   O     O_3   0.853644 0.652080 0.824036 -0.649991
O12   O     O_3   0.347950 0.146388 0.824036 -0.650142
O13   O     O_R   0.000000 0.545930 0.666090 -0.611532
O14   O     O_3   0.652050 0.853613 0.175964 -0.650143
O15   O     O_3   0.146356 0.652080 0.824036 -0.649992
O16   O     O_3   0.853644 0.347920 0.175964 -0.649992
O17   O     O_3   0.651131 0.853475 0.824085 -0.648822
O18   O     O_3   0.348870 0.146526 0.175915 -0.648820
O19   O     O_3   0.853446 0.348897 0.824085 -0.648976
O20   O     O_3   0.146554 0.651103 0.175915 -0.648975
O21   O     O_R   0.000000 0.454070 0.333910 -0.611532
O22   O     O_R   0.954070 0.500000 0.166090 -0.611644
O23   O     O_R   0.045930 0.500000 0.833910 -0.611645
O24   O     O_R   0.500000 0.954070 0.166090 -0.611757
O25   O     O_R   0.500000 0.045930 0.833910 -0.611757
O26   O     O_R   0.045930 0.500000 0.166090 -0.611645
O27   O     O_R   0.954070 0.500000 0.833910 -0.611644
O28   O     O_R   0.500000 0.045930 0.166090 -0.611532
O29   O     O_3   0.500000 0.000000 0.250000 -0.497454
O30   O     O_R   0.500000 0.954070 0.833910 -0.611532
O31   O     O_R   0.610280 0.935490 0.728060 -0.613066
O32   O     O_R   0.389720 0.064510 0.271940 -0.613065
O33   O     O_R   0.064510 0.610280 0.728060 -0.611922
O34   O     O_R   0.935490 0.389720 0.271940 -0.611922
O35   O     O_R   0.389720 0.064510 0.728060 -0.612033
O36   O     O_R   0.610280 0.935490 0.271940 -0.612033
O37   O     O_R   0.935490 0.389720 0.728060 -0.613177
O38   O     O_R   0.064510 0.610280 0.271940 -0.613177
O39   O     O_R   0.389720 0.935490 0.271940 -0.612034
O40   O     O_3   1.000000 0.500000 0.750000 -0.497454
O41   O     O_R   0.610280 0.064510 0.728060 -0.612034
O42   O     O_R   0.935490 0.610280 0.271940 -0.613177
O43   O     O_R   0.064510 0.389720 0.728060 -0.613176
O44   O     O_R   0.610280 0.064510 0.271940 -0.613066
O45   O     O_R   0.389720 0.935490 0.728060 -0.613066
O46   O     O_R   0.064510 0.389720 0.271940 -0.611921
O47   O     O_R   0.935490 0.610280 0.728060 -0.611922
O48   O     O_R   0.110280 0.435490 0.228060 -0.613066
O49   O     O_R   0.889720 0.564510 0.771940 -0.613066
O50   O     O_R   0.564510 0.110280 0.228060 -0.611922
O51   O     O_3   0.000000 0.500000 0.250000 -0.497454
O52   O     O_R   0.435490 0.889720 0.771940 -0.611922
O53   O     O_R   0.889720 0.564510 0.228060 -0.612033
O54   O     O_R   0.110280 0.435490 0.771940 -0.612033
O55   O     O_R   0.435490 0.889720 0.228060 -0.613177
O56   O     O_R   0.564510 0.110280 0.771940 -0.613176
O57   O     O_R   0.889720 0.435490 0.771940 -0.612034
O58   O     O_R   0.110280 0.564510 0.228060 -0.612033
O59   O     O_R   0.435490 0.110280 0.771940 -0.613176
O60   O     O_R   0.564510 0.889720 0.228060 -0.613176
O61   O     O_R   0.110280 0.564510 0.771940 -0.613066
O62   O     O_R   0.454070 0.000000 0.666090 -0.611644
O63   O     O_R   0.889720 0.435490 0.228060 -0.613066
O64   O     O_R   0.564510 0.889720 0.771940 -0.611922
O65   O     O_R   0.435490 0.110280 0.228060 -0.611922
O66   O     O_3   0.225999 0.693198 0.859480 -0.671661
O67   O     O_3   0.774000 0.306802 0.140520 -0.671661
O68   O     O_3   0.306854 0.226051 0.859478 -0.671796
O69   O     O_3   0.693147 0.773950 0.140522 -0.671797
O70   O     O_3   0.784800 0.294834 0.861319 -0.672875
O71   O     O_3   0.215199 0.705167 0.138681 -0.672875
O72   O     O_3   0.705216 0.784850 0.861319 -0.672741
O73   O     O_R   0.545930 0.000000 0.333910 -0.611645
O74   O     O_3   0.294783 0.215149 0.138681 -0.672743
O75   O     O_3   0.784798 0.705164 0.138681 -0.672875
O76   O     O_3   0.215203 0.294837 0.861319 -0.672875
O77   O     O_3   0.705217 0.215149 0.138681 -0.672741
O78   O     O_3   0.294783 0.784851 0.861319 -0.672741
O79   O     O_3   0.225999 0.306801 0.140520 -0.671662
O80   O     O_3   0.774000 0.693198 0.859480 -0.671662
O81   O     O_3   0.306850 0.773953 0.140521 -0.671795
O82   O     O_3   0.693149 0.226048 0.859478 -0.671795
O83   O     O_3   0.725999 0.193198 0.359480 -0.671662
O84   O     O_R   0.000000 0.454070 0.666090 -0.611757
O85   O     O_3   0.274001 0.806802 0.640520 -0.671662
O86   O     O_3   0.806853 0.726050 0.359478 -0.671796
O87   O     O_3   0.193146 0.273949 0.640522 -0.671795
O88   O     O_3   0.284801 0.794833 0.361319 -0.672876
O89   O     O_3   0.715200 0.205166 0.638681 -0.672874
O90   O     O_3   0.205214 0.284848 0.361319 -0.672741
O91   O     O_3   0.794784 0.715150 0.638681 -0.672742
O92   O     O_3   0.284797 0.205163 0.638681 -0.672875
O93   O     O_3   0.715202 0.794836 0.361319 -0.672875
O94   O     O_3   0.205217 0.715149 0.638681 -0.672741
O95   O     O_R   0.000000 0.545930 0.333910 -0.611757
O96   O     O_3   0.794783 0.284851 0.361319 -0.672741
O97   O     O_3   0.726000 0.806802 0.640520 -0.671662
O98   O     O_3   0.273998 0.193196 0.359479 -0.671661
O99   O     O_3   0.806851 0.273952 0.640522 -0.671795
O100  O     O_3   0.193150 0.726047 0.359478 -0.671796
O101  O     O_3   0.151132 0.646525 0.675915 -0.648821
O102  O     O_3   0.848869 0.353475 0.324085 -0.648822
O103  O     O_3   0.353444 0.151102 0.675915 -0.648975
O104  O     O_3   0.646556 0.848898 0.324085 -0.648976
O105  O     O_3   0.847948 0.353614 0.675964 -0.650143
O106  O     O_R   0.545930 0.000000 0.666090 -0.611645
O107  O     O_3   0.152052 0.646386 0.324036 -0.650143
O108  O     O_3   0.646356 0.847920 0.675964 -0.649992
O109  O     O_3   0.353643 0.152079 0.324036 -0.649991
O110  O     O_3   0.847950 0.646387 0.324036 -0.650143
O111  O     O_3   0.152050 0.353613 0.675964 -0.650142
O112  O     O_3   0.646356 0.152080 0.324036 -0.649991
O113  O     O_3   0.353644 0.847920 0.675964 -0.649992
O114  O     O_3   0.151131 0.353474 0.324085 -0.648821
O115  O     O_3   0.848869 0.646525 0.675915 -0.648821
O116  O     O_3   0.353446 0.848897 0.324085 -0.648976
Zn1   Zn    Zn3+2 0.500000 0.934510 0.781550 1.017107
Zn2   Zn    Zn3+2 0.000000 0.565490 0.718450 1.017107
Zn3   Zn    Zn3+2 0.565490 0.000000 0.281550 1.016657
Zn4   Zn    Zn3+2 0.434510 0.000000 0.718450 1.016657
Zn5   Zn    Zn3+2 0.000000 0.565490 0.281550 1.016209
Zn6   Zn    Zn3+2 0.000000 0.434510 0.718450 1.016209
Zn7   Zn    Zn3+2 0.434510 0.000000 0.281550 1.016657
Zn8   Zn    Zn3+2 0.565490 0.000000 0.718450 1.016657
Zn9   Zn    Zn3+2 0.500000 0.065490 0.218450 1.017107
Zn10  Zn    Zn3+2 0.065490 0.500000 0.781550 1.016657
Zn11  Zn    Zn3+2 0.934510 0.500000 0.218450 1.016657
Zn12  Zn    Zn3+2 0.500000 0.065490 0.781550 1.016209
Zn13  Zn    Zn3+2 0.500000 0.934510 0.218450 1.016209
Zn14  Zn    Zn3+2 0.934510 0.500000 0.781550 1.016657
Zn15  Zn    Zn3+2 0.065490 0.500000 0.218450 1.016657
Zn16  Zn    Zn3+2 0.000000 0.434510 0.281550 1.017108

loop_
_geom_bond_atom_site_label_1
_geom_bond_atom_site_label_2
_ccdc_geom_bond_type
C106  O94   S    
C142  O63   A    
H17   O91   S    
O57   Zn14  S    
O29   Zn7   S    
C141  O61   A    
C12   C23   A    
C136  O27   A    
C115  C136  S    
C25   C164  A    
C130  O106  A    
O95   Zn5   S    
C114  C137  S    
H63   O74   S    
O32   Zn7   S    
C48   C91   A    
C111  C125  S    
C27   C151  S    
C60   C103  A    
C117  C126  T    
C65   C108  A    
C36   C71   A    
C97   C105  A    
C119  C128  T    
C32   C172  A    
C107  O96   S    
C29   C175  A    
O28   Zn9   S    
C171  O115  S    
H47   O6    S    
C45   C81   A    
C2    O67   S    
C6    O10   S    
C10   O15   S    
H35   O109  S    
C25   C140  S    
C7    C31   A    
O13   Zn2   S    
O34   Zn16  S    
O61   Zn10  S    
C176  O6    S    
C101  C110  A    
H33   O108  S    
C164  O109  S    
C53   C82   A    
C100  C124  S    
C40   C46   A    
C173  O3    S    
H48   O7    S    
C157  O101  S    
C147  O58   A    
C11   O16   S    
O51   Zn16  S    
C67   C74   A    
C128  C144  S    
C15   C39   A    
C4    C32   A    
O24   Zn13  S    
C16   C40   A    
C6    C30   A    
O60   Zn13  S    
O21   Zn16  S    
C153  O45   A    
C103  O91   S    
C159  O103  S    
C54   C165  A    
O1    Zn4   S    
O65   Zn9   S    
C138  O30   A    
C132  O84   A    
C66   C77   A    
C59   C102  A    
C152  O50   A    
O30   Zn1   S    
C40   C75   A    
C50   C85   A    
C148  O39   A    
H18   O92   S    
C21   C146  S    
C108  O97   S    
C33   C149  S    
C41   C76   A    
C55   C80   A    
O44   Zn3   S    
O62   Zn4   S    
C55   C98   A    
C69   C112  A    
O40   Zn2   S    
C70   C82   A    
C28   C168  A    
H14   O88   S    
C109  O98   S    
C137  O24   A    
O58   Zn15  S    
C30   C154  S    
H56   O71   S    
C100  C111  T    
C20   C160  A    
C149  O41   A    
C5    C51   A    
C102  C109  A    
C29   C169  A    
C93   O81   S    
O41   Zn8   S    
O59   Zn12  S    
O31   Zn8   S    
H50   O9    S    
C11   C18   A    
C57   C92   A    
C13   O68   S    
C141  O33   A    
C31   C156  S    
C116  C135  S    
H4    O78   S    
C172  O116  S    
C149  O56   A    
H6    O80   S    
H8    O82   S    
C49   C84   A    
C16   O20   S    
H46   O5    S    
H31   O105  S    
C153  O52   A    
H29   O103  S    
O35   Zn4   S    
O27   Zn14  S    
C67   C110  A    
H25   O99   S    
H40   O114  S    
C92   O80   S    
C5    C33   A    
C119  C131  S    
C62   C73   A    
C154  O48   A    
O29   Zn3   S    
C17   C157  A    
H19   O93   S    
C174  O4    S    
H52   O11   S    
C14   C25   A    
C136  O23   A    
C13   C87   A    
O84   Zn6   S    
C58   C86   A    
C3    C44   A    
C41   C57   A    
C8    C19   A    
C120  C129  T    
C160  O104  S    
C69   C162  A    
C162  O107  S    
C94   O82   S    
C7    O11   S    
H23   O68   S    
C24   C79   A    
C26   C176  A    
O39   Zn7   S    
C163  O108  S    
C65   C163  A    
H61   O20   S    
C66   C164  A    
C6    C48   A    
C114  C123  T    
C134  O21   A    
C116  C125  T    
C47   C90   A    
C62   C160  A    
C12   O17   S    
C63   C157  A    
C146  O37   A    
O51   Zn11  S    
C35   C94   A    
C148  O55   A    
C8    O12   S    
H15   O89   S    
C20   C145  S    
C60   C171  A    
O37   Zn6   S    
O1    Zn1   S    
O2    Zn7   S    
C138  O25   A    
C161  O105  S    
C48   C83   A    
C3    C27   A    
C72   C80   A    
C28   C174  A    
C31   C171  A    
H59   O18   S    
O63   Zn11  S    
O64   Zn1   S    
C9    C38   A    
C154  O46   A    
C39   C74   A    
C52   C81   A    
C1    C121  S    
O53   Zn11  S    
C118  C132  S    
C113  C121  T    
C135  O22   A    
C118  C127  T    
H30   O104  S    
O50   Zn9   S    
C56   C99   A    
C156  O47   A    
C56   C172  A    
O26   Zn15  S    
C152  O44   A    
H26   O100  S    
C71   C81   A    
C26   C165  A    
C105  O93   S    
O1    Zn8   S    
O22   Zn11  S    
C55   C167  A    
H2    O76   S    
C76   C84   A    
H32   O107  S    
C143  O59   A    
O56   Zn12  S    
C43   C78   A    
O49   Zn14  S    
C65   C76   A    
C3    O7    S    
C59   C83   A    
O29   Zn13  S    
C22   C162  A    
C137  O28   A    
O42   Zn5   S    
C52   C95   A    
C17   C141  S    
H1    O66   S    
C64   C71   A    
C30   C170  A    
O29   Zn9   S    
H57   O16   S    
C91   O79   S    
C75   C85   A    
O1    Zn12  S    
O55   Zn13  S    
C135  O26   A    
C1    C89   T    
C54   C97   A    
O51   Zn15  S    
C44   C87   A    
H55   O15   S    
C34   C70   A    
C110  O99   S    
C53   C169  A    
H49   O8    S    
C90   C166  A    
C53   C96   A    
C143  O35   A    
C169  O113  S    
C79   O75   S    
C117  C134  S    
C112  O100  S    
C51   C86   A    
C170  O114  S    
C5    O9    S    
C44   C80   A    
C45   C88   A    
O40   Zn10  S    
C14   O18   S    
C129  C155  S    
H22   O97   S    
O46   Zn16  S    
H27   O101  S    
O45   Zn4   S    
C4    C50   A    
C35   C39   A    
C12   C41   A    
C18   C158  A    
C158  O102  S    
H5    O79   S    
C43   C176  A    
C67   C161  A    
C9    C20   A    
C26   C150  S    
C145  O36   A    
C63   C106  A    
C95   C107  A    
C132  O13   A    
C168  O112  S    
C61   C72   A    
H20   O94   S    
C96   O85   S    
C58   C173  A    
C8    C37   A    
C49   C92   A    
C147  O38   A    
C16   C22   A    
C115  C124  T    
C150  O53   A    
C127  C133  S    
H54   O14   S    
C131  O2    A    
C46   O71   S    
C32   C148  S    
O38   Zn5   S    
O23   Zn10  S    
C19   C159  A    
O106  Zn8   S    
H36   O110  S    
C45   C174  A    
C56   C85   A    
C98   O87   S    
C130  O62   A    
C69   C75   A    
C66   C109  A    
H28   O102  S    
C22   C147  S    
C37   C72   A    
C113  C138  S    
H11   O86   S    
C34   C166  A    
C97   O86   S    
C54   C78   A    
C99   O88   S    
H58   O17   S    
H10   O85   S    
O40   Zn14  S    
C87   O76   S    
C166  O66   S    
C151  O54   A    
C9    O14   S    
C167  O111  S    
C145  O60   A    
O36   Zn3   S    
C101  O89   S    
H44   O4    S    
C134  O95   A    
H38   O112  S    
C120  C130  S    
C23   C139  S    
C11   C36   A    
C165  O110  S    
C61   C159  A    
C77   C83   A    
C10   C17   A    
C43   C79   A    
C68   C91   A    
C150  O42   A    
C47   C82   A    
H16   O90   S    
C4    O8    S    
H21   O96   S    
H24   O98   S    
H39   O113  S    
C24   C38   A    
C73   C78   A    
C2    C88   A    
C103  C108  A    
O54   Zn10  S    
C59   C170  A    
C33   C173  A    
C142  O34   A    
C13   C37   A    
H3    O77   S    
C61   C104  A    
C14   C42   A    
O25   Zn12  S    
C140  O65   A    
H62   O72   S    
C42   C68   A    
H41   O115  S    
C104  O92   S    
C23   C163  A    
O73   Zn3   S    
C21   C161  A    
O47   Zn2   S    
C18   C142  S    
C7    C49   A    
C90   O78   S    
C58   C101  A    
H64   O75   S    
C95   O83   S    
C89   C123  S    
O43   Zn6   S    
C139  O31   A    
C140  O32   A    
O52   Zn1   S    
C122  C126  S    
O33   Zn2   S    
C122  C133  T    
O51   Zn5   S    
C151  O43   A    
H45   O70   S    
C63   C70   A    
H13   O87   S    
C102  O90   S    
C68   O74   S    
C10   C34   A    
C74   C86   A    
H12   O67   S    
H34   O69   S    
C139  O64   A    
H9    O83   S    
H51   O10   S    
H42   O116  S    
H7    O81   S    
C28   C152  S    
C175  O5    S    
C88   O77   S    
O40   Zn6   S    
C64   C158  A    
C15   O19   S    
C64   C107  A    
C29   C153  S    
C146  O57   A    
C2    C36   A    
C96   C106  A    
H60   O19   S    
C19   C143  S    
C57   O72   S    
C50   C93   A    
H37   O111  S    
C144  C155  T    
C52   C168  A    
C35   O70   S    
C60   C84   A    
C46   C93   A    
C98   C104  A    
C99   C112  A    
C131  O73   A    
H43   O3    S    
C156  O49   A    
O48   Zn15  S    
C47   C175  A    
H53   O12   S    
C51   C94   A    
C15   C21   A    
C42   C77   A    
C24   O69   S    
C62   C105  A    
C27   C167  A    
C38   C73   A    
