data_mof_unit_pretest_804.cif
_audit_creation_date              2012-12-10T20:43:39-0500
_audit_creation_method            fapswitch 2.2
_symmetry_space_group_name_H-M    P1
_symmetry_Int_Tables_number       1
_space_group_crystal_system       triclinic
_cell_length_a                    18.496009
_cell_length_b                    18.701411
_cell_length_c                    18.823511
_cell_angle_alpha                 109.549242
_cell_angle_beta                  109.090001
_cell_angle_gamma                 108.903736
_cell_volume                      5065.24590522

loop_
_atom_site_label
_atom_site_type_symbol
_atom_type_description
_atom_site_fract_x
_atom_site_fract_y
_atom_site_fract_z
_atom_type_partial_charge
C1    C     C_R   0.381086 0.501991 0.380535 0.857391
C2    C     C_R   0.313870 0.458158 0.002357 -0.123150
C3    C     C_R   0.120297 0.118973 0.499021 0.863651
C4    C     C_R   0.002332 0.380364 0.881333 0.896642
C5    C     C_R   0.120098 0.499681 0.119882 0.880790
C6    C     C_R   0.998823 0.620020 0.119312 0.865761
C7    C     C_R   0.879888 0.498648 0.878691 0.878142
C8    C     C_R   0.085093 0.753716 0.540582 -0.155082
C9    C     C_R   0.080350 0.769152 0.471909 -0.091185
C10   C     C_R   0.000717 0.723446 0.394395 0.111616
C11   C     C_R   0.926836 0.659861 0.385441 -0.195247
C12   C     C_R   0.931709 0.644862 0.454408 -0.121456
C13   C     C_R   0.339297 0.538556 0.005370 -0.104154
C14   C     C_R   0.830768 0.693944 0.753669 -0.144959
C15   C     C_R   0.010813 0.691731 0.531901 -0.116005
C16   C     C_R   0.992731 0.672914 0.252201 -0.251255
C17   C     C_R   0.996963 0.685824 0.184432 -0.080977
C18   C     C_R   0.004139 0.762786 0.182920 0.011052
C19   C     C_R   0.002019 0.823286 0.247757 -0.277869
C20   C     C_R   0.999280 0.811047 0.316038 -0.082273
C21   C     C_R   0.997078 0.736600 0.320300 -0.016750
C22   C     C_R   0.088947 0.861084 0.142666 -0.211362
C23   C     C_R   0.104783 0.878174 0.080839 -0.150623
C24   C     C_R   0.078331 0.257716 0.749817 -0.281963
C25   C     C_R   0.049579 0.817268 0.992774 0.277847
C26   C     C_3   0.578260 0.912502 0.634289 -0.996991
C27   C     C_3   0.969233 0.351707 0.206350 0.091156
C28   C     C_3   0.996344 0.425957 0.292334 -0.822279
C29   C     C_3   0.849450 0.649631 0.622104 -0.978707
C30   C     C_3   0.068864 0.834451 0.926884 -0.965584
C31   C     C_3   0.621200 0.051569 0.432058 -0.933327
C32   C     C_3   0.857717 0.016144 0.730614 0.063887
C33   C     C_3   0.924620 0.005369 0.792945 -0.818306
C34   C     C_R   0.829092 0.805864 0.570323 -0.188059
C35   C     C_R   0.997787 0.185700 0.684385 -0.042556
C36   C     C_R   0.918884 0.178560 0.682013 0.046694
C37   C     C_R   0.922676 0.243966 0.747991 -0.283131
C38   C     C_R   0.003370 0.315961 0.814191 -0.070323
C39   C     C_R   0.082349 0.324491 0.814561 -0.003409
C40   C     C_R   0.769807 0.112843 0.558311 -0.226561
C41   C     C_R   0.803912 0.737655 0.806661 -0.133973
C42   C     C_R   0.688430 0.040890 0.491880 0.276745
C43   C     C_R   0.670169 0.958031 0.481054 -0.195943
C44   C     C_R   0.731772 0.947489 0.537003 -0.275786
C45   C     C_R   0.811990 0.019205 0.604873 0.497817
C46   C     C_R   0.813305 0.806529 0.492805 -0.095158
C47   C     C_R   0.832457 0.102266 0.613970 -0.033716
C48   C     C_R   0.733062 0.744071 0.415818 -0.008614
C49   C     C_R   0.670162 0.682284 0.419445 -0.275057
C50   C     C_R   0.685466 0.684628 0.497938 -0.082893
C51   C     C_R   0.764417 0.747019 0.574054 -0.006940
C52   C     C_R   0.977205 0.740391 0.967572 -0.116121
C53   C     C_R   0.636389 0.740347 0.283742 -0.150686
C54   C     C_R   0.616346 0.735001 0.203138 -0.148899
C55   C     C_R   0.672182 0.729036 0.168969 -0.127110
C56   C     C_R   0.619257 0.619649 0.498843 0.879281
C57   C     C_R   0.748223 0.728527 0.215416 -0.112049
C58   C     C_R   0.768451 0.733918 0.296021 -0.107513
C59   C     C_R   0.712933 0.740201 0.331069 0.140084
C60   C     C_R   0.420981 0.801071 0.521454 -0.148727
C61   C     C_R   0.358810 0.721637 0.446221 -0.221090
C62   C     C_R   0.385440 0.669048 0.400478 0.138687
C63   C     C_R   0.959176 0.724841 0.028848 -0.163561
C64   C     C_R   0.475054 0.698127 0.429963 -0.163475
C65   C     C_R   0.537041 0.776340 0.506414 -0.133129
C66   C     C_R   0.510630 0.828571 0.552424 0.299085
C67   C     C_R   0.254703 0.579548 0.256101 -0.262340
C68   C     C_R   0.618051 0.497170 0.619590 0.884160
C69   C     C_R   0.185780 0.499557 0.186367 -0.074485
C70   C     C_R   0.178464 0.421137 0.183026 0.058397
C71   C     C_R   0.245307 0.424060 0.246542 -0.222437
C72   C     C_R   0.315443 0.504073 0.315715 -0.101570
C73   C     C_R   0.318824 0.583022 0.323178 0.006431
C74   C     C_R   0.016711 0.783470 0.117011 0.132787
C75   C     C_R   0.032151 0.298168 0.129806 0.545113
C76   C     C_R   0.956312 0.219923 0.061616 -0.271199
C77   C     C_R   0.947625 0.183538 0.979287 -0.171065
C78   C     C_R   0.015200 0.223007 0.964575 -0.111446
C79   C     C_R   0.091811 0.298517 0.032248 -0.236443
C80   C     C_R   0.378690 0.380271 0.499268 0.858173
C81   C     C_R   0.101005 0.336120 0.114856 0.037665
C82   C     C_R   0.207020 0.518890 0.576623 -0.141774
C83   C     C_R   0.219332 0.448262 0.573845 -0.157723
C84   C     C_R   0.226295 0.397252 0.504788 0.118625
C85   C     C_R   0.281249 0.549055 0.945550 -0.163072
C86   C     C_R   0.219384 0.417168 0.438005 -0.075628
C87   C     C_R   0.207513 0.488132 0.441310 -0.089170
C88   C     C_R   0.201391 0.538974 0.510528 -0.141581
C89   C     C_R   0.176845 0.256202 0.501459 -0.247790
C90   C     C_R   0.186673 0.184521 0.498640 -0.071916
C91   C     C_R   0.259907 0.177723 0.497404 -0.002845
C92   C     C_R   0.766760 0.786450 0.784900 -0.130455
C93   C     C_R   0.321886 0.243388 0.497247 -0.258158
C94   C     C_R   0.311678 0.314660 0.499089 -0.081374
C95   C     C_R   0.239315 0.322401 0.502186 -0.002639
C96   C     C_R   0.197308 0.479525 0.883442 -0.092204
C97   C     C_R   0.345893 0.114990 0.561273 -0.146065
C98   C     C_R   0.359342 0.044649 0.557296 -0.138469
C99   C     C_R   0.300358 0.961773 0.485746 -0.126317
C100  C     C_R   0.227882 0.949118 0.418069 -0.133893
C101  C     C_R   0.213672 0.019128 0.422120 -0.127371
C102  C     C_R   0.272583 0.102571 0.493935 0.135182
C103  C     C_R   0.556701 0.586695 0.863647 -0.145535
C104  C     C_R   0.755717 0.790804 0.709758 -0.156506
C105  C     C_R   0.624802 0.581763 0.849005 -0.149829
C106  C     C_R   0.606931 0.509397 0.776766 0.138100
C107  C     C_R   0.170124 0.399403 0.881989 0.122535
C108  C     C_R   0.520175 0.441593 0.720197 -0.120963
C109  C     C_R   0.452308 0.446751 0.735170 -0.112477
C110  C     C_R   0.470518 0.519325 0.806702 -0.115364
C111  C     C_R   0.746450 0.506350 0.825072 -0.266398
C112  C     C_R   0.813295 0.496823 0.811497 -0.079431
C113  C     C_R   0.813386 0.481986 0.733299 -0.025517
C114  C     C_R   0.745751 0.478110 0.669308 -0.244271
C115  C     C_R   0.680732 0.491671 0.684183 -0.078132
C116  C     C_R   0.782607 0.746927 0.656336 0.092508
C117  C     C_R   0.679203 0.503608 0.761674 0.005801
C118  C     C_R   0.230041 0.388476 0.940165 -0.194354
C119  C     C_R   0.961829 0.541871 0.746030 -0.107270
C120  C     C_R   0.026201 0.530034 0.728467 -0.150812
C121  C     C_R   0.011406 0.446229 0.681057 -0.122027
C122  C     C_R   0.932357 0.374151 0.651426 -0.120311
C123  C     C_R   0.867854 0.385687 0.669045 -0.172491
C124  C     C_R   0.882340 0.469671 0.716515 0.116447
C125  C     C_R   0.998261 0.877460 0.380742 0.862298
C126  C     C_R   0.879774 0.876509 0.496520 0.920937
C127  C     C_R   0.998717 0.119434 0.619421 0.930829
C128  C     C_R   0.820853 0.698207 0.678552 0.228055
H1    H     H_    0.811104 0.733013 0.864104 0.133263
H2    H     H_    0.241245 0.363836 0.243598 0.151654
H3    H     H_    0.745319 0.819822 0.825537 0.125928
H4    H     H_    0.903488 0.187862 0.071785 0.126356
H5    H     H_    0.888049 0.125084 0.926803 0.136055
H6    H     H_    0.008144 0.195856 0.900646 0.151701
H7    H     H_    0.143285 0.329299 0.020205 0.139462
H8    H     H_    0.191825 0.593631 0.512682 0.129716
H9    H     H_    0.201905 0.558079 0.630063 0.123178
H10   H     H_    0.224102 0.433694 0.625747 0.117510
H11   H     H_    0.223102 0.377738 0.383549 0.113600
H12   H     H_    0.656531 0.724814 0.106536 0.118116
H13   H     H_    0.202321 0.503397 0.389897 0.158670
H14   H     H_    0.724173 0.826429 0.691927 0.127063
H15   H     H_    0.120323 0.260554 0.503340 0.152060
H16   H     H_    0.378606 0.239103 0.495898 0.155207
H17   H     H_    0.392340 0.179035 0.616834 0.123096
H18   H     H_    0.415716 0.054455 0.609491 0.127155
H19   H     H_    0.311029 0.907438 0.482502 0.119269
H20   H     H_    0.183122 0.885064 0.362340 0.142628
H21   H     H_    0.157592 0.008700 0.369078 0.102053
H22   H     H_    0.417898 0.523211 0.818174 0.124607
H23   H     H_    0.791539 0.723989 0.189022 0.138290
H24   H     H_    0.570758 0.642720 0.919214 0.120067
H25   H     H_    0.691281 0.634454 0.893548 0.114431
H26   H     H_    0.505266 0.384729 0.664842 0.097497
H27   H     H_    0.385622 0.394405 0.691471 0.135886
H28   H     H_    0.746613 0.515451 0.885187 0.146266
H29   H     H_    0.746006 0.468360 0.609263 0.168737
H30   H     H_    0.973881 0.607086 0.782574 0.114808
H31   H     H_    0.087501 0.585812 0.751484 0.115575
H32   H     H_    0.061264 0.437140 0.667439 0.118464
H33   H     H_    0.921203 0.309409 0.614802 0.137764
H34   H     H_    0.827501 0.733728 0.331365 0.097863
H35   H     H_    0.806757 0.329457 0.645759 0.125299
H36   H     H_    0.014863 0.679420 0.584929 0.126796
H37   H     H_    0.857781 0.655004 0.769639 0.132717
H38   H     H_    0.146529 0.789325 0.600292 0.118588
H39   H     H_    0.138734 0.816273 0.478859 0.129044
H40   H     H_    0.865768 0.621681 0.325032 0.131158
H41   H     H_    0.874413 0.596315 0.447495 0.140542
H42   H     H_    0.990252 0.614788 0.254030 0.157863
H43   H     H_    0.005171 0.881768 0.246405 0.156128
H44   H     H_    0.134083 0.907458 0.210550 0.137745
H45   H     H_    0.399071 0.840324 0.556051 0.122800
H46   H     H_    0.161081 0.937934 0.101636 0.141501
H47   H     H_    0.935538 0.691200 0.900924 0.124105
H48   H     H_    0.891316 0.852537 0.628504 0.181670
H49   H     H_    0.902419 0.665305 0.007694 0.104769
H50   H     H_    0.404290 0.592363 0.053349 0.118787
H51   H     H_    0.301429 0.610938 0.947016 0.116025
H52   H     H_    0.153503 0.488183 0.836747 0.134832
H53   H     H_    0.212006 0.325837 0.936867 0.128588
H54   H     H_    0.359368 0.449610 0.047726 0.132764
H55   H     H_    0.138313 0.262410 0.749583 0.152874
H56   H     H_    0.289836 0.700410 0.424416 0.131562
H57   H     H_    0.862405 0.238681 0.747766 0.158351
H58   H     H_    0.784884 0.176873 0.566157 0.140269
H59   H     H_    0.608778 0.632451 0.361119 0.145889
H60   H     H_    0.608094 0.901649 0.429521 0.159282
H61   H     H_    0.717286 0.883557 0.528057 0.162853
H62   H     H_    0.592600 0.745112 0.309512 0.120607
H63   H     H_    0.557513 0.735490 0.167169 0.121282
H64   H     H_    0.547543 0.946174 0.663883 0.242057
H65   H     H_    0.618630 0.899562 0.681502 0.234188
H66   H     H_    0.621462 0.956225 0.620409 0.250979
H67   H     H_    0.496645 0.659032 0.394850 0.103936
H68   H     H_    0.914747 0.292244 0.192940 0.137452
H69   H     H_    0.945348 0.369308 0.155562 0.151297
H70   H     H_    0.051019 0.486424 0.307690 0.247265
H71   H     H_    0.940128 0.437125 0.288729 0.205178
H72   H     H_    0.017448 0.409763 0.344488 0.266414
H73   H     H_    0.792207 0.600238 0.557179 0.253673
H74   H     H_    0.898743 0.695950 0.615575 0.250779
H75   H     H_    0.879427 0.615895 0.649627 0.237907
H76   H     H_    0.066179 0.893947 0.930471 0.251686
H77   H     H_    0.135281 0.843988 0.939925 0.238863
H78   H     H_    0.605566 0.795359 0.530695 0.133710
H79   H     H_    0.020942 0.779545 0.860330 0.240919
H80   H     H_    0.644826 0.120630 0.448400 0.237650
H81   H     H_    0.605888 0.013041 0.364574 0.241409
H82   H     H_    0.560434 0.028108 0.436678 0.245118
H83   H     H_    0.790909 0.965944 0.708998 0.134848
H84   H     H_    0.865573 0.081634 0.766032 0.142885
H85   H     H_    0.992024 0.054051 0.814625 0.257962
H86   H     H_    0.915364 0.014096 0.849982 0.206749
H87   H     H_    0.916610 0.939553 0.761553 0.251733
H88   H     H_    0.257068 0.639363 0.259329 0.154825
O1    O     O_R   0.408360 0.551710 0.460090 -0.606896
O2    O     O_R   0.948290 0.356630 0.908390 -0.621792
O3    O     O_R   0.143340 0.551690 0.091580 -0.617163
O4    O     O_R   0.408400 0.448280 0.356670 -0.627369
O5    O     O_R   0.039900 0.448270 0.091610 -0.630899
O6    O     O_R   0.051710 0.643320 0.091560 -0.609945
O7    O     O_R   0.948270 0.539900 0.091590 -0.632216
O8    O     O_R   0.960100 0.551680 0.908340 -0.623238
O9    O     O_R   0.856660 0.448270 0.908370 -0.622445
O10   O     O_R   0.591600 0.643340 0.551710 -0.618128
O11   O     O_R   0.591630 0.539900 0.448290 -0.624286
O12   O     O_R   0.948280 0.908380 0.356650 -0.625595
O13   O     O_R   0.591600 0.551720 0.643330 -0.601134
O14   O     O_R   0.591640 0.448290 0.539910 -0.631509
O15   O     O_R   0.408370 0.460100 0.551710 -0.608463
O16   O     O_R   0.408400 0.356660 0.448290 -0.625509
O17   O     O_R   0.051730 0.908360 0.460060 -0.620368
O18   O     O_3   0.041436 0.338311 0.211528 -0.630918
O19   O     O_3   0.871850 0.007117 0.659578 -0.627574
O20   O     O_R   0.960110 0.908350 0.551690 -0.612505
O21   O     O_R   0.856660 0.908370 0.448270 -0.612685
O22   O     O_R   0.051720 0.091580 0.643310 -0.611368
O23   O     O_R   0.948270 0.091600 0.539890 -0.630112
O24   O     O_R   0.143340 0.091590 0.551680 -0.618643
O25   O     O_R   0.039890 0.091610 0.448270 -0.625981
O26   O     O_R   0.051730 0.460050 0.908360 -0.617553
Zn1   Zn    Zn3+2 0.499980 0.569060 0.569060 0.985210
Zn2   Zn    Zn3+2 0.500020 0.430940 0.430940 0.941747
Zn3   Zn    Zn3+2 0.069070 0.999960 0.569030 0.969779
Zn4   Zn    Zn3+2 0.930930 0.999990 0.430930 0.970065
Zn5   Zn    Zn3+2 0.069070 0.569030 0.999960 0.962560
Zn6   Zn    Zn3+2 0.930930 0.430930 0.000000 0.931499

loop_
_geom_bond_atom_site_label_1
_geom_bond_atom_site_label_2
_ccdc_geom_bond_type
C40   C47   A    
C105  H25   S    
C87   C88   A    
C127  O23   A    
C16   C21   A    
C29   H75   S    
C31   C42   S    
C41   H1    S    
C5    O5    A    
C111  C112  A    
C27   H69   S    
C43   C44   A    
C97   C98   A    
C2    C118  A    
C123  C124  A    
C23   H46   S    
C5    O3    A    
C77   C78   A    
C7    C112  S    
C39   C107  S    
O4    Zn2   S    
C34   C51   A    
C93   C94   A    
C122  H33   S    
C36   C47   S    
C3    C90   S    
C36   C37   A    
C19   H43   S    
C113  C114  A    
C82   H9    S    
C69   C70   A    
C33   H86   S    
C2    H54   S    
C38   C39   A    
O13   Zn1   S    
C85   C96   A    
C82   C88   A    
O12   Zn4   S    
C13   H50   S    
C64   H67   S    
C24   C39   A    
C14   C128  A    
C108  C109  A    
C75   O18   S    
C17   C18   A    
C18   C19   A    
C3    O25   A    
C70   C81   S    
C2    C13   A    
C62   C64   A    
C27   O18   S    
C24   C35   A    
C104  C116  A    
C37   H57   S    
C35   C36   A    
C8    C9    A    
C115  C117  A    
C121  H32   S    
C49   H59   S    
C120  H31   S    
C5    C69   S    
C62   C73   S    
C70   C71   A    
C34   C46   A    
C125  O12   A    
C126  O20   A    
C53   H62   S    
C107  C118  A    
C97   C102  A    
C90   C91   A    
O14   Zn2   S    
C3    O24   A    
O9    Zn6   S    
C40   C42   A    
C60   C66   A    
C18   C74   S    
O16   Zn2   S    
C24   H55   S    
C60   H45   S    
C67   H88   S    
C94   C95   A    
C77   H5    S    
C79   H7    S    
C80   O16   A    
C4    O26   A    
C112  C113  A    
C68   O14   A    
C114  C115  A    
C45   C47   A    
C10   C21   S    
C53   C59   A    
C46   C48   A    
C1    C72   S    
C29   H73   S    
C54   H63   S    
O25   Zn4   S    
C28   H71   S    
C101  C102  A    
C15   H36   S    
C9    H39   S    
C92   H3    S    
C34   H48   S    
C76   C77   A    
C88   H8    S    
O11   Zn2   S    
C79   C81   A    
C32   H83   S    
C33   H85   S    
C78   C79   A    
C16   C17   A    
C65   H78   S    
C98   H18   S    
C58   C59   A    
C119  C124  A    
C30   H77   S    
C28   H70   S    
C55   H12   S    
C60   C61   A    
C67   C69   A    
C84   C95   S    
C26   C66   S    
C89   C95   A    
O15   Zn1   S    
C75   C76   A    
O1    Zn1   S    
C114  H29   S    
C37   C38   A    
C44   H61   S    
C91   C93   A    
C123  H35   S    
O6    Zn5   S    
O8    Zn5   S    
C99   C100  A    
C31   H81   S    
C12   C15   A    
C85   H51   S    
C41   C92   A    
C50   C51   A    
C103  C105  A    
C28   H72   S    
C87   H13   S    
C14   H37   S    
C35   C127  S    
C78   H6    S    
C52   H47   S    
C121  C122  A    
C93   H16   S    
C8    H38   S    
C103  H24   S    
C14   C41   A    
C67   C73   A    
C86   H11   S    
C48   C49   A    
O5    Zn6   S    
C96   C107  A    
C4    C38   S    
C82   C83   A    
C8    C15   A    
C4    O2    A    
C103  C110  A    
C106  C117  S    
C11   H40   S    
C49   C50   A    
C104  H14   S    
C83   C84   A    
C31   H82   S    
C42   C43   A    
C22   C74   A    
C80   O15   A    
C80   C94   S    
C58   H34   S    
C40   H58   S    
C30   H76   S    
C68   O13   A    
C48   C59   S    
C6    O7    A    
C9    C10   A    
C118  H53   S    
C25   C30   S    
C6    C17   S    
C99   H19   S    
C54   C55   A    
C61   H56   S    
C26   H64   S    
C29   H74   S    
C56   O11   A    
C86   C87   A    
C97   H17   S    
O20   Zn3   S    
C46   C126  S    
C22   C23   A    
C75   C81   A    
C44   C45   A    
C45   O19   S    
C84   C86   A    
C72   C73   A    
C110  H22   S    
C52   C63   A    
C119  C120  A    
C53   C54   A    
C12   H41   S    
C63   C74   A    
O7    Zn6   S    
C7    O9    A    
C105  C106  A    
C126  O21   A    
C51   C116  S    
C63   H49   S    
C56   O10   A    
C111  C117  A    
O26   Zn5   S    
C64   C65   A    
C96   H52   S    
C19   C20   A    
C55   C57   A    
C89   C90   A    
C25   C52   A    
C71   C72   A    
C65   C66   A    
C89   H15   S    
C109  C110  A    
C32   C33   S    
C71   H2    S    
O23   Zn4   S    
C7    O8    A    
C76   H4    S    
O17   Zn3   S    
C57   C58   A    
O24   Zn3   S    
C113  C124  S    
C106  C108  A    
C43   H60   S    
C100  H20   S    
C119  H30   S    
C32   H84   S    
C30   H79   S    
C57   H23   S    
O22   Zn3   S    
C101  H21   S    
C100  C101  A    
O21   Zn4   S    
C1    O4    A    
O3    Zn5   S    
C23   C25   A    
C61   C62   A    
C109  H27   S    
C50   C56   S    
C125  O17   A    
C10   C11   A    
C92   C104  A    
C68   C115  S    
O10   Zn1   S    
C16   H42   S    
C20   C125  S    
C111  H28   S    
C108  H26   S    
C20   C21   A    
C127  O22   A    
C98   C99   A    
C116  C128  A    
C29   C128  S    
C13   C85   A    
C27   C28   S    
C120  C121  A    
C1    O1    A    
C27   H68   S    
C91   C102  S    
C122  C123  A    
C26   H65   S    
C31   H80   S    
C33   H87   S    
C83   H10   S    
C22   H44   S    
C11   C12   A    
O2    Zn6   S    
C6    O6    A    
C32   O19   S    
C26   H66   S    
