data_mof_unit_pretest_994.cif
_audit_creation_date              2012-12-10T17:39:09-0500
_audit_creation_method            fapswitch 2.2
_symmetry_space_group_name_H-M    P1
_symmetry_Int_Tables_number       1
_space_group_crystal_system       triclinic
_cell_length_a                    12.031954
_cell_length_b                    12.927874
_cell_length_c                    23.428211
_cell_angle_alpha                 91.643091
_cell_angle_beta                  83.929965
_cell_angle_gamma                 93.609625
_cell_volume                      3615.69101668

loop_
_atom_site_label
_atom_site_type_symbol
_atom_type_description
_atom_site_fract_x
_atom_site_fract_y
_atom_site_fract_z
_atom_type_partial_charge
C1    C     C_R   0.521440 0.700907 0.498266 1.003594
C2    C     C_R   0.437770 0.397995 0.304320 0.231207
C3    C     C_R   0.552909 0.539621 0.767223 0.393765
C4    C     C_R   0.408247 0.396775 0.247361 0.399176
C5    C     C_R   0.479138 0.460698 0.792307 0.060429
C6    C     C_R   0.460259 0.471725 0.209623 0.044013
C7    C     C_R   0.466157 0.186149 0.502895 -0.283914
C8    C     C_R   0.530361 0.813155 0.504795 -0.320919
C9    C     C_R   0.624144 0.966553 0.543826 0.437990
C10   C     C_R   0.342000 0.032372 0.519929 0.415527
C11   C     C_R   0.622978 0.860441 0.530005 0.317274
C12   C     C_R   0.478637 0.298819 0.499604 1.087382
C13   C     C_R   0.356540 0.138221 0.509309 0.392491
C14   C     C_R   0.436258 0.870728 0.496588 0.415795
C15   C     C_R   0.561323 0.127183 0.507824 0.380078
C16   C     C_R   0.497754 0.498163 0.610957 0.966262
C17   C     C_R   0.501216 0.499797 0.388825 1.082933
C18   C     C_R   0.437251 0.974081 0.515866 -0.233323
C19   C     C_R   0.540954 0.024350 0.524681 -0.213915
C20   C     C_R   0.963615 0.437627 0.431674 0.321364
C21   C     C_R   0.033986 0.511419 0.576436 0.295048
C22   C     C_R   0.852626 0.468479 0.436107 0.455723
C23   C     C_R   0.417975 0.393265 0.758771 -0.198107
C24   C     C_R   0.150164 0.541873 0.564235 0.428191
C25   C     C_R   0.850748 0.488623 0.536298 0.065303
C26   C     C_R   0.147714 0.476227 0.468698 0.059244
C27   C     C_R   0.970597 0.488504 0.530381 -0.162912
C28   C     C_R   0.028283 0.466188 0.476475 -0.175187
C29   C     C_R   0.503746 0.386430 0.118083 0.626226
C30   C     C_R   0.399820 0.522844 0.884245 0.629096
C31   C     C_R   0.393067 0.534302 0.124221 0.658620
C32   C     C_R   0.506017 0.372040 0.878653 0.614788
C33   C     C_R   0.387205 0.530373 0.064485 -0.080925
C34   C     C_R   0.525731 0.554363 0.229689 -0.209089
C35   C     C_R   0.495050 0.365601 0.938946 -0.151331
C36   C     C_R   0.440856 0.450379 0.031803 -0.086039
C37   C     C_R   0.441130 0.445571 0.971630 -0.043541
C38   C     C_R   0.497432 0.376862 0.059016 -0.113728
C39   C     C_R   0.390049 0.522501 0.944117 -0.051850
C40   C     C_R   0.330905 0.604054 0.036615 0.491710
C41   C     C_R   0.541956 0.286506 0.967859 0.469281
C42   C     C_R   0.333471 0.599355 0.976606 -0.236595
C43   C     C_R   0.546516 0.295402 0.026924 -0.093508
C44   C     C_R   0.427935 0.401534 0.699574 0.364307
C45   C     C_R   0.538524 0.567596 0.287695 0.398584
C46   C     C_R   0.491243 0.487359 0.673717 -0.282515
C47   C     C_R   0.497951 0.487199 0.325970 -0.309405
C48   C     C_R   0.549568 0.560407 0.708320 0.208243
H1    H     H_    0.192965 0.454131 0.428504 0.226180
H2    H     H_    0.931490 0.637475 0.314431 0.418946
H3    H     H_    0.956889 0.292413 0.295503 0.409951
H4    H     H_    0.013144 0.473899 0.733549 0.411733
H5    H     H_    0.206991 0.345166 0.643767 0.401467
H6    H     H_    0.618876 0.786548 0.381738 0.397131
H7    H     H_    0.508543 0.708708 0.608365 0.344523
H8    H     H_    0.533075 0.191552 0.379744 0.396788
H9    H     H_    0.655858 0.746086 0.861347 0.398212
H10   H     H_    0.187394 0.308103 0.157663 0.391737
H11   H     H_    0.856684 0.094960 0.451890 0.420343
H12   H     H_    0.804762 0.505171 0.577136 0.231516
H13   H     H_    0.227393 0.895925 0.394567 0.419895
H14   H     H_    0.202186 0.150336 0.493106 0.395439
H15   H     H_    0.777410 0.846526 0.545480 0.395542
H16   H     H_    0.878499 0.067580 0.605282 0.415868
H17   H     H_    0.050851 0.926390 0.533852 0.408480
H18   H     H_    0.292727 0.657485 0.955300 0.203219
H19   H     H_    0.586582 0.236232 0.047801 0.224533
H20   H     H_    0.365058 0.331577 0.779598 0.212844
H21   H     H_    0.562680 0.612053 0.199516 0.214879
H22   H     H_    0.241240 0.725398 0.041942 0.350160
H23   H     H_    0.529770 0.173274 0.913655 0.376638
H24   H     H_    0.141300 0.738247 0.679484 0.418824
N1    N     N_R   0.450791 0.463198 0.149299 -0.331546
N2    N     N_R   0.460809 0.451073 0.853216 -0.328090
N3    N     N_R   0.207800 0.519350 0.510590 -0.174284
N4    N     N_R   0.792200 0.480650 0.489410 -0.183687
O1    O     O_R   0.421690 0.658830 0.502820 -0.561747
O2    O     O_2   0.351030 0.595678 0.856954 -0.486823
O3    O     O_2   0.341814 0.607982 0.157355 -0.406562
O4    O     O_2   0.566462 0.304355 0.845511 -0.460850
O5    O     O_3   0.275774 0.680979 0.068145 -0.654090
O6    O     O_3   0.584167 0.199667 0.940339 -0.669178
O7    O     O_2   0.249511 0.566588 0.663021 -0.258188
O8    O     O_2   0.301783 0.697114 0.590702 -0.238136
O9    O     O_3   0.108503 0.702554 0.646651 -0.443327
O10   O     O_2   0.765076 0.488443 0.336269 -0.218172
O11   O     O_2   0.767742 0.638959 0.403965 -0.235177
O12   O     O_R   0.578310 0.341170 0.497180 -0.576383
O13   O     O_3   0.951972 0.594807 0.345711 -0.488702
O14   O     O_2   0.103232 0.440685 0.334186 -0.219838
O15   O     O_2   0.078467 0.279071 0.387557 -0.224479
O16   O     O_3   0.917885 0.326975 0.329497 -0.450210
O17   O     O_2   0.906547 0.590198 0.666519 -0.177299
O18   O     O_2   0.884374 0.403100 0.649073 -0.257679
O19   O     O_3   0.058236 0.473667 0.695644 -0.492882
O20   O     O_2   0.463155 0.248841 0.623365 -0.280205
O21   O     O_2   0.311816 0.215471 0.699213 -0.223074
O22   O     O_3   0.276328 0.336631 0.617772 -0.483819
O23   O     O_R   0.609320 0.646410 0.496030 -0.534583
O24   O     O_2   0.723828 0.692220 0.285189 -0.228195
O25   O     O_2   0.547946 0.772361 0.277804 -0.217636
O26   O     O_3   0.587702 0.714270 0.377514 -0.527047
O27   O     O_2   0.637186 0.760329 0.723381 -0.097395
O28   O     O_2   0.699430 0.666472 0.635147 -0.234757
O29   O     O_3   0.498726 0.733626 0.648502 -0.466416
O30   O     O_2   0.318481 0.297424 0.391715 -0.243460
O31   O     O_2   0.390383 0.188607 0.310567 -0.170699
O32   O     O_3   0.530875 0.267678 0.376797 -0.554320
O33   O     O_2   0.677637 0.538142 0.857282 -0.288510
O34   O     O_R   0.390680 0.353590 0.503970 -0.526569
O35   O     O_2   0.759390 0.632074 0.773090 -0.173608
O36   O     O_3   0.597514 0.713772 0.838589 -0.473557
O37   O     O_2   0.355309 0.214459 0.195856 -0.211688
O38   O     O_2   0.216929 0.276207 0.271437 -0.160652
O39   O     O_3   0.235119 0.364816 0.173478 -0.546799
O40   O     O_2   0.708567 0.233023 0.428733 -0.246114
O41   O     O_2   0.757258 0.231193 0.527099 -0.219973
O42   O     O_3   0.779521 0.065450 0.462532 -0.518014
O43   O     O_2   0.378026 0.750221 0.405153 -0.245046
O44   O     O_2   0.233844 0.772337 0.484783 -0.209951
O45   O     O_R   0.406170 0.506240 0.587240 -0.557021
O46   O     O_3   0.288452 0.926012 0.416267 -0.502505
O47   O     O_3   0.264856 0.196097 0.505355 -0.632539
O48   O     O_3   0.709141 0.801103 0.541718 -0.652824
O49   O     O_2   0.660477 0.118155 0.622844 -0.184305
O50   O     O_2   0.698601 0.941611 0.645978 -0.178277
O51   O     O_3   0.840136 0.039052 0.572373 -0.512815
O52   O     O_2   0.230468 0.890029 0.589766 -0.190798
O53   O     O_2   0.168772 0.066335 0.598487 -0.213603
O54   O     O_3   0.117981 0.955516 0.510155 -0.498356
O55   O     O_R   0.593830 0.493760 0.412760 -0.534687
O56   O     O_R   0.593790 0.493820 0.580450 -0.621781
O57   O     O_R   0.406210 0.506180 0.419550 -0.624415
O58   O     O_2   0.563461 0.320320 0.144257 -0.487338
S1    S     S_3+6 0.208164 0.626753 0.616458 0.151037
S2    S     S_3+6 0.302160 0.308710 0.222750 0.137345
S3    S     S_3+6 0.703655 0.168415 0.481238 0.094080
S4    S     S_3+6 0.332232 0.825472 0.450179 0.116717
S5    S     S_3+6 0.705183 0.018320 0.598573 0.142556
S6    S     S_3+6 0.212994 0.984348 0.556819 0.131547
S7    S     S_3+6 0.829319 0.548237 0.379329 0.137788
S8    S     S_3+6 0.020227 0.370224 0.369337 0.129845
S9    S     S_3+6 0.967602 0.495016 0.648122 0.104502
S10   S     S_3+6 0.369272 0.296811 0.659881 0.099398
S11   S     S_3+6 0.601660 0.689182 0.306893 0.124410
S12   S     S_3+6 0.601583 0.682330 0.679222 0.168621
S13   S     S_3+6 0.414238 0.284445 0.346130 0.102214
S14   S     S_3+6 0.651689 0.605058 0.809605 0.126656
Zn1   Zn    Zn3+2 0.374720 0.508290 0.504530 1.142771
Zn2   Zn    Zn3+2 0.625280 0.491710 0.495470 1.149497

loop_
_geom_bond_atom_site_label_1
_geom_bond_atom_site_label_2
_ccdc_geom_bond_type
O8    S1    D    
O19   S9    S    
C17   O55   A    
C1    C8    S    
C1    O1    A    
C14   C18   A    
C11   O48   S    
H23   O6    S    
C22   N4    A    
O34   Zn1   S    
O54   S6    S    
C1    O23   A    
C12   O34   A    
H17   O54   S    
O49   S5    D    
C15   C19   A    
O25   S11   D    
C10   S6    S    
H7    O29   S    
C45   S11   S    
O18   S9    D    
C36   C37   A    
C35   C37   A    
C10   C18   A    
O26   S11   S    
C32   N2    A    
C13   O47   S    
O13   S7    S    
C31   N1    A    
H9    O36   S    
O20   S10   D    
O39   S2    S    
O29   S12   S    
C3    C48   A    
C33   C36   A    
O56   Zn2   S    
H4    O19   S    
C18   C19   A    
C5    N2    S    
H22   O5    S    
H8    O32   S    
C9    C19   A    
C14   S4    S    
O37   S2    D    
C48   S12   S    
C29   C38   A    
C31   C33   A    
C25   H12   S    
O42   S3    S    
O16   S8    S    
O7    S1    D    
O17   S9    D    
C4    S2    S    
O15   S8    D    
C40   C42   A    
C29   O58   S    
C21   C27   A    
C3    S14   S    
C41   C43   A    
O51   S5    S    
C16   O56   A    
H14   O47   S    
C44   C46   A    
H15   O48   S    
C39   C42   A    
C45   C47   A    
H24   O9    S    
C7    C12   S    
O23   Zn2   S    
C46   C48   A    
O50   S5    D    
C33   C40   A    
C12   O12   A    
C32   C35   A    
O28   S12   D    
O57   Zn1   S    
C21   S9    S    
C4    C6    A    
C26   H1    S    
O1    Zn1   S    
C20   C28   A    
C2    S13   S    
C23   C44   A    
C6    C34   A    
H13   O46   S    
C23   H20   S    
C2    C4    A    
C16   O45   A    
O21   S10   D    
C20   S8    S    
H3    O16   S    
C32   O4    S    
O31   S13   D    
H2    O13   S    
C5    C23   A    
N4    Zn2   S    
O24   S11   D    
C44   S10   S    
H16   O51   S    
C26   N3    A    
C34   C45   A    
O11   S7    D    
C9    C11   A    
C34   H21   S    
O46   S4    S    
O14   S8    D    
O9    S1    S    
C24   S1    S    
C20   C22   A    
H11   O42   S    
C17   O57   A    
H10   O39   S    
H5    O22   S    
O33   S14   D    
O44   S4    D    
C16   C46   S    
C6    N1    S    
O40   S3    D    
C8    C14   A    
O22   S10   S    
O43   S4    D    
O12   Zn2   S    
C40   O5    S    
H6    O26   S    
O41   S3    D    
C17   C47   S    
C3    C5    A    
C10   C13   A    
C24   N3    A    
C31   O3    S    
C2    C47   A    
C25   C27   A    
C26   C28   A    
C25   N4    A    
O32   S13   S    
C36   C38   A    
O52   S6    D    
C38   C43   A    
C37   C39   A    
O35   S14   D    
C9    S5    S    
O53   S6    D    
N3    Zn1   S    
C8    C11   A    
C30   N2    A    
C41   O6    S    
C22   S7    S    
C7    C15   A    
O45   Zn1   S    
C30   C39   A    
C35   C41   A    
O30   S13   D    
C30   O2    S    
O36   S14   S    
C7    C13   A    
C29   N1    A    
O27   S12   D    
C43   H19   S    
C21   C24   A    
C27   C28   A    
C42   H18   S    
O38   S2    D    
O55   Zn2   S    
O10   S7    D    
C15   S3    S    
