data_mof_unit_pretest_1318.cif
_audit_creation_date              2012-12-11T18:05:02-0500
_audit_creation_method            fapswitch 2.2
_symmetry_space_group_name_H-M    P1
_symmetry_Int_Tables_number       1
_space_group_crystal_system       triclinic
_cell_length_a                    8.239211
_cell_length_b                    12.745487
_cell_length_c                    22.826982
_cell_angle_alpha                 97.047205
_cell_angle_beta                  89.481235
_cell_angle_gamma                 98.3434
_cell_volume                      2353.74247298

loop_
_atom_site_label
_atom_site_type_symbol
_atom_type_description
_atom_site_fract_x
_atom_site_fract_y
_atom_site_fract_z
_atom_type_partial_charge
Ba1   Ba    Ba6+2 0.856210 0.551220 0.472190 1.668825
Ba2   Ba    Ba6+2 0.333620 0.448870 0.527810 1.686089
C1    C     C_3   0.642971 0.930116 0.314709 -0.395923
C2    C     C_R   0.112664 0.594067 0.940378 -0.027514
C3    C     C_R   0.066359 0.592602 0.880575 0.586714
C4    C     C_3   0.180366 0.798279 0.311470 0.336864
C5    C     C_R   0.934625 0.411247 0.877935 0.581971
C6    C     C_R   0.979715 0.410100 0.937711 -0.025066
C7    C     C_R   0.068716 0.502286 0.969084 -0.051419
C8    C     C_R   0.201549 0.685562 0.972292 -0.076590
C9    C     C_R   0.245419 0.686092 0.031370 -0.084794
C10   C     C_R   0.202054 0.595140 0.060722 -0.017211
C11   C     C_R   0.114048 0.502785 0.029412 -0.051346
C12   C     C_3   0.670826 0.830256 0.341189 0.327726
C13   C     C_R   0.938149 0.318805 0.966925 -0.080397
C14   C     C_R   0.983867 0.319099 0.025971 -0.075677
C15   C     C_R   0.072002 0.410897 0.058101 -0.027170
C16   C     C_3   0.201758 0.850777 0.254600 -0.224465
C17   C     C_R   0.120009 0.412498 0.117960 0.588809
C18   C     C_R   0.245142 0.595097 0.120632 0.574154
C19   C     C_2   0.768590 0.483705 0.771614 -0.104170
C20   C     C_3   0.719375 0.490625 0.708010 0.096446
C21   C     C_1   0.008492 0.525719 0.685909 0.010309
C22   C     C_2   0.055332 0.527336 0.741774 -0.098238
C23   C     C_3   0.473533 0.290132 0.348911 0.293490
C24   C     C_2   0.929303 0.502724 0.788328 0.211989
C25   C     C_R   0.414043 0.550984 0.230893 -0.105703
C26   C     C_R   0.457915 0.560924 0.290821 -0.022344
C27   C     C_R   0.188279 0.474194 0.314169 0.037625
C28   C     C_3   0.215591 0.780524 0.597186 0.280719
C29   C     C_R   0.141205 0.466509 0.254067 -0.096266
C30   C     C_R   0.252983 0.506723 0.211418 0.203384
C31   C     C_2   0.862542 0.478620 0.667483 -0.253742
C32   C     C_R   0.762020 0.178747 0.520107 -0.268753
C33   C     C_R   0.430129 0.810445 0.475713 -0.290374
C34   C     C_3   0.446618 0.257408 0.282981 -0.371721
C35   C     C_R   0.405434 0.988229 0.454669 -0.104531
C36   C     C_R   0.341311 0.880835 0.452459 -0.005729
C37   C     C_R   0.578623 0.847118 0.505401 0.053843
C38   C     C_R   0.642931 0.958245 0.510331 -0.052286
C39   C     C_R   0.555309 0.028947 0.483779 -0.058848
C40   C     C_3   0.154980 0.887543 0.605670 -0.364695
C41   C     C_R   0.617795 0.139248 0.488789 0.050363
C42   C     C_R   0.852733 0.110552 0.543634 -0.030299
C43   C     C_R   0.791334 0.001630 0.540630 -0.094285
C44   C     C_3   0.971626 0.220605 0.402684 0.278999
C45   C     C_3   0.941452 0.147912 0.679415 0.248429
C46   C     C_3   0.991809 0.103479 0.390851 -0.335414
C47   C     C_3   0.728752 0.713552 0.651240 0.892949
C48   C     C_3   0.801547 0.767566 0.710381 -0.310371
C49   C     C_3   0.468310 0.089751 0.710632 -0.193855
C50   C     C_3   0.497069 0.061463 0.644760 -0.391164
C51   C     C_3   0.044441 0.830091 0.217197 -0.164028
C52   C     C_3   0.066692 0.885629 0.161559 -0.418562
C53   C     C_3   0.978595 0.156107 0.745009 -0.329789
C54   C     C_3   0.446102 0.207515 0.724952 0.378390
C55   C     C_3   0.427590 0.235102 0.791716 -0.379664
C56   C     C_R   0.344212 0.524613 0.331893 -0.301812
F1    F     F_    0.592984 0.642308 0.661386 -0.725038
H1    H     H_    0.773158 0.851169 0.373712 0.099964
H2    H     H_    0.822160 0.671505 0.626812 -0.084541
H3    H     H_    0.623504 0.994380 0.350383 0.090925
H4    H     H_    0.907602 0.828964 0.703434 0.066317
H5    H     H_    0.844146 0.708127 0.735971 0.063848
H6    H     H_    0.707760 0.806870 0.736485 0.119290
H7    H     H_    0.557351 0.802403 0.364608 -0.033626
H8    H     H_    0.533747 0.912514 0.285439 0.114853
H9    H     H_    0.358891 0.314895 0.368082 0.022963
H10   H     H_    0.574812 0.358338 0.355535 0.053267
H11   H     H_    0.343219 0.190766 0.275261 0.132895
H12   H     H_    0.206110 0.934477 0.646938 0.130002
H13   H     H_    0.417152 0.325802 0.261479 0.069322
H14   H     H_    0.559412 0.231091 0.262772 0.128822
H15   H     H_    0.749494 0.958397 0.287967 0.124359
H16   H     H_    0.301886 0.818828 0.228666 0.144740
H17   H     H_    0.885830 0.219691 0.671596 0.041662
H18   H     H_    0.853500 0.073995 0.667111 0.016571
H19   H     H_    0.060239 0.232018 0.759388 0.133287
H20   H     H_    0.862699 0.154996 0.770236 0.134109
H21   H     H_    0.039324 0.087588 0.754421 0.103024
H22   H     H_    0.332993 0.218810 0.702230 0.118592
H23   H     H_    0.188991 0.931245 0.567357 0.109157
H24   H     H_    0.540238 0.224234 0.815258 0.160013
H25   H     H_    0.321337 0.182905 0.808014 0.073261
H26   H     H_    0.111695 0.716069 0.302489 0.061916
H27   H     H_    0.406704 0.319336 0.802454 0.123689
H28   H     H_    0.949377 0.246925 0.046468 0.120276
H29   H     H_    0.870086 0.246437 0.944132 0.116285
H30   H     H_    0.314320 0.758307 0.053966 0.112761
H31   H     H_    0.505060 0.578852 0.199685 0.117389
H32   H     H_    0.237624 0.757425 0.951660 0.121970
H33   H     H_    0.183956 0.547049 0.754085 0.133550
H34   H     H_    0.020702 0.874711 0.610869 0.111851
H35   H     H_    0.673732 0.469777 0.804242 0.084789
H36   H     H_    0.018241 0.429777 0.240838 0.127386
H37   H     H_    0.379934 0.531595 0.377868 0.078094
H38   H     H_    0.304742 0.792291 0.327609 -0.082174
H39   H     H_    0.846466 0.431243 0.624430 0.063517
H40   H     H_    0.334451 0.039215 0.434842 0.098227
H41   H     H_    0.861005 0.952632 0.561885 0.100218
H42   H     H_    0.809233 0.263078 0.523316 0.054548
H43   H     H_    0.378730 0.726950 0.473433 0.063318
H44   H     H_    0.239710 0.938302 0.265925 0.112814
H45   H     H_    0.840743 0.227461 0.408787 -0.003505
H46   H     H_    0.350815 0.793128 0.594189 0.017205
H47   H     H_    0.161596 0.736819 0.555207 0.057376
H48   H     H_    0.512427 0.975999 0.635402 0.118977
H49   H     H_    0.392852 0.077204 0.618572 0.166070
H50   H     H_    0.608639 0.110682 0.630540 0.125602
H51   H     H_    0.575299 0.073183 0.735488 0.111670
H52   H     H_    0.357566 0.038106 0.724276 0.087606
H53   H     H_    0.167877 0.857200 0.134512 0.163669
H54   H     H_    0.951828 0.867464 0.134860 0.135530
H55   H     H_    0.094938 0.973550 0.173437 0.143513
H56   H     H_    0.042520 0.255416 0.443335 0.068549
H57   H     H_    0.009283 0.742747 0.204373 0.141209
H58   H     H_    0.944008 0.861092 0.243300 0.169639
H59   H     H_    0.935275 0.068419 0.347838 0.122818
H60   H     H_    0.932901 0.058982 0.425948 0.086658
H61   H     H_    0.123927 0.095694 0.388829 0.126365
N1    N     N_R   0.977878 0.501928 0.849854 -0.422588
N2    N     N_R   0.204323 0.504586 0.149297 -0.420704
O1    O     O_2   0.890290 0.440320 0.360790 -0.460845
O2    O     O_2   0.192320 0.118002 0.540159 -0.486237
O3    O     O_3   0.086975 0.140909 0.647679 -0.613051
O4    O     O_3   0.130840 0.441440 0.431840 -0.498944
O5    O     O_3   0.574800 0.630800 0.528960 -0.455838
O6    O     O_2   0.344900 0.234690 0.472540 -0.463791
O7    O     O_3   0.514020 0.202678 0.374360 -0.651357
O8    O     O_2   0.376858 0.412290 0.708747 -0.517363
O9    O     O_3   0.586363 0.269944 0.705524 -0.633834
O10   O     O_2   0.103057 0.672746 0.856124 -0.594387
O11   O     O_2   0.857740 0.331134 0.850814 -0.618908
O12   O     O_3   0.678097 0.791214 0.620673 -0.669982
O13   O     O_2   0.088947 0.331124 0.141662 -0.601265
O14   O     O_2   0.318757 0.676607 0.147327 -0.630391
O15   O     O_3   0.672400 0.637930 0.395560 -0.486397
O16   O     O_2   0.799734 0.564142 0.292949 -0.489435
O17   O     O_3   0.025944 0.269230 0.353117 -0.630337
O18   O     O_3   0.711006 0.753084 0.296020 -0.598906
O19   O     O_2   0.844800 0.765340 0.527490 -0.491476
O20   O     O_3   0.090520 0.693800 0.424220 -0.480170
O21   O     O_2   0.006201 0.883079 0.462297 -0.493789
O22   O     O_3   0.095434 0.860945 0.352562 -0.607658
O23   O     O_2   0.299410 0.559720 0.639240 -0.375888
O24   O     O_3   0.058870 0.558650 0.568170 -0.507426
O25   O     O_3   0.517310 0.362160 0.604450 -0.439322
O26   O     O_3   0.171023 0.730426 0.647300 -0.622760
O27   O     O_3   0.614910 0.369290 0.471050 -0.479729
O28   O     O_3   0.099190 0.306290 0.575790 -0.467148
P1    P     P_3+3 0.057140 0.408270 0.369700 0.992823
P2    P     P_3+3 0.667360 0.749400 0.544670 0.996619
P3    P     P_3+3 0.134078 0.831240 0.423411 0.943761
P4    P     P_3+3 0.132580 0.591820 0.630310 1.036360
P5    P     P_3+3 0.055876 0.167380 0.575695 0.945994
P6    P     P_3+3 0.661300 0.625822 0.318373 0.963937
P7    P     P_3+3 0.526230 0.235448 0.451024 0.934677
P8    P     P_3+3 0.542898 0.388637 0.681435 1.024469

loop_
_geom_bond_atom_site_label_1
_geom_bond_atom_site_label_2
_ccdc_geom_bond_type
Ba2   O28   S    
C47   O12   S    
C17   N2    Am   
C16   H16   S    
C40   H34   S    
C48   H5    S    
C40   H23   S    
C19   C24   D    
C33   H43   S    
C23   O7    S    
O7    P7    S    
C54   H22   S    
C46   H61   S    
C51   C52   S    
C54   C55   S    
Ba2   O23   S    
C4    H26   S    
C44   H56   S    
C25   H31   S    
C27   C56   A    
C22   C24   S    
C45   H17   S    
C31   H39   S    
C51   H58   S    
O21   P3    D    
C19   H35   S    
C17   O13   D    
C13   C14   A    
C52   H54   S    
C3    N1    Am   
C55   H27   S    
Ba1   P2    S    
Ba1   Ba2   S    
O22   P3    S    
C1    H15   S    
C56   H37   S    
C7    C11   A    
Ba1   O20   S    
C13   H29   S    
C16   C51   S    
C3    O10   D    
C50   H48   S    
C6    C7    A    
C21   C31   D    
C14   H28   S    
C21   C22   D    
C55   H24   S    
Ba1   O27   S    
C24   N1    S    
C18   N2    Am   
C51   H57   S    
Ba2   O5    S    
Ba2   O27   S    
Ba2   P4    S    
C19   C20   S    
C28   H47   S    
C48   H4    S    
C39   C41   A    
Ba1   O5    S    
Ba1   O24   S    
C23   H9    S    
O26   P4    S    
C5    N1    Am   
C22   H33   S    
C34   H11   S    
O6    P7    D    
C45   O3    S    
C46   H60   S    
C44   C46   S    
C38   C43   A    
C4    C16   S    
O1    P1    D    
C32   H42   S    
C47   H2    S    
C49   C50   S    
C4    H38   S    
C30   N2    S    
C5    C6    A    
C33   C36   A    
C32   C42   A    
Ba1   O4    S    
C34   H14   S    
C37   C38   A    
C53   H19   S    
C14   C15   A    
C46   H59   S    
C20   P8    S    
Ba2   O25   S    
C44   H45   S    
C37   P2    S    
O15   P6    S    
O9    P8    S    
C33   C37   A    
Ba1   O1    S    
C35   C36   A    
O5    P2    S    
C27   P1    S    
C53   H20   S    
O4    P1    S    
C9    H30   S    
C29   C30   A    
O24   P4    S    
O12   P2    S    
C10   C18   A    
C12   H7    S    
C55   H25   S    
C52   H53   S    
C18   O14   D    
C28   O26   S    
C1    C12   S    
O18   P6    S    
O23   P4    D    
Ba2   O4    S    
C38   C39   A    
C12   O18   S    
C8    H32   S    
C6    C13   A    
O28   P5    S    
C28   H46   S    
C21   P4    S    
C23   H10   S    
C45   H18   S    
C4    O22   S    
Ba2   O24   S    
C35   H40   S    
Ba1   O15   S    
C42   C43   A    
C45   C53   S    
C1    H3    S    
O16   P6    D    
C20   C31   S    
C49   H52   S    
C25   C30   A    
C42   P5    S    
C1    H8    S    
C32   C41   A    
C49   C54   S    
C2    C8    A    
C2    C3    A    
C41   P7    S    
C43   H41   S    
C9    C10   A    
C5    O11   D    
C26   C56   A    
C49   H51   S    
C12   H1    S    
C47   F1    S    
C11   C15   A    
O8    P8    D    
C27   C29   A    
C53   H21   S    
C50   H50   S    
C29   H36   S    
C52   H55   S    
O17   P1    S    
C40   H12   S    
C15   C17   A    
Ba1   P1    S    
C16   H44   S    
O20   P3    S    
C35   C39   A    
C48   H6    S    
C54   O9    S    
Ba1   O19   S    
C8    C9    A    
C23   C34   S    
O3    P5    S    
C10   C11   A    
C50   H49   S    
C47   C48   S    
O2    P5    D    
C25   C26   A    
C26   P6    S    
C28   C40   S    
C36   P3    S    
C2    C7    A    
O25   P8    S    
O27   P7    S    
C34   H13   S    
O19   P2    D    
C44   O17   S    
Ba2   O6    S    
