data_mof_unit_pretest_884.cif
_audit_creation_date              2012-12-11T14:21:16-0500
_audit_creation_method            fapswitch 2.2
_symmetry_space_group_name_H-M    P1
_symmetry_Int_Tables_number       1
_space_group_crystal_system       triclinic
_cell_length_a                    11.557772
_cell_length_b                    11.646145
_cell_length_c                    19.441102
_cell_angle_alpha                 90.418599
_cell_angle_beta                  89.815947
_cell_angle_gamma                 59.126123
_cell_volume                      2245.89735144

loop_
_atom_site_label
_atom_site_type_symbol
_atom_type_description
_atom_site_fract_x
_atom_site_fract_y
_atom_site_fract_z
_atom_type_partial_charge
C1    C     C_R   0.640973 0.117898 0.598918 0.556504
C2    C     C_1   0.653260 0.150517 0.668285 0.001700
C3    C     C_R   0.695371 0.581256 0.209460 -0.010004
C4    C     C_R   0.614352 0.743096 0.597716 0.542851
C5    C     C_R   0.583109 0.598844 0.249681 0.026603
C6    C     C_R   0.599017 0.584728 0.321353 0.040507
C7    C     C_R   0.798612 0.597005 0.315550 -0.175155
C8    C     C_R   0.808003 0.567679 0.244846 -0.158652
C9    C     C_R   0.452615 0.639931 0.224586 -0.110910
C10   C     C_R   0.354501 0.644139 0.268298 -0.162855
C11   C     C_R   0.385666 0.598476 0.335410 -0.126205
C12   C     C_1   0.653216 0.681858 0.663629 0.000800
C13   C     C_R   0.510209 0.563878 0.361396 -0.076622
C14   C     C_R   0.683838 0.622282 0.352100 -0.010253
C15   C     C_R   0.169517 0.180980 0.186408 -0.020555
C16   C     C_R   0.240347 0.145951 0.597792 0.543564
C17   C     C_R   0.199854 0.265571 0.222635 0.023333
C18   C     C_R   0.179268 0.277579 0.294018 0.021787
C19   C     C_R   0.173083 0.070570 0.293369 -0.009716
C20   C     C_R   0.169304 0.076549 0.221312 -0.139683
C21   C     C_R   0.237143 0.347888 0.188480 -0.073123
C22   C     C_R   0.226470 0.458093 0.221856 -0.129498
C23   C     C_1   0.127339 0.198314 0.859495 0.006186
C24   C     C_R   0.180254 0.485904 0.289627 -0.157095
C25   C     C_R   0.155234 0.397839 0.325338 -0.095899
C26   C     C_R   0.183751 0.169679 0.330945 0.007609
C27   C     C_R   0.707504 0.195871 0.203984 -0.003489
C28   C     C_R   0.619692 0.082035 0.394143 0.548480
C29   C     C_R   0.793324 0.064994 0.231503 0.042618
C30   C     C_R   0.742565 0.020773 0.283461 0.021122
C31   C     C_R   0.553950 0.246457 0.299162 -0.136609
C32   C     C_R   0.586605 0.283804 0.237785 -0.156995
C33   C     C_R   0.924256 0.971948 0.206109 -0.082601
C34   C     C_1   0.170248 0.171229 0.727492 -0.031076
C35   C     C_R   0.979300 0.835995 0.214617 -0.133528
C36   C     C_R   0.914454 0.791660 0.256680 -0.125839
C37   C     C_R   0.800450 0.882786 0.293551 -0.093410
C38   C     C_R   0.635246 0.115577 0.323753 -0.008595
C39   C     C_R   0.082177 0.230818 0.928893 0.538667
C40   C     C_R   0.625505 0.724154 0.408311 0.528276
C41   C     C_R   0.710122 0.545238 0.922683 0.561346
C42   C     C_R   0.707494 0.206544 0.930413 0.555895
C43   C     C_R   0.090772 0.231045 0.122653 0.524306
C44   C     C_R   0.707017 0.554051 0.134167 0.547857
C45   C     C_1   0.150103 0.182275 0.798895 -0.030599
C46   C     C_R   0.735604 0.230061 0.135713 0.530468
C47   C     C_R   0.241677 0.142537 0.401206 0.526925
C48   C     C_1   0.700535 0.578804 0.851526 0.000491
C49   C     C_1   0.675144 0.642376 0.721811 -0.029633
C50   C     C_1   0.691299 0.606104 0.791501 -0.030694
C51   C     C_3   0.154276 0.964437 0.327510 -0.265481
C52   C     C_3   0.028165 0.025952 0.373216 -0.409653
C53   C     C_1   0.193732 0.162257 0.666961 0.004825
C54   C     C_1   0.677613 0.191610 0.861002 0.001531
C55   C     C_1   0.658349 0.168200 0.728855 -0.031069
C56   C     C_1   0.664896 0.181641 0.800358 -0.031218
Cr1   Cr    Cr6+3 0.404720 0.198220 0.499960 1.015261
Cr2   Cr    Cr6+3 0.698290 0.897110 0.500380 1.010835
Cr3   Cr    Cr6+3 0.396970 0.904720 0.499610 1.008369
Cr4   Cr    Cr6+3 0.926180 0.151990 0.028120 1.010749
Cr5   Cr    Cr6+3 0.921330 0.451820 0.027470 1.027148
Cr6   Cr    Cr6+3 0.626260 0.446870 0.028710 1.012874
H1    H     H_    0.876116 0.606528 0.341131 0.113483
H2    H     H_    0.753494 0.846088 0.327243 0.149697
H3    H     H_    0.418445 0.680097 0.174161 0.156457
H4    H     H_    0.899353 0.542676 0.217045 0.154587
H5    H     H_    0.253568 0.684696 0.250292 0.094289
H6    H     H_    0.310963 0.600083 0.369511 0.105060
H7    H     H_    0.529450 0.539587 0.415456 0.123969
H8    H     H_    0.268341 0.330615 0.134941 0.137595
H9    H     H_    0.162716 0.001497 0.191879 0.111281
H10   H     H_    0.938677 0.099668 0.343826 0.162217
H11   H     H_    0.010581 0.945930 0.391391 0.158391
H12   H     H_    0.246798 0.524610 0.193078 0.106650
H13   H     H_    0.039618 0.076924 0.418814 0.159053
H14   H     H_    0.141679 0.903171 0.288062 0.131627
H15   H     H_    0.244704 0.892757 0.356592 0.200669
H16   H     H_    0.158957 0.577801 0.314304 0.103280
H17   H     H_    0.113474 0.426815 0.376741 0.134194
H18   H     H_    0.465334 0.319881 0.327281 0.162910
H19   H     H_    0.982668 0.000992 0.176184 0.144707
H20   H     H_    0.518512 0.381376 0.217109 0.150885
H21   H     H_    0.069851 0.765768 0.186938 0.097162
H22   H     H_    0.954068 0.687100 0.261218 0.119037
O1    O     O_R   0.267740 0.231960 0.575440 -0.506776
O2    O     O_R   0.596130 0.579390 0.952730 -0.492690
O3    O     O_R   0.639060 0.321160 0.958670 -0.505258
O4    O     O_R   0.527280 0.186640 0.570530 -0.488764
O5    O     O_R   0.821240 0.124200 0.104370 -0.512925
O6    O     O_R   0.036890 0.167040 0.097840 -0.524504
O7    O     O_R   0.056180 0.349610 0.102880 -0.526072
O8    O     O_R   0.797660 0.564870 0.097950 -0.477238
O9    O     O_R   0.595880 0.584250 0.104270 -0.528896
O10   O     O_R   0.638830 0.325670 0.099150 -0.506450
O11   O     O_3   0.824590 0.350230 0.028100 -0.303650
O12   O     O_R   0.685970 0.784660 0.430010 -0.531096
O13   O     O_R   0.728090 0.003450 0.576380 -0.501066
O14   O     O_R   0.682970 0.789190 0.570490 -0.494721
O15   O     O_R   0.499290 0.771880 0.575530 -0.506968
O16   O     O_R   0.285330 0.030870 0.569730 -0.491303
O17   O     O_R   0.270980 0.227080 0.423890 -0.534509
O18   O     O_R   0.530280 0.182120 0.430050 -0.502259
O19   O     O_R   0.731330 0.998570 0.424830 -0.521526
O20   O     O_R   0.502530 0.767000 0.423990 -0.518394
O21   O     O_R   0.288330 0.026350 0.429250 -0.502021
O22   O     O_3   0.499990 0.000020 0.499980 -0.260125
O23   O     O_R   0.821500 0.119340 0.952830 -0.492893
O24   O     O_R   0.037130 0.162530 0.957360 -0.493637
O25   O     O_R   0.056440 0.344740 0.951340 -0.511169
O26   O     O_R   0.797900 0.560360 0.957470 -0.475060

loop_
_geom_bond_atom_site_label_1
_geom_bond_atom_site_label_2
_ccdc_geom_bond_type
C55   C56   S    
C8    H4    S    
C47   O17   A    
C4    O14   A    
C27   C29   A    
Cr3   O15   S    
C19   C20   A    
C18   C26   A    
Cr2   O13   S    
C52   H13   S    
Cr5   O25   S    
C12   C49   T    
C7    C8    A    
C46   O5    A    
C10   H5    S    
C41   O2    A    
Cr6   O2    S    
Cr3   O21   S    
C23   C45   T    
Cr3   O20   S    
C36   C37   A    
C2    C55   T    
C5    C6    A    
C40   O20   A    
C29   C33   A    
C30   C38   A    
C1    C2    S    
C19   C26   A    
Cr2   O12   S    
C16   C53   S    
C44   O9    A    
C7    C14   A    
C35   C36   A    
C47   O21   A    
Cr2   O14   S    
C20   H9    S    
C4    C12   S    
C9    C10   A    
Cr4   O24   S    
Cr5   O8    S    
C1    O4    A    
C48   C50   T    
Cr1   O22   S    
C21   C22   A    
Cr3   O16   S    
C15   C20   A    
C18   C25   A    
C40   O12   A    
Cr5   O26   S    
C39   O24   A    
C54   C56   T    
C3    C44   S    
C43   O6    A    
C51   C52   S    
Cr3   O22   S    
C31   H18   S    
C24   C25   A    
C52   H11   S    
C1    O13   A    
C35   H21   S    
C16   O16   A    
Cr4   O5    S    
C43   O7    A    
C30   C37   A    
Cr2   O22   S    
C51   H15   S    
C5    C9    A    
C29   C30   A    
C52   H10   S    
C19   C51   S    
C6    C14   A    
C31   C32   A    
C46   O10   A    
C28   C38   S    
C17   C18   A    
C34   C45   S    
C51   H14   S    
Cr1   O18   S    
C7    H1    S    
Cr4   O23   S    
C26   C47   S    
C27   C46   S    
C24   H16   S    
C3    C8    A    
C41   O26   A    
Cr6   O10   S    
C16   O1    A    
C22   C24   A    
Cr6   O9    S    
C22   H12   S    
C37   H2    S    
Cr1   O17   S    
C11   H6    S    
Cr1   O4    S    
C42   O23   A    
C15   C17   A    
C27   C32   A    
C25   H17   S    
C3    C5    A    
C44   O8    A    
Cr5   O11   S    
C42   O3    A    
Cr4   O6    S    
C32   H20   S    
Cr6   O3    S    
C31   C38   A    
C21   H8    S    
C15   C43   S    
C42   C54   S    
C6    C13   A    
C11   C13   A    
C28   O19   A    
C13   H7    S    
C36   H22   S    
C23   C39   S    
C33   C35   A    
C41   C48   S    
Cr1   O1    S    
C9    H3    S    
C10   C11   A    
C14   C40   S    
Cr4   O11   S    
C28   O18   A    
C39   O25   A    
C34   C53   T    
C49   C50   S    
C4    O15   A    
Cr2   O19   S    
Cr6   O11   S    
C33   H19   S    
Cr5   O7    S    
C17   C21   A    
