data_mof_unit_pretest_1037.cif
_audit_creation_date              2013-03-05T16:06:13-0500
_audit_creation_method            fapswitch 2.2
_symmetry_space_group_name_H-M    P1
_symmetry_Int_Tables_number       1
_space_group_crystal_system       triclinic
_cell_length_a                    6.920787
_cell_length_b                    28.833712
_cell_length_c                    32.132508
_cell_angle_alpha                 100.783863
_cell_angle_beta                  89.673064
_cell_angle_gamma                 90.409317
_cell_volume                      6298.6446517

loop_
_atom_site_label
_atom_site_type_symbol
_atom_site_description
_atom_site_fract_x
_atom_site_fract_y
_atom_site_fract_z
_atom_type_partial_charge
O1    O     O_R   0.494350 0.453170 0.452520 -0.603709
O2    O     O_R   0.820980 0.455850 0.538220 -0.602361
O3    O     O_R   0.994300 0.546830 0.547480 -0.582259
C1    C     C_R   0.651531 0.445605 0.551681 0.960449
O4    O     O_R   0.823860 0.447590 0.452270 -0.605718
O5    O     O_R   0.997200 0.538510 0.460920 -0.571614
C2    C     C_R   0.654898 0.434718 0.436572 0.916170
O6    O     O_R   0.491440 0.461490 0.539080 -0.599928
O7    O     O_3   0.661790 0.529840 0.502940 -0.233910
V1    V     V_3+5 0.935470 0.494460 0.499450 1.188986
O8    O     O_R   0.327090 0.544150 0.461780 -0.577218
C3    C     C_R   0.158567 0.555190 0.449096 1.013960
O9    O     O_R   0.324210 0.552410 0.547730 -0.600219
C4    C     C_R   0.155109 0.565332 0.563386 0.969121
V2    V     V_3+5 0.435840 0.505540 0.500550 1.198684
O10   O     O_3   0.159650 0.470160 0.497060 -0.289975
C5    C     C_R   0.225657 0.883292 0.878934 -0.136566
H1    H     H_    0.357718 0.900951 0.891219 0.130252
C6    C     C_R   0.236992 0.847681 0.842861 -0.138119
H2    H     H_    0.376974 0.839378 0.828257 0.103235
C7    C     C_R   0.069739 0.823850 0.825370 0.118694
C8    C     C_R   0.890607 0.836700 0.845036 -0.138971
H3    H     H_    0.759076 0.818704 0.832866 0.099163
C9    C     C_R   0.879139 0.872459 0.881098 -0.139408
H4    H     H_    0.738848 0.881331 0.895352 0.126214
C10   C     C_R   0.046606 0.896253 0.898550 -0.135773
C11   C     C_R   0.938716 0.781075 0.755384 -0.152392
H5    H     H_    0.817678 0.805080 0.758535 0.121266
C12   C     C_R   0.951448 0.745796 0.719039 -0.151690
H6    H     H_    0.839658 0.743668 0.695313 0.120864
C13   C     C_R   0.108199 0.714358 0.712992 0.103021
C14   C     C_R   0.251917 0.719263 0.744342 -0.153243
H7    H     H_    0.372931 0.695252 0.741204 0.117835
C15   C     C_R   0.239200 0.754546 0.780682 -0.158311
H8    H     H_    0.350987 0.756677 0.804409 0.114261
C16   C     C_R   0.082434 0.785977 0.786732 0.100489
C17   C     C_R   0.300019 0.663493 0.654774 -0.132135
H9    H     H_    0.431597 0.681464 0.666943 0.102517
C18   C     C_R   0.311502 0.627637 0.618787 -0.125995
H10   H     H_    0.451835 0.618676 0.604589 0.135435
C19   C     C_R   0.144009 0.603852 0.601346 -0.134373
C20   C     C_R   0.964881 0.616963 0.620855 -0.097438
H11   H     H_    0.832776 0.599346 0.608547 0.129796
C21   C     C_R   0.953533 0.652661 0.656862 -0.140789
H12   H     H_    0.813495 0.661052 0.671406 0.101262
C22   C     C_R   0.120843 0.676449 0.674375 0.115129
C23   C     C_R   0.968943 0.671897 0.297799 0.488922
N1    N     N_R   0.125454 0.675264 0.324370 -0.179456
C24   C     C_R   0.272310 0.706874 0.321492 0.491407
C25   C     C_R   0.264939 0.736574 0.291317 -0.065407
C26   C     C_R   0.104644 0.733632 0.264119 -0.013163
C27   C     C_R   0.955260 0.701038 0.267277 -0.048835
C28   C     C_R   0.412981 0.769363 0.287948 -0.124543
C29   C     C_R   0.401278 0.798977 0.258216 -0.117765
C30   C     C_R   0.241656 0.796414 0.230937 -0.043291
C31   C     C_R   0.093496 0.763432 0.233752 -0.015415
C32   C     C_R   0.934070 0.760232 0.206323 -0.048029
C33   C     C_R   0.785946 0.727446 0.209699 -0.129928
C34   C     C_R   0.796111 0.698334 0.239872 -0.123306
C35   C     C_R   0.225982 0.826284 0.201052 0.479421
N2    N     N_R   0.071168 0.822426 0.173886 -0.183828
C36   C     C_R   0.927162 0.789767 0.175997 0.470548
O11   O     O_2   0.827475 0.640156 0.300584 -0.554474
O12   O     O_2   0.423901 0.710135 0.348131 -0.524704
H13   H     H_    0.538460 0.772309 0.308299 0.175550
H14   H     H_    0.518224 0.823763 0.256603 0.171465
O13   O     O_2   0.363558 0.859376 0.199689 -0.563819
O14   O     O_2   0.778587 0.785287 0.148491 -0.557427
H15   H     H_    0.660920 0.724341 0.189208 0.173698
H16   H     H_    0.678565 0.673762 0.241671 0.170455
C37   C     C_R   0.215481 0.856224 0.115016 -0.060043
H17   H     H_    0.343972 0.835269 0.116112 0.153932
C38   C     C_R   0.206858 0.886517 0.085719 -0.190458
C39   C     C_R   0.040423 0.913383 0.082640 -0.129772
C40   C     C_R   0.883421 0.909525 0.109812 -0.187462
C41   C     C_R   0.894107 0.880158 0.139892 -0.059699
H18   H     H_    0.773122 0.878819 0.161170 0.163401
C42   C     C_R   0.060021 0.852978 0.142779 0.190012
C43   C     C_R   0.989598 0.648595 0.387391 -0.156073
H19   H     H_    0.873648 0.673708 0.387741 0.188180
C44   C     C_R   0.996731 0.620708 0.418937 0.321781
C45   C     C_R   0.150392 0.588225 0.418673 -0.295762
C46   C     C_R   0.295720 0.586044 0.387558 -0.146080
C47   C     C_R   0.287545 0.614368 0.356699 -0.037462
H20   H     H_    0.400203 0.611556 0.332848 0.155885
C48   C     C_R   0.133989 0.645731 0.356181 0.143060
C49   C     C_R   0.596485 0.225432 0.838929 0.539602
N3    N     N_R   0.585986 0.177331 0.826094 -0.171286
C50   C     C_R   0.590697 0.157194 0.783859 0.595937
C51   C     C_R   0.600111 0.185666 0.752694 -0.071103
C52   C     C_R   0.607970 0.235111 0.765415 0.004710
C53   C     C_R   0.607986 0.255267 0.808871 -0.053247
C54   C     C_R   0.600329 0.165945 0.709221 -0.088576
C55   C     C_R   0.606227 0.194909 0.678839 -0.102375
C56   C     C_R   0.612836 0.244330 0.691152 -0.055849
C57   C     C_R   0.614916 0.264475 0.734607 0.003524
C58   C     C_R   0.623091 0.313921 0.747323 -0.072032
C59   C     C_R   0.625278 0.333618 0.790798 -0.091353
C60   C     C_R   0.617454 0.304666 0.821182 -0.101790
C61   C     C_R   0.615892 0.274225 0.661090 0.533068
N4    N     N_R   0.621411 0.322370 0.673912 -0.170834
C62   C     C_R   0.627774 0.342430 0.716144 0.593550
O15   O     O_2   0.593401 0.244397 0.880619 -0.545711
O16   O     O_2   0.585536 0.109777 0.772038 -0.512435
H21   H     H_    0.594582 0.128049 0.698500 0.176720
H22   H     H_    0.604915 0.178416 0.645665 0.174995
O17   O     O_2   0.611373 0.255319 0.619398 -0.545755
O18   O     O_2   0.638095 0.389804 0.727946 -0.514103
H23   H     H_    0.631759 0.371508 0.801517 0.175273
H24   H     H_    0.618108 0.321163 0.854357 0.173687
C63   C     C_R   0.459618 0.380026 0.636428 0.404077
C64   C     C_R   0.471159 0.410128 0.606558 -0.290589
H25   H     H_    0.347096 0.431243 0.601912 0.176356
C65   C     C_R   0.640517 0.413257 0.582751 -0.182206
C66   C     C_R   0.799552 0.385392 0.589034 -0.141249
H26   H     H_    0.932022 0.386772 0.571186 0.143594
C67   C     C_R   0.789564 0.355118 0.618258 -0.023218
H27   H     H_    0.913903 0.333955 0.622473 0.174237
C68   C     C_R   0.622010 0.352332 0.642463 0.060544
C69   C     C_R   0.395188 0.122588 0.862440 0.404785
C70   C     C_R   0.387802 0.092442 0.892255 -0.287517
H28   H     H_    0.254956 0.073550 0.896065 0.174565
C71   C     C_R   0.549393 0.086430 0.917051 -0.180203
C72   C     C_R   0.720160 0.111340 0.911750 -0.160173
H29   H     H_    0.846987 0.107633 0.930421 0.143065
C73   C     C_R   0.728719 0.141791 0.882616 -0.023806
H30   H     H_    0.861516 0.160805 0.879232 0.174643
C74   C     C_R   0.568564 0.147477 0.857480 0.063185
C75   C     C_R   0.725560 0.116773 0.121080 -0.144872
H31   H     H_    0.857249 0.099057 0.108891 0.128876
C76   C     C_R   0.736856 0.152440 0.157117 -0.146067
H32   H     H_    0.876412 0.160732 0.171795 0.101351
C77   C     C_R   0.570010 0.176339 0.174478 0.119216
C78   C     C_R   0.391348 0.163509 0.154720 -0.143228
H33   H     H_    0.260199 0.181559 0.166781 0.100054
C79   C     C_R   0.379907 0.127692 0.118704 -0.145658
H34   H     H_    0.239972 0.118838 0.104379 0.127259
C80   C     C_R   0.546946 0.103823 0.101385 -0.133174
C81   C     C_R   0.436950 0.219255 0.244319 -0.159415
H35   H     H_    0.314501 0.195292 0.241106 0.116141
C82   C     C_R   0.449497 0.254575 0.280636 -0.158659
H36   H     H_    0.336171 0.256780 0.304279 0.115243
C83   C     C_R   0.607984 0.285948 0.286772 0.101486
C84   C     C_R   0.753600 0.280951 0.255538 -0.160504
H37   H     H_    0.876054 0.304912 0.258754 0.115197
C85   C     C_R   0.741050 0.245632 0.219220 -0.159029
H38   H     H_    0.854379 0.243427 0.195578 0.114612
C86   C     C_R   0.582571 0.214255 0.213086 0.101629
C87   C     C_R   0.799247 0.336649 0.345156 -0.143107
H39   H     H_    0.930374 0.318593 0.333088 0.100426
C88   C     C_R   0.810714 0.372436 0.381194 -0.149315
H40   H     H_    0.950647 0.381261 0.395531 0.126551
C89   C     C_R   0.643697 0.396305 0.398525 -0.128646
C90   C     C_R   0.465085 0.383397 0.378813 -0.147343
H41   H     H_    0.333418 0.401119 0.391009 0.126626
C91   C     C_R   0.453763 0.347758 0.342756 -0.147350
H42   H     H_    0.314210 0.339490 0.328069 0.100930
C92   C     C_R   0.620582 0.323851 0.325388 0.119534
O19   O     O_R   0.699170 0.038480 0.960880 -0.591977
O20   O     O_R   0.366800 0.052460 0.047690 -0.597652
O21   O     O_R   0.193520 0.961530 0.039110 -0.592435
C93   C     C_R   0.535762 0.065363 0.063374 0.925965
O22   O     O_R   0.369630 0.044100 0.961740 -0.596504
O23   O     O_R   0.196370 0.953120 0.952550 -0.596208
C94   C     C_R   0.538995 0.054272 0.948237 0.972219
O24   O     O_R   0.696320 0.046890 0.047450 -0.597375
O25   O     O_3   0.528890 0.970170 0.997080 -0.274067
V3    V     V_3+5 0.255190 0.005530 0.000540 1.152965
O26   O     O_R   0.866460 0.947530 0.952310 -0.596845
C95   C     C_R   0.035544 0.934661 0.936608 0.934983
O27   O     O_R   0.863630 0.955880 0.038270 -0.595446
C96   C     C_R   0.031910 0.945653 0.051653 0.934213
V4    V     V_3+5 0.754830 0.994440 0.999470 1.152978
O28   O     O_3   0.031000 0.029830 0.002920 -0.272132
H43   H     H_    0.329781 0.888467 0.065074 0.140032
H44   H     H_    0.753705 0.929983 0.108416 0.137184
N5    N     N_R   0.852301 0.627481 0.451819 0.240706
O29   O     O_R   0.902441 0.630814 0.491248 -0.394498
O30   O     O_R   0.676074 0.637931 0.443281 -0.377780
H45   H     H_    0.414488 0.561583 0.386577 0.149223
N6    N     N_R   0.283257 0.378027 0.660087 0.231435
O31   O     O_R   0.233971 0.339955 0.673887 -0.432662
O32   O     O_R   0.164159 0.413405 0.665649 -0.387793
N7    N     N_R   0.226507 0.127471 0.837647 0.229024
O33   O     O_R   0.189781 0.167145 0.825618 -0.432502
O34   O     O_R   0.101479 0.093098 0.829306 -0.384727

loop_
_geom_bond_atom_site_label_1
_geom_bond_atom_site_label_2
_geom_bond_distance
_ccdc_geom_bond_type
O27   C96   1.298585 A    
C19   C20   1.407805 A    
C54   C55   1.398683 A    
C11   C12   1.400694 A    
O26   C95   1.300396 A    
O23   C95   1.296374 A    
C56   C57   1.408507 A    
C1    O6    1.297326 A    
C64   C65   1.407566 A    
C58   C59   1.406244 A    
C51   C52   1.408436 A    
C71   C72   1.404643 A    
C18   C19   1.407249 A    
C7    C16   1.494811 S    
C28   C29   1.398390 A    
N7    O33   1.301277 A    
V3    O28   1.702431 S    
O27   V4    1.974565 S    
N4    C62   1.372830 A    
C46   H45   1.083391 S    
C83   C92   1.494680 S    
C5    C10   1.407855 A    
C1    C65   1.489646 S    
C91   H42   1.082662 S    
C6    C7    1.406925 A    
C17   H9    1.082657 S    
C41   C42   1.408029 A    
C26   C31   1.418428 A    
C72   C73   1.398922 A    
C67   C68   1.402776 A    
C23   O11   1.349460 S    
C43   C48   1.403521 A    
C83   C84   1.407153 A    
C63   N6    1.440764 S    
C31   C32   1.407792 A    
C63   C68   1.418316 A    
C15   H8    1.082659 S    
C38   C39   1.406892 A    
C54   H21   1.083002 S    
C52   C57   1.418351 A    
C93   O24   1.296243 A    
O21   C96   1.295986 A    
C82   H36   1.082659 S    
C47   H20   1.082914 S    
C75   C80   1.407797 A    
C63   C64   1.410949 A    
C35   O13   1.349463 S    
C66   C67   1.397735 A    
C13   C22   1.494899 S    
C88   H40   1.082846 S    
C62   O18   1.349002 S    
O1    V2    1.988846 S    
C28   H13   1.083339 S    
C87   C92   1.408305 A    
C90   C91   1.399584 A    
C58   C62   1.409918 A    
O25   V4    1.704798 S    
C88   C89   1.407288 A    
O25   V3    2.150046 S    
C59   H23   1.082998 S    
V4    O28   2.153809 S    
O9    C4    1.300345 A    
C87   C88   1.401688 A    
N2    C36   1.376362 A    
C20   C21   1.399540 A    
C8    H3    1.082670 S    
C64   H25   1.083107 S    
C21   C22   1.406971 A    
C65   C66   1.404858 A    
C85   C86   1.407783 A    
N6    O32   1.301531 A    
C17   C18   1.401806 A    
C81   C86   1.407163 A    
C25   C28   1.406588 A    
C39   C40   1.406819 A    
C26   C27   1.408187 A    
N4    C68   1.447115 S    
C23   N1    1.374667 A    
C32   C36   1.410230 A    
C9    H4    1.082834 S    
C84   C85   1.400601 A    
C52   C53   1.408504 A    
O4    C2    1.300018 A    
C56   C61   1.409830 A    
C84   H37   1.082654 S    
C78   C79   1.401693 A    
N5    O30   1.301372 A    
C33   C34   1.398482 A    
N6    O31   1.301211 A    
C60   H24   1.082994 S    
C45   C46   1.407497 A    
C44   C45   1.421037 A    
O19   C94   1.297235 A    
C35   N2    1.376565 A    
C14   C15   1.400644 A    
C38   H43   1.083412 S    
O2    C1    1.298727 A    
C40   C41   1.401658 A    
C12   H6    1.082646 S    
C27   C34   1.406691 A    
C46   C47   1.399191 A    
C2    C89   1.490133 S    
O23   V3    1.988366 S    
N2    C42   1.453425 S    
C81   H35   1.082652 S    
C57   C58   1.408508 A    
C30   C31   1.407537 A    
C5    H1    1.082896 S    
C90   H41   1.082904 S    
C3    C45   1.488629 S    
C25   C26   1.408421 A    
C77   C86   1.494697 S    
C61   O17   1.349001 S    
C41   H18   1.083024 S    
C69   N7    1.439534 S    
C70   H28   1.083293 S    
C23   C27   1.409770 A    
O3    C4    1.296307 A    
C80   C93   1.490160 S    
N5    O29   1.301461 A    
C4    C19   1.490126 S    
C49   O15   1.348967 S    
C79   C80   1.407290 A    
N1    C24   1.374589 A    
C24   C25   1.409952 A    
O6    V2    1.973566 S    
O8    V2    1.974700 S    
O9    V2    1.989075 S    
C50   O16   1.349039 S    
C77   C78   1.408311 A    
N1    C48   1.449335 S    
C20   H11   1.082895 S    
C76   H32   1.082660 S    
O2    V1    1.978455 S    
C18   H10   1.082845 S    
C49   C53   1.410046 A    
C69   C70   1.409392 A    
C51   C54   1.406200 A    
C43   C44   1.408070 A    
C85   H38   1.082657 S    
O7    V1    2.150157 S    
C29   C30   1.407053 A    
C55   H22   1.082995 S    
O24   V4    1.989253 S    
C73   C74   1.403617 A    
O22   C94   1.298118 A    
C40   H44   1.083433 S    
O1    C2    1.296217 A    
C39   C96   1.486193 S    
C13   C14   1.407179 A    
C21   H12   1.082637 S    
C9    C10   1.407310 A    
C79   H34   1.082843 S    
C76   C77   1.406979 A    
O5    V1    1.975650 S    
O8    C3    1.298851 A    
C69   C74   1.417217 A    
C33   H15   1.083328 S    
C78   H33   1.082672 S    
C29   H14   1.083347 S    
C11   C16   1.407144 A    
C67   H27   1.082109 S    
C7    C8    1.408374 A    
C36   O14   1.349416 S    
C14   H7    1.082644 S    
C6    H2    1.082658 S    
C82   C83   1.407773 A    
O22   V3    1.978242 S    
C50   C51   1.409682 A    
C44   N5    1.437761 S    
C37   H17   1.083099 S    
N3    C74   1.447287 S    
O3    V1    1.988492 S    
V1    O10   1.702356 S    
C87   H39   1.082673 S    
O5    C3    1.295666 A    
C81   C82   1.400595 A    
C32   C33   1.406983 A    
C73   H30   1.082140 S    
V2    O10   2.153760 S    
C91   C92   1.406976 A    
C61   N4    1.372475 A    
C5    C6    1.399551 A    
C15   C16   1.407799 A    
N7    O34   1.301475 A    
C8    C9    1.401862 A    
O20   V3    1.988551 S    
O7    V2    1.705204 S    
C55   C56   1.406253 A    
C70   C71   1.407188 A    
O21   V3    1.975430 S    
C34   H16   1.083347 S    
C43   H19   1.083284 S    
C71   C94   1.488292 S    
O4    V1    1.988234 S    
N3    C50   1.372881 A    
C10   C95   1.490334 S    
C49   N3    1.372521 A    
C12   C13   1.407858 A    
C59   C60   1.398847 A    
O19   V4    1.974871 S    
C37   C38   1.400631 A    
C11   H5    1.082653 S    
C24   O12   1.349425 S    
O26   V4    1.989287 S    
C75   H31   1.082901 S    
C47   C48   1.402501 A    
C75   C76   1.399582 A    
C17   C22   1.408409 A    
C30   C35   1.409872 A    
C37   C42   1.407494 A    
C66   H26   1.083058 S    
C53   C60   1.406319 A    
O20   C93   1.300053 A    
C72   H29   1.083116 S    
C89   C90   1.407797 A    
