data_mof_unit_pretest_739.cif
_audit_creation_date              2012-12-10T17:44:35-0500
_audit_creation_method            fapswitch 2.2
_symmetry_space_group_name_H-M    P1
_symmetry_Int_Tables_number       1
_space_group_crystal_system       triclinic
_cell_length_a                    10.080773
_cell_length_b                    10.615579
_cell_length_c                    15.12918
_cell_angle_alpha                 91.242924
_cell_angle_beta                  69.258269
_cell_angle_gamma                 89.858734
_cell_volume                      1513.64240375

loop_
_atom_site_label
_atom_site_type_symbol
_atom_type_description
_atom_site_fract_x
_atom_site_fract_y
_atom_site_fract_z
_atom_type_partial_charge
Br1   Br    Br    0.052244 0.647353 0.149118 -0.526408
Br2   Br    Br    0.119948 0.348555 0.025906 -0.406144
Br3   Br    Br    0.135374 0.342265 0.798881 -0.446396
C1    C     C_R   0.500844 0.738860 0.498070 0.834892
C2    C     C_R   0.729435 0.587900 0.030811 0.136773
C3    C     C_R   0.587693 0.611775 0.089343 0.113825
C4    C     C_R   0.411092 0.501943 0.676376 0.908032
C5    C     C_R   0.822439 0.532886 0.068284 -0.078556
C6    C     C_R   0.776569 0.497343 0.162754 -0.072348
C7    C     C_R   0.545442 0.583000 0.185417 -0.241071
C8    C     C_R   0.471614 0.864953 0.337375 -0.235184
C9    C     C_R   0.458208 0.928546 0.261200 -0.167355
C10   C     C_R   0.459400 0.059698 0.260925 0.464506
C11   C     C_R   0.474328 0.127364 0.336881 -0.250481
C12   C     C_R   0.419551 0.607704 0.910855 0.040219
C13   C     C_R   0.487119 0.064033 0.414917 0.030402
C14   C     C_R   0.486071 0.932058 0.415082 0.109935
C15   C     C_R   0.503839 0.871413 0.492308 -0.058675
C16   C     C_R   0.501098 0.261170 0.498354 0.874117
C17   C     C_R   0.527024 0.937554 0.565771 -0.206901
C18   C     C_R   0.527443 0.066392 0.565795 -0.160698
C19   C     C_R   0.504975 0.128530 0.492257 -0.069829
C20   C     C_R   0.802060 0.675368 0.614646 -0.171127
C21   C     C_R   0.842400 0.763406 0.669558 -0.212527
C22   C     C_R   0.978059 0.759532 0.672546 -0.168049
C23   C     C_R   0.284548 0.573315 0.973385 -0.018197
C24   C     C_R   0.075650 0.669973 0.618439 -0.132707
C25   C     C_R   0.041339 0.584307 0.557678 0.171761
C26   C     C_R   0.898394 0.585489 0.556771 0.185690
C27   C     C_R   0.958508 0.418795 0.444981 -0.072505
C28   C     C_R   0.588530 0.502266 0.323840 0.838902
C29   C     C_R   0.100630 0.419135 0.444744 -0.076961
C30   C     C_R   0.360710 0.522359 0.779442 -0.161810
C31   C     C_R   0.638565 0.525798 0.222298 -0.073940
C32   C     C_R   0.208307 0.482937 0.941595 0.211553
C33   C     C_R   0.241893 0.462032 0.843453 0.214025
C34   C     C_R   0.527041 0.634496 0.948322 0.106542
C35   C     C_R   0.448026 0.594186 0.814329 -0.279781
C36   C     C_R   0.487740 0.643329 0.047777 0.018875
C37   C     C_R   0.344272 0.660777 0.102412 -0.232395
C38   C     C_R   0.242595 0.618921 0.067498 0.324367
C39   C     C_R   0.672448 0.626768 0.892261 -0.186221
C40   C     C_R   0.773137 0.606778 0.933710 -0.185725
Cl1   Cl    Cl    0.444221 0.139794 0.164618 -0.554983
H1    H     H_    0.929341 0.515153 0.022397 0.189072
H2    H     H_    0.437823 0.598904 0.232328 0.163691
H3    H     H_    0.007467 0.825385 0.717921 0.172895
H4    H     H_    0.176652 0.669600 0.626313 0.199756
H5    H     H_    0.177234 0.352516 0.399178 0.166409
H6    H     H_    0.848833 0.449551 0.189681 0.205467
H7    H     H_    0.882823 0.591167 0.888494 0.170663
H8    H     H_    0.540251 0.637802 0.765518 0.148752
H9    H     H_    0.309488 0.696187 0.174573 0.168139
H10   H     H_    0.709624 0.620236 0.816402 0.164917
H11   H     H_    0.542035 0.889156 0.624013 0.139202
H12   H     H_    0.472582 0.763435 0.334288 0.163167
H13   H     H_    0.448366 0.875728 0.201920 0.170459
H14   H     H_    0.478105 0.228970 0.333219 0.165928
H15   H     H_    0.542523 0.118033 0.624120 0.166182
H16   H     H_    0.930615 0.351911 0.399636 0.162518
H17   H     H_    0.694114 0.678995 0.620302 0.191093
H18   H     H_    0.766040 0.832126 0.712810 0.165753
N1    N     N_R   0.856800 0.501200 0.500850 -0.122164
N2    N     N_R   0.142390 0.501280 0.500880 -0.124207
O1    O     O_R   0.385310 0.683220 0.500000 -0.641084
O2    O     O_R   0.614640 0.683250 0.500010 -0.619381
O3    O     O_R   0.319840 0.499980 0.632240 -0.594253
O4    O     O_R   0.549160 0.500000 0.632250 -0.627763
O5    O     O_R   0.385360 0.316750 0.499990 -0.595301
O6    O     O_R   0.614690 0.316780 0.500000 -0.609255
O7    O     O_R   0.450840 0.500000 0.367750 -0.619750
O8    O     O_R   0.680160 0.500020 0.367760 -0.586646
Zn1   Zn    Zn3+2 0.346880 0.499980 0.499990 0.961867
Zn2   Zn    Zn3+2 0.653120 0.500020 0.500010 0.966430

loop_
_geom_bond_atom_site_label_1
_geom_bond_atom_site_label_2
_ccdc_geom_bond_type
C24   H4    S    
Br2   C32   S    
C27   C29   A    
C26   N1    A    
C32   C33   A    
C20   C26   A    
C25   C26   A    
C18   H15   S    
C2    C3    A    
C35   H8    S    
O4    Zn2   S    
O2    Zn2   S    
C30   C33   A    
O1    Zn1   S    
C34   C39   A    
C5    H1    S    
C12   C34   A    
C4    O4    A    
C8    C14   A    
C13   C14   A    
C27   H16   S    
O6    Zn2   S    
C21   H18   S    
N2    Zn1   S    
O5    Zn1   S    
O3    Zn1   S    
C22   H3    S    
C1    C15   S    
C28   O7    A    
C2    C40   A    
C10   C11   A    
C4    C30   S    
C17   H11   S    
C11   H14   S    
C16   C19   S    
C21   C22   A    
C29   N2    A    
O8    Zn2   S    
C36   C37   A    
O7    Zn1   S    
C5    C6    A    
C12   C23   A    
C12   C35   A    
C7    H2    S    
C20   C21   A    
C14   C15   A    
C28   C31   S    
C7    C31   A    
C9    C10   A    
C9    H13   S    
C25   N2    A    
Br1   C38   S    
C28   O8    A    
C6    C31   A    
C11   C13   A    
C16   O5    A    
C39   C40   A    
C37   C38   A    
C13   C19   A    
C6    H6    S    
C3    C7    A    
C2    C5    A    
C8    C9    A    
N1    Zn2   S    
C22   C24   A    
C30   C35   A    
C34   C36   A    
C39   H10   S    
C1    O2    A    
C40   H7    S    
C1    O1    A    
Br3   C33   S    
C27   N1    A    
C15   C17   A    
C29   H5    S    
C4    O3    A    
C23   C32   A    
C20   H17   S    
C17   C18   A    
C37   H9    S    
C24   C25   A    
C3    C36   A    
C16   O6    A    
C18   C19   A    
C10   Cl1   S    
C8    H12   S    
C23   C38   A    
