data_mof_unit_pretest_1046.cif
_audit_creation_date              2012-10-26T17:12:44-0400
_audit_creation_method            fapswitch 2.2
_symmetry_space_group_name_H-M    P1
_symmetry_Int_Tables_number       1
_space_group_crystal_system       triclinic
_cell_length_a                    27.886856
_cell_length_b                    18.82266
_cell_length_c                    16.768806
_cell_angle_alpha                 89.745647
_cell_angle_beta                  62.720392
_cell_angle_gamma                 89.940681
_cell_volume                      7822.98708265

loop_
_atom_site_label
_atom_site_type_symbol
_atom_type_description
_atom_site_fract_x
_atom_site_fract_y
_atom_site_fract_z
_atom_type_partial_charge
C1    C     C_R   0.297139 0.733084 0.327819 0.568860
C2    C     C_R   0.596094 0.003929 0.519819 -0.047526
C3    C     C_R   0.683475 0.727723 0.912458 0.030289
C4    C     C_R   0.116442 0.825670 0.046782 -0.094094
C5    C     C_R   0.881723 0.171813 0.953884 -0.097565
C6    C     C_R   0.878575 0.833317 0.955696 -0.091557
C7    C     C_R   0.114636 0.175630 0.048008 -0.101438
C8    C     C_R   0.616441 0.325669 0.046783 -0.094097
C9    C     C_R   0.381724 0.671814 0.953883 -0.097567
C10   C     C_R   0.378594 0.333286 0.955687 -0.091554
C11   C     C_R   0.614623 0.675646 0.048015 -0.101426
C12   C     C_R   0.147327 0.813438 0.090836 -0.130559
C13   C     C_R   0.896898 0.499898 0.509119 -0.037968
C14   C     C_R   0.850452 0.183147 0.910336 -0.126690
C15   C     C_R   0.846327 0.824175 0.913615 -0.129167
C16   C     C_R   0.145021 0.188761 0.092711 -0.130544
C17   C     C_R   0.647326 0.313436 0.090837 -0.130561
C18   C     C_R   0.350453 0.683148 0.910335 -0.126691
C19   C     C_R   0.346353 0.324132 0.913598 -0.129171
C20   C     C_R   0.645005 0.688784 0.092721 -0.130530
C21   C     C_R   0.243436 0.697748 0.791617 -0.060802
C22   C     C_R   0.754649 0.299786 0.209104 -0.100967
C23   C     C_R   0.752865 0.702353 0.210603 -0.054207
C24   C     C_R   0.096106 0.503934 0.519790 -0.047522
C25   C     C_R   0.240678 0.306421 0.793008 -0.067949
C26   C     C_R   0.743435 0.197747 0.791618 -0.060826
C27   C     C_R   0.254650 0.799787 0.209103 -0.100963
C28   C     C_R   0.252878 0.202334 0.210600 -0.054214
C29   C     C_R   0.740657 0.806451 0.793021 -0.068057
C30   C     C_R   0.275032 0.685060 0.834276 -0.100857
C31   C     C_R   0.722704 0.311606 0.166921 -0.135401
C32   C     C_R   0.720334 0.691607 0.169270 -0.095444
C33   C     C_R   0.270623 0.321824 0.837903 -0.130722
C34   C     C_R   0.775031 0.185059 0.834277 -0.100874
C35   C     C_R   0.613944 0.885407 0.456939 0.261190
C36   C     C_R   0.222705 0.811608 0.166920 -0.135397
C37   C     C_R   0.220350 0.191581 0.169261 -0.095450
C38   C     C_R   0.770594 0.821872 0.837927 -0.130768
C39   C     C_R   0.928716 0.899244 0.064197 0.573797
C40   C     C_R   0.070503 0.101498 0.936242 0.574860
C41   C     C_R   0.070878 0.898930 0.936133 0.571209
C42   C     C_R   0.928998 0.101055 0.063904 0.572010
C43   C     C_R   0.428718 0.399242 0.064196 0.573781
C44   C     C_R   0.570501 0.601499 0.936243 0.574853
C45   C     C_R   0.570878 0.398930 0.936133 0.571190
C46   C     C_R   0.380826 0.121433 0.557997 0.283593
C47   C     C_R   0.428998 0.601055 0.063904 0.572006
C48   C     C_R   0.031437 0.627408 0.563304 -0.010601
C49   C     C_R   0.953091 0.373309 0.496362 0.001282
C50   C     C_R   0.932300 0.626284 0.554982 0.015871
C51   C     C_R   0.060392 0.379584 0.470865 -0.000322
C52   C     C_R   0.531431 0.127407 0.563317 -0.010526
C53   C     C_R   0.453058 0.873301 0.496453 0.001290
C54   C     C_R   0.432279 0.126281 0.555048 0.015896
C55   C     C_R   0.560363 0.879571 0.470938 -0.000313
C56   C     C_R   0.002213 0.691136 0.574404 0.271769
C57   C     C_R   0.398139 0.872108 0.517787 0.271409
C58   C     C_R   0.984067 0.310622 0.478346 0.269269
C59   C     C_R   0.951318 0.690239 0.574737 0.282578
C60   C     C_R   0.038029 0.313909 0.463905 0.271336
C61   C     C_R   0.502215 0.191136 0.574401 0.271680
C62   C     C_R   0.484029 0.810610 0.478456 0.269261
C63   C     C_R   0.451302 0.190240 0.574796 0.282423
C64   C     C_R   0.537994 0.813895 0.464002 0.271336
C65   C     C_R   0.965149 0.565199 0.532433 -0.047003
C66   C     C_R   0.027809 0.440693 0.495271 -0.040392
C67   C     C_R   0.014831 0.565908 0.535741 -0.048439
C68   C     C_R   0.576721 0.123770 0.579495 0.262388
C69   C     C_R   0.976175 0.438610 0.500060 -0.037519
C70   C     C_R   0.465127 0.065194 0.532498 -0.047003
C71   C     C_R   0.527783 0.940683 0.495342 -0.040396
C72   C     C_R   0.514813 0.065902 0.535790 -0.048445
C73   C     C_R   0.476147 0.938602 0.500137 -0.037523
C74   C     C_R   0.445943 0.001312 0.514541 0.024060
C75   C     C_R   0.546677 0.003911 0.515438 0.021556
C76   C     C_R   0.945967 0.501318 0.514472 0.024068
C77   C     C_R   0.046696 0.503919 0.515387 0.021572
C78   C     C_R   0.374335 0.934458 0.503035 -0.027543
C79   C     C_R   0.113968 0.385419 0.456890 0.261171
C80   C     C_R   0.612672 0.065533 0.547909 -0.034879
C81   C     C_R   0.628490 0.941986 0.497044 -0.033947
C82   C     C_R   0.368033 0.063057 0.517951 -0.022345
C83   C     C_R   0.874355 0.434458 0.502983 -0.027534
C84   C     C_R   0.112676 0.565533 0.547902 -0.034847
C85   C     C_R   0.128503 0.441992 0.497015 -0.033955
C86   C     C_R   0.868046 0.563056 0.517914 -0.022348
C87   C     C_R   0.329827 0.934704 0.482135 0.003632
C88   C     C_R   0.663742 0.065632 0.547165 0.025455
C89   C     C_R   0.671634 0.937775 0.520808 0.003202
C90   C     C_R   0.880843 0.621432 0.557955 0.283585
C91   C     C_R   0.327039 0.064015 0.488806 0.012767
C92   C     C_R   0.829836 0.434703 0.482110 0.003625
C93   C     C_R   0.163743 0.565632 0.547166 0.025498
C94   C     C_R   0.171639 0.437777 0.520799 0.003213
C95   C     C_R   0.827044 0.564014 0.488788 0.012763
C96   C     C_R   0.312910 0.999817 0.461971 0.183343
C97   C     C_R   0.687007 0.000254 0.550194 0.190765
C98   C     C_R   0.812912 0.499816 0.461958 0.183345
C99   C     C_R   0.187009 0.500254 0.550194 0.190775
C100  C     C_3   0.559767 0.721289 0.528703 0.023715
C101  C     C_R   0.898169 0.372108 0.517712 0.271412
C102  C     C_3   0.592214 0.652944 0.509742 -0.323526
C103  C     C_3   0.409091 0.290364 0.657337 0.036865
C104  C     C_3   0.411805 0.369839 0.638744 -0.360632
C105  C     C_3   0.475829 0.724293 0.390677 0.019301
C106  C     C_3   0.460882 0.646535 0.391287 -0.317410
C107  C     C_3   0.559659 0.279662 0.493684 0.005159
C108  C     C_3   0.587627 0.346964 0.500597 -0.314765
C109  C     C_3   0.059804 0.221296 0.528594 0.023730
C110  C     C_3   0.092251 0.152951 0.509626 -0.323542
C111  C     C_3   0.909109 0.790348 0.657329 0.037376
C112  C     C_R   0.702768 0.266831 0.672102 0.595547
C113  C     C_R   0.076720 0.623763 0.579502 0.262328
C114  C     C_3   0.912480 0.869842 0.638623 -0.360619
C115  C     C_3   0.975895 0.224327 0.390515 0.019338
C116  C     C_3   0.961044 0.146535 0.391066 -0.317427
C117  C     C_3   0.059712 0.779681 0.493876 0.004931
C118  C     C_3   0.087825 0.846789 0.500946 -0.314438
C119  C     C_R   0.216636 0.760101 0.956886 0.047602
C120  C     C_R   0.781252 0.236594 0.044345 0.047722
C121  C     C_R   0.778221 0.768178 0.047096 0.048173
C122  C     C_R   0.213751 0.244237 0.959364 0.051529
C123  C     C_R   0.716635 0.260099 0.956887 0.047601
C124  C     C_R   0.281253 0.736595 0.044344 0.047721
C125  C     C_R   0.278241 0.268145 0.047082 0.048178
C126  C     C_R   0.713730 0.744270 0.959379 0.051537
C127  C     C_R   0.264541 0.719858 0.914428 0.018219
C128  C     C_R   0.702419 0.733832 0.672142 0.590204
C129  C     C_R   0.733203 0.276586 0.086930 0.016380
C130  C     C_R   0.730400 0.727477 0.089615 0.021992
C131  C     C_R   0.260732 0.286372 0.917802 0.020050
C132  C     C_R   0.764540 0.219856 0.914429 0.018215
C133  C     C_R   0.233204 0.776588 0.086929 0.016381
C134  C     C_R   0.230419 0.227446 0.089602 0.021994
C135  C     C_R   0.760706 0.786415 0.917823 0.020099
C136  C     C_R   0.298235 0.711246 0.956310 0.015521
C137  C     C_R   0.699519 0.285172 0.045041 0.015873
C138  C     C_R   0.696798 0.718563 0.047516 0.017430
C139  C     C_R   0.297056 0.267004 0.327945 0.589924
C140  C     C_R   0.294440 0.295164 0.959688 0.017324
C141  C     C_R   0.798233 0.211244 0.956311 0.015521
C142  C     C_R   0.199520 0.785174 0.045040 0.015873
C143  C     C_R   0.196816 0.218532 0.047502 0.017438
C144  C     C_R   0.794415 0.795206 0.959707 0.017340
C145  C     C_R   0.137630 0.815275 0.953459 -0.024766
C146  C     C_R   0.860959 0.182823 0.047046 -0.026660
C147  C     C_R   0.858906 0.820345 0.048438 -0.024934
C148  C     C_R   0.136050 0.186488 0.954531 -0.024611
C149  C     C_R   0.637629 0.315274 0.953460 -0.024762
C150  C     C_R   0.797139 0.233084 0.327819 0.568790
C151  C     C_R   0.360959 0.682824 0.047046 -0.026659
C152  C     C_R   0.358919 0.320324 0.048431 -0.024937
C153  C     C_R   0.636039 0.686503 0.954537 -0.024617
C154  C     C_R   0.111118 0.839650 0.903039 -0.010708
C155  C     C_R   0.888336 0.160041 0.096824 -0.001844
C156  C     C_R   0.887447 0.840983 0.097277 -0.003689
C157  C     C_R   0.110069 0.161691 0.903561 -0.001537
C158  C     C_R   0.611118 0.339650 0.903039 -0.010724
C159  C     C_R   0.388337 0.660042 0.096824 -0.001845
C160  C     C_R   0.387453 0.340974 0.097276 -0.003694
C161  C     C_R   0.202768 0.766831 0.672102 0.595643
C162  C     C_R   0.610063 0.661697 0.903562 -0.001535
C163  C     C_R   0.127805 0.812794 0.815824 0.203002
C164  C     C_R   0.872173 0.188399 0.183173 0.199951
C165  C     C_R   0.871794 0.811504 0.183106 0.189190
C166  C     C_R   0.126649 0.189331 0.816420 0.194892
C167  C     C_R   0.627806 0.312794 0.815824 0.202976
C168  C     C_R   0.372174 0.688400 0.183173 0.199948
C169  C     C_R   0.371798 0.311501 0.183109 0.189196
C170  C     C_R   0.626646 0.689333 0.816419 0.194907
C171  C     C_R   0.176380 0.774026 0.772069 0.004796
C172  C     C_R   0.202420 0.233830 0.672141 0.590243
C173  C     C_R   0.823013 0.225633 0.227753 -0.000154
C174  C     C_R   0.822410 0.774855 0.228088 0.003742
C175  C     C_R   0.175418 0.227658 0.772461 0.007887
C176  C     C_R   0.676380 0.274026 0.772069 0.004760
C177  C     C_R   0.323013 0.725634 0.227753 -0.000147
C178  C     C_R   0.322415 0.274848 0.228087 0.003755
C179  C     C_R   0.675413 0.727665 0.772463 0.007880
C180  C     C_R   0.202553 0.749868 0.823055 -0.018979
C181  C     C_R   0.795970 0.248255 0.177479 -0.025409
C182  C     C_R   0.794450 0.753706 0.178703 -0.004382
C183  C     C_R   0.797055 0.767007 0.327945 0.589891
C184  C     C_R   0.200790 0.252905 0.824051 -0.001649
C185  C     C_R   0.702552 0.249867 0.823055 -0.018989
C186  C     C_R   0.295971 0.748256 0.177479 -0.025404
C187  C     C_R   0.294461 0.253689 0.178699 -0.004372
C188  C     C_R   0.700777 0.752925 0.824059 -0.001666
C189  C     C_R   0.196088 0.632135 0.530293 0.595928
C190  C     C_R   0.801638 0.368611 0.479729 0.597163
C191  C     C_R   0.800516 0.631038 0.483078 0.607553
C192  C     C_R   0.199127 0.369312 0.518896 0.598094
C193  C     C_R   0.696088 0.132134 0.530292 0.595849
C194  C     C_R   0.396879 0.999896 0.509174 -0.037974
C195  C     C_R   0.301635 0.868611 0.479737 0.597241
C196  C     C_R   0.300515 0.131039 0.483083 0.607575
C197  C     C_R   0.699125 0.869312 0.518899 0.598053
C198  C     C_R   0.185605 0.775339 0.910877 0.024997
C199  C     C_R   0.812688 0.222210 0.089923 0.024814
C200  C     C_R   0.810416 0.781222 0.091790 0.026752
C201  C     C_R   0.183490 0.227699 0.912447 0.030275
C202  C     C_R   0.685604 0.275338 0.910877 0.025000
C203  C     C_R   0.312689 0.722212 0.089923 0.024813
C204  C     C_R   0.310431 0.281197 0.091781 0.026757
Cl1   Cl    Cl    0.280058 0.000780 0.392618 -0.586834
Cl2   Cl    Cl    0.826780 0.663926 0.647961 -0.591639
Cl3   Cl    Cl    0.858285 0.317195 0.611078 -0.536223
Cl4   Cl    Cl    0.076468 0.676395 0.666728 -0.469317
Cl5   Cl    Cl    0.083843 0.820050 0.765942 -0.481837
Cl6   Cl    Cl    0.918212 0.188246 0.228999 -0.632014
Cl7   Cl    Cl    0.918158 0.810759 0.228639 -0.560219
Cl8   Cl    Cl    0.081721 0.186237 0.768061 -0.599828
Cl9   Cl    Cl    0.583844 0.320053 0.765941 -0.481661
Cl10  Cl    Cl    0.418214 0.688251 0.228996 -0.631989
Cl11  Cl    Cl    0.418158 0.310767 0.228649 -0.560239
Cl12  Cl    Cl    0.728891 0.997551 0.604343 -0.579304
Cl13  Cl    Cl    0.581721 0.686230 0.768054 -0.599881
Cl14  Cl    Cl    0.780048 0.500779 0.392622 -0.586826
Cl15  Cl    Cl    0.228889 0.497550 0.604348 -0.579375
Cl16  Cl    Cl    0.664468 0.841202 0.362858 -0.556882
Cl17  Cl    Cl    0.326758 0.163935 0.647979 -0.591679
Cl18  Cl    Cl    0.358237 0.817198 0.611145 -0.536235
Cl19  Cl    Cl    0.576472 0.176417 0.666706 -0.469208
Cl20  Cl    Cl    0.164504 0.341217 0.362820 -0.556891
Cu1   Cu    Cu3+1 0.209920 0.785290 0.495070 1.027724
Cu2   Cu    Cu3+1 0.504760 0.500000 0.075850 1.021361
Cu3   Cu    Cu3+1 0.995240 1.000000 0.924150 1.036477
Cu4   Cu    Cu3+1 0.004760 1.000000 0.075850 1.021346
Cu5   Cu    Cu3+1 0.790080 0.214710 0.504930 1.102959
Cu6   Cu    Cu3+1 0.790080 0.785290 0.504930 1.135879
Cu7   Cu    Cu3+1 0.209920 0.214710 0.495070 1.042615
Cu8   Cu    Cu3+1 0.709920 0.285290 0.495070 1.028289
Cu9   Cu    Cu3+1 0.290080 0.714710 0.504930 1.102792
Cu10  Cu    Cu3+1 0.290080 0.285290 0.504930 1.135703
Cu11  Cu    Cu3+1 0.709920 0.714710 0.495070 1.042653
Cu12  Cu    Cu3+1 0.495240 0.500000 0.924150 1.036513
H1    H     H_    0.074955 0.839908 0.088896 0.177429
H2    H     H_    0.869094 0.172846 0.839091 0.125200
H3    H     H_    0.864197 0.836352 0.842990 0.091118
H4    H     H_    0.126111 0.178146 0.164020 0.115894
H5    H     H_    0.628511 0.323475 0.162150 0.109320
H6    H     H_    0.369095 0.672848 0.839090 0.125200
H7    H     H_    0.364228 0.336305 0.842972 0.091093
H8    H     H_    0.626094 0.678167 0.164030 0.115908
H9    H     H_    0.250389 0.663164 0.736315 0.173949
H10   H     H_    0.747735 0.334919 0.263888 0.172474
H11   H     H_    0.746227 0.666374 0.264873 0.165358
H12   H     H_    0.923259 0.158156 0.911270 0.176311
H13   H     H_    0.247968 0.339843 0.736173 0.170216
H14   H     H_    0.750388 0.163164 0.736315 0.173954
H15   H     H_    0.247736 0.834920 0.263888 0.172474
H16   H     H_    0.246237 0.166361 0.264875 0.165348
H17   H     H_    0.747947 0.839864 0.736178 0.170278
H18   H     H_    0.306071 0.645083 0.805425 0.115631
H19   H     H_    0.691487 0.351353 0.195842 0.107867
H20   H     H_    0.689119 0.651758 0.198404 0.111299
H21   H     H_    0.300428 0.363527 0.810287 0.101786
H22   H     H_    0.806070 0.145081 0.805426 0.115635
H23   H     H_    0.920030 0.846547 0.911788 0.179101
H24   H     H_    0.191489 0.851356 0.195840 0.107868
H25   H     H_    0.189134 0.151733 0.198397 0.111294
H26   H     H_    0.800397 0.863580 0.810311 0.101734
H27   H     H_    0.516454 0.708040 0.571630 0.164867
H28   H     H_    0.573705 0.757742 0.566020 0.165006
H29   H     H_    0.635561 0.664104 0.465503 0.186273
H30   H     H_    0.587705 0.629370 0.573641 0.140746
H31   H     H_    0.577537 0.614262 0.476024 0.132050
H32   H     H_    0.433114 0.278622 0.693561 0.176066
H33   H     H_    0.366813 0.276054 0.703362 0.181358
H34   H     H_    0.073306 0.160266 0.089758 0.170765
H35   H     H_    0.384520 0.383797 0.609325 0.168840
H36   H     H_    0.399279 0.399982 0.701893 0.085272
H37   H     H_    0.453710 0.385301 0.590989 0.171638
H38   H     H_    0.520063 0.729474 0.346289 0.157757
H39   H     H_    0.453797 0.756744 0.362414 0.177095
H40   H     H_    0.416397 0.639923 0.428611 0.186742
H41   H     H_    0.475289 0.627537 0.321486 0.148991
H42   H     H_    0.480153 0.613866 0.423990 0.145616
H43   H     H_    0.536844 0.292183 0.455545 0.144353
H44   H     H_    0.591452 0.239629 0.455971 0.127973
H45   H     H_    0.574954 0.339907 0.088896 0.177424
H46   H     H_    0.610643 0.335885 0.538550 0.217328
H47   H     H_    0.615982 0.366249 0.432372 0.073909
H48   H     H_    0.557320 0.388970 0.535750 0.146633
H49   H     H_    0.016491 0.208046 0.571518 0.164854
H50   H     H_    0.073740 0.257744 0.565917 0.165006
H51   H     H_    0.135597 0.164110 0.465375 0.186279
H52   H     H_    0.087750 0.129379 0.573521 0.140681
H53   H     H_    0.077568 0.114267 0.475918 0.132018
H54   H     H_    0.932792 0.778065 0.694001 0.175634
H55   H     H_    0.866664 0.776559 0.702996 0.181303
H56   H     H_    0.423260 0.658157 0.911270 0.176307
H57   H     H_    0.885592 0.884313 0.608614 0.168590
H58   H     H_    0.899843 0.899946 0.701827 0.085398
H59   H     H_    0.954578 0.884848 0.591325 0.172004
H60   H     H_    0.020121 0.229600 0.346110 0.157690
H61   H     H_    0.953815 0.256727 0.362294 0.177184
H62   H     H_    0.916569 0.139825 0.428413 0.186745
H63   H     H_    0.975457 0.127565 0.321252 0.148930
H64   H     H_    0.980370 0.113913 0.423718 0.145629
H65   H     H_    0.036954 0.792437 0.455712 0.144221
H66   H     H_    0.091426 0.739569 0.456112 0.127903
H67   H     H_    0.420051 0.346520 0.911787 0.179084
H68   H     H_    0.110757 0.835471 0.538977 0.217949
H69   H     H_    0.116275 0.866060 0.432768 0.073900
H70   H     H_    0.057623 0.888907 0.536090 0.146299
H71   H     H_    0.573295 0.660275 0.089761 0.170791
H72   H     H_    0.128512 0.823477 0.162149 0.109332
O1    O     O_R   0.255040 0.869590 0.478480 -0.461411
O2    O     O_R   0.817950 0.203450 0.375560 -0.449757
O3    O     O_R   0.817950 0.796550 0.375560 -0.443684
O4    O     O_R   0.182050 0.203450 0.624440 -0.462423
O5    O     O_R   0.682050 0.296550 0.624440 -0.436986
O6    O     O_R   0.317950 0.703450 0.375560 -0.449772
O7    O     O_R   0.317950 0.296550 0.375560 -0.443682
O8    O     O_R   0.682050 0.703450 0.624440 -0.462436
O9    O     O_R   0.250530 0.763330 0.367210 -0.552181
O10   O     O_R   0.749470 0.236670 0.632790 -0.502840
O11   O     O_R   0.749470 0.763330 0.632790 -0.493386
O12   O     O_R   0.744960 0.130410 0.521520 -0.459414
O13   O     O_R   0.250530 0.236670 0.367210 -0.508367
O14   O     O_R   0.750530 0.263330 0.367210 -0.552191
O15   O     O_R   0.249470 0.736670 0.632790 -0.502782
O16   O     O_R   0.249470 0.263330 0.632790 -0.493389
O17   O     O_R   0.750530 0.736670 0.367210 -0.508374
O18   O     O_R   0.177260 0.690030 0.513710 -0.500025
O19   O     O_R   0.822740 0.309970 0.486290 -0.473685
O20   O     O_R   0.822740 0.690030 0.486290 -0.467819
O21   O     O_R   0.177260 0.309970 0.513710 -0.493929
O22   O     O_R   0.677260 0.190030 0.513710 -0.499855
O23   O     O_R   0.744960 0.869590 0.521520 -0.457607
O24   O     O_R   0.322740 0.809970 0.486290 -0.473695
O25   O     O_R   0.322740 0.190030 0.486290 -0.467808
O26   O     O_R   0.677260 0.809970 0.513710 -0.493918
O27   O     O_R   0.051640 0.926880 0.885090 -0.440581
O28   O     O_R   0.948360 0.073120 0.114910 -0.445085
O29   O     O_R   0.948360 0.926880 0.114910 -0.441523
O30   O     O_R   0.051640 0.073120 0.885090 -0.439660
O31   O     O_R   0.551640 0.426880 0.885090 -0.440584
O32   O     O_R   0.448360 0.573120 0.114910 -0.445088
O33   O     O_R   0.448360 0.426880 0.114910 -0.441524
O34   O     O_R   0.255040 0.130410 0.478480 -0.466300
O35   O     O_R   0.551640 0.573120 0.885090 -0.439655
O36   O     O_R   0.940620 0.926560 0.986760 -0.539209
O37   O     O_R   0.059380 0.073440 0.013240 -0.538668
O38   O     O_R   0.059380 0.926560 0.013240 -0.536129
O39   O     O_R   0.940620 0.073440 0.986760 -0.538998
O40   O     O_R   0.440620 0.426560 0.986760 -0.539205
O41   O     O_R   0.559380 0.573440 0.013240 -0.538665
O42   O     O_R   0.559380 0.426560 0.013240 -0.536128
O43   O     O_R   0.440620 0.573440 0.986760 -0.538994
O44   O     O_3   0.567784 0.751920 0.446495 -0.527112
O45   O     O_R   0.755040 0.369590 0.478480 -0.461404
O46   O     O_3   0.425579 0.253567 0.575461 -0.526319
O47   O     O_3   0.460935 0.745373 0.479610 -0.525647
O48   O     O_3   0.524290 0.255376 0.580922 -0.508293
O49   O     O_3   0.067822 0.251936 0.446389 -0.527089
O50   O     O_3   0.925579 0.753563 0.575449 -0.526351
O51   O     O_3   0.960983 0.245385 0.479463 -0.525639
O52   O     O_3   0.024243 0.755375 0.581056 -0.508230
O53   O     O_R   0.244960 0.630410 0.521520 -0.459399
O54   O     O_R   0.244960 0.369590 0.521520 -0.457636
O55   O     O_R   0.755040 0.630410 0.478480 -0.466295
O56   O     O_R   0.182050 0.796550 0.624440 -0.437242

loop_
_geom_bond_atom_site_label_1
_geom_bond_atom_site_label_2
_ccdc_geom_bond_type
C74   C194  A    
Cu5   O12   S    
C36   C133  A    
C163  Cl5   S    
C79   Cl20  S    
Cu10  O54   S    
Cu7   O34   S    
C124  C133  A    
C50   C59   A    
C22   C181  A    
C52   C61   A    
C38   H26   S    
C26   C185  A    
C54   C63   A    
C58   C60   A    
C15   H3    S    
C111  H55   S    
C61   C63   A    
C27   H15   S    
C62   C64   A    
C131  C140  A    
C101  Cl3   S    
C166  Cl8   S    
C134  C143  A    
C25   H13   S    
C50   C90   A    
C100  H28   S    
C164  Cl6   S    
C1    O9    A    
C70   C74   A    
C4    H1    S    
C106  H42   S    
C29   H17   S    
C4    C12   A    
C24   C85   A    
C88   C97   A    
C108  H48   S    
C172  C175  S    
C19   H7    S    
C17   H5    S    
C114  H59   S    
C49   C69   A    
C147  C200  A    
C158  C167  A    
C11   C20   A    
Cu12  O35   S    
C113  Cl4   S    
C40   C157  S    
C176  C185  A    
C127  C136  A    
C23   C182  A    
C86   C90   A    
C28   C187  A    
C71   C73   A    
Cu9   O24   S    
Cu10  O16   S    
C179  C188  A    
C109  O49   S    
C187  C204  A    
C177  C186  A    
C6    H23   S    
C51   C66   A    
C185  C202  A    
C42   O28   A    
C52   C72   A    
Cu3   Cu4   S    
C54   C70   A    
C128  O11   A    
C164  C173  A    
Cu6   O3    S    
Cu4   O37   S    
Cu5   O10   S    
C98   Cl14  S    
C105  H38   S    
C130  C138  A    
C79   C85   A    
C42   O39   A    
C105  C106  S    
C112  O5    A    
C66   C77   A    
C30   C127  A    
C9    C151  A    
C44   O41   A    
C57   C78   A    
C150  O14   A    
C56   C59   A    
C190  O45   A    
C8    C17   A    
C29   C188  A    
C115  H61   S    
C117  H66   S    
C104  H35   S    
C87   C195  S    
C80   C88   A    
C128  O8    A    
C193  O22   A    
C39   O36   A    
C45   O42   A    
C12   H72   S    
C8    C149  A    
Cu7   Cu10  S    
C84   C93   A    
C48   C67   A    
C180  C198  A    
C86   C95   A    
Cu7   O4    S    
C24   C77   A    
C129  C137  A    
C56   O52   S    
C114  H57   S    
C33   H21   S    
C196  O25   A    
C2    C81   A    
C17   C137  A    
Cu11  O8    S    
Cu3   O30   S    
C55   C71   A    
Cu5   O2    S    
Cu8   O22   S    
C78   C87   A    
C125  C204  A    
C192  O54   A    
Cu6   O20   S    
C123  C132  A    
C119  C198  A    
C115  O51   S    
C67   C77   A    
C121  C130  A    
C174  C182  A    
Cu4   O28   S    
C47   C159  S    
C47   O32   A    
C133  C142  A    
C122  C201  A    
C190  O19   A    
Cu5   Cu8   S    
C105  O47   S    
C112  O10   A    
C60   O49   S    
C120  C199  A    
Cu2   Cu12  S    
C69   C76   A    
C85   C94   A    
C168  Cl10  S    
C46   C82   A    
C97   Cl12  S    
C189  O18   A    
C107  C108  S    
C18   C136  A    
C195  O24   A    
C149  C158  A    
C107  O48   S    
Cu1   O9    S    
C91   C96   A    
C150  O2    A    
C1    O6    A    
C87   C96   A    
C121  C144  A    
C122  C143  A    
C72   C75   A    
C107  H44   S    
Cu2   O42   S    
C125  C140  A    
C169  Cl11  S    
C11   H71   S    
C100  O44   S    
C124  C203  A    
C120  C129  A    
C22   H10   S    
C58   O51   S    
Cu7   O13   S    
C165  C174  A    
C151  C159  A    
Cu9   O6    S    
C192  O21   A    
C161  O56   A    
C139  O7    A    
C109  H50   S    
C112  C176  S    
C110  H53   S    
C102  H31   S    
Cu3   O36   S    
C167  Cl9   S    
C5    H12   S    
C181  C199  A    
C122  C131  A    
C132  C141  A    
C116  H64   S    
C184  C201  A    
C83   C101  A    
C88   C193  S    
C7    H34   S    
C120  C141  A    
C93   C189  S    
C89   C197  S    
C172  O4    A    
C31   H19   S    
C170  C179  A    
C41   O38   A    
C145  C198  A    
C31   C129  A    
C117  C118  S    
C6    C147  A    
C96   Cl1   S    
C28   C37   A    
C4    C145  A    
C186  C203  A    
C148  C157  A    
C36   H24   S    
C23   H11   S    
C50   C65   A    
C51   C79   A    
C2    C75   A    
C173  C181  A    
C43   O33   A    
C9    C18   A    
C150  C173  S    
C16   H4    S    
Cu11  O17   S    
Cu12  O43   S    
Cu8   O14   S    
C37   C134  A    
C175  C184  A    
C51   C60   A    
Cu2   O32   S    
C149  C202  A    
C25   C33   A    
C119  C127  A    
C125  C134  A    
C73   C74   A    
Cu7   O21   S    
C3    C126  A    
Cu8   O45   S    
C166  C175  A    
C65   C76   A    
C103  H33   S    
Cu2   O33   S    
Cu3   O39   S    
Cu10  O7    S    
C197  O23   A    
C49   C101  A    
C168  C177  A    
C118  H69   S    
Cu4   O29   S    
C191  O20   A    
C34   H22   S    
Cu9   O15   S    
C78   C194  A    
C20   C138  A    
C26   H14   S    
C10   C152  A    
C90   Cl2   S    
C59   O50   S    
C146  C155  A    
C116  H63   S    
C65   C67   A    
C102  H29   S    
C41   O27   A    
C160  C169  A    
C30   H18   S    
C163  C171  A    
C93   C99   A    
C25   C184  A    
C170  Cl13  S    
C81   C89   A    
C18   H6    S    
Cu4   O38   S    
C35   Cl16  S    
C44   C162  S    
C32   C130  A    
C92   C190  S    
C57   Cl18  S    
C124  C136  A    
C105  H39   S    
C16   C143  A    
C182  C200  A    
C10   H67   S    
C14   H2    S    
C53   C57   A    
Cu1   O56   S    
Cu12  O40   S    
C28   H16   S    
C121  C200  A    
Cu8   O5    S    
C162  C170  A    
C100  H27   S    
C10   C19   A    
C46   C54   A    
C106  H40   S    
Cu6   Cu11  S    
C106  H41   S    
C103  H32   S    
C147  C156  A    
C111  H54   S    
C197  O26   A    
C108  H47   S    
C178  C187  A    
C7    C16   A    
C99   Cl15  S    
C126  C135  A    
C114  H58   S    
C63   O46   S    
C155  C164  A    
C20   H8    S    
C123  C137  A    
Cu11  O26   S    
C47   O43   A    
C110  H51   S    
C174  C183  S    
C9    H56   S    
Cu5   O19   S    
C27   C36   A    
C21   C30   A    
C13   C83   A    
C153  C162  A    
Cu1   Cu9   S    
C23   C32   A    
C42   C155  S    
C109  C110  S    
C91   C196  S    
C45   O31   A    
C156  C165  A    
C12   C142  A    
C111  C114  S    
C37   H25   S    
C172  O16   A    
C82   C91   A    
C191  O55   A    
C66   C69   A    
C117  H65   S    
C103  C104  S    
C119  C142  A    
C183  O3    A    
C152  C204  A    
C145  C154  A    
C104  H37   S    
C115  C116  S    
C48   C113  A    
C68   C80   A    
Cu6   O23   S    
C152  C160  A    
C84   C113  A    
C183  O17   A    
C117  O52   S    
C193  O12   A    
C107  H43   S    
C3    C188  A    
Cu10  O25   S    
C104  H36   S    
Cu6   O11   S    
C35   C81   A    
C95   C98   A    
C92   C98   A    
C83   C92   A    
C46   Cl17  S    
C61   O48   S    
C3    C153  A    
Cu12  O31   S    
C159  C168  A    
C146  C199  A    
Cu11  O55   S    
C195  O1    A    
C6    C15   A    
C1    C177  S    
C26   C34   A    
C21   C180  A    
C139  O13   A    
C19   C140  A    
C13   C86   A    
C196  O34   A    
C43   O40   A    
C52   C68   A    
C95   C191  S    
C109  H49   S    
C33   C131  A    
C14   C141  A    
C116  H62   S    
C64   O44   S    
C32   H20   S    
C82   C194  A    
C148  C201  A    
C22   C31   A    
C35   C55   A    
C62   O47   S    
C154  C163  A    
C43   C160  S    
C128  C179  S    
C11   C153  A    
C165  Cl7   S    
C21   H9    S    
C38   C135  A    
C49   C58   A    
C89   C97   A    
C27   C186  A    
C161  C171  S    
C29   C38   A    
C189  O53   A    
C53   C62   A    
C13   C76   A    
C55   C64   A    
C100  C102  S    
C5    C14   A    
C118  H68   S    
C39   O29   A    
C135  C144  A    
C111  O50   S    
C171  C180  A    
C68   Cl19  S    
Cu2   O41   S    
C169  C178  A    
C108  H46   S    
C41   C154  S    
C48   C56   A    
C126  C138  A    
C5    C146  A    
C123  C202  A    
C115  H60   S    
Cu9   O53   S    
Cu1   O18   S    
C53   C73   A    
C45   C158  S    
C151  C203  A    
C157  C166  A    
C7    C148  A    
Cu1   O1    S    
C40   O37   A    
C44   O35   A    
C39   C156  S    
C24   C84   A    
C139  C178  S    
C103  O46   S    
C71   C75   A    
C8    H45   S    
C94   C99   A    
C118  H70   S    
C94   C192  S    
C2    C80   A    
C34   C132  A    
C15   C144  A    
C40   O30   A    
C110  H52   S    
C161  O15   A    
C102  H30   S    
C70   C72   A    
Cu3   O27   S    
C167  C176  A    
