data_mof_unit_pretest_312.cif
_audit_creation_date              2012-12-11T16:37:16-0500
_audit_creation_method            fapswitch 2.2
_symmetry_space_group_name_H-M    P1
_symmetry_Int_Tables_number       1
_space_group_crystal_system       triclinic
_cell_length_a                    19.463507
_cell_length_b                    6.932047
_cell_length_c                    17.762308
_cell_angle_alpha                 90.135192
_cell_angle_beta                  108.967903
_cell_angle_gamma                 89.850819
_cell_volume                      2266.38519038

loop_
_atom_site_label
_atom_site_type_symbol
_atom_type_description
_atom_site_fract_x
_atom_site_fract_y
_atom_site_fract_z
_atom_type_partial_charge
O1    O     O_R   0.561710 0.369960 0.440200 -0.548018
O2    O     O_R   0.061710 0.630040 0.940200 -0.551164
O3    O     O_R   0.412630 0.033330 0.406330 -0.522715
O4    O     O_R   0.912630 0.966670 0.906330 -0.537848
O5    O     O_R   0.438290 0.869790 0.559800 -0.493492
O6    O     O_R   0.938290 0.130210 0.059800 -0.504518
C1    C     C_R   0.384829 0.203613 0.383095 0.789040
C2    C     C_R   0.884404 0.796849 0.883738 0.690568
O7    O     O_R   0.559570 0.039810 0.430640 -0.553244
O8    O     O_R   0.059570 0.960190 0.930640 -0.554074
O9    O     O_R   0.586280 0.876320 0.584290 -0.546097
O10   O     O_R   0.086280 0.123680 0.084290 -0.526649
C3    C     C_R   0.580886 0.209002 0.415182 0.653423
C4    C     C_R   0.081496 0.790539 0.916043 0.656172
O11   O     O_R   0.413720 0.363440 0.415710 -0.549366
O12   O     O_R   0.913720 0.636560 0.915710 -0.554747
O13   O     O_3   0.508590 0.205630 0.550380 -0.349432
O14   O     O_3   0.008590 0.794370 0.050380 -0.318754
V1    V     V_3+5 0.498410 0.928130 0.490650 1.490355
V2    V     V_3+5 0.998410 0.071870 0.990650 1.493784
O15   O     O_R   0.587370 0.546990 0.593670 -0.547059
O16   O     O_R   0.087370 0.453010 0.093670 -0.544921
C5    C     C_R   0.615633 0.716823 0.616395 0.673984
C6    C     C_R   0.115887 0.283276 0.115981 0.735787
O17   O     O_R   0.440430 0.540520 0.569360 -0.528020
O18   O     O_R   0.940430 0.459480 0.069360 -0.523339
C7    C     C_R   0.416930 0.709468 0.582251 0.773057
C8    C     C_R   0.921264 0.290423 0.087054 0.777537
V3    V     V_3+5 0.501590 0.428960 0.509350 1.470311
V4    V     V_3+5 0.001590 0.571040 0.009350 1.504913
O19   O     O_3   0.491410 0.701330 0.449620 -0.387164
O20   O     O_3   0.991410 0.298670 0.949620 -0.396509
C9    C     C_R   0.268543 0.873890 0.666958 -0.225623
C10   C     C_R   0.834228 0.128858 0.241223 -0.230316
H1    H     H_    0.227294 0.984618 0.657076 0.160966
H2    H     H_    0.841885 0.020619 0.287069 0.159350
C11   C     C_R   0.311950 0.866166 0.617552 0.440043
C12   C     C_R   0.883904 0.139048 0.198926 0.404117
C13   C     C_R   0.366239 0.720624 0.629788 -0.168191
C14   C     C_R   0.874236 0.280278 0.138434 -0.147353
C15   C     C_R   0.372193 0.582226 0.689521 -0.161985
C16   C     C_R   0.816857 0.413230 0.125525 -0.168597
H3    H     H_    0.412495 0.468526 0.700159 0.151958
H4    H     H_    0.808345 0.523175 0.080121 0.136872
C17   C     C_R   0.327631 0.590579 0.737563 -0.126519
C18   C     C_R   0.768531 0.403185 0.169092 -0.126857
H5    H     H_    0.334758 0.483433 0.783747 0.112516
H6    H     H_    0.724205 0.505825 0.156260 0.113205
C19   C     C_R   0.275843 0.738210 0.727425 0.021407
C20   C     C_R   0.776043 0.259242 0.226819 0.024112
C21   C     C_R   0.198368 0.583727 0.799954 -0.131814
C22   C     C_R   0.698967 0.413608 0.300402 -0.135989
H7    H     H_    0.210605 0.442739 0.781168 0.109910
H8    H     H_    0.716426 0.554732 0.288026 0.107914
C23   C     C_R   0.150860 0.596954 0.844418 -0.168333
C24   C     C_R   0.652297 0.401157 0.345869 -0.166789
H9    H     H_    0.128767 0.465025 0.859584 0.119185
H10   H     H_    0.634606 0.533652 0.366324 0.119800
C25   C     C_R   0.131569 0.777672 0.868182 -0.045262
C26   C     C_R   0.629426 0.220741 0.365307 -0.046306
C27   C     C_R   0.161793 0.944611 0.847036 -0.165199
C28   C     C_R   0.654196 0.053109 0.337333 -0.166175
H11   H     H_    0.148946 0.085894 0.864984 0.114742
H12   H     H_    0.637684 0.911809 0.350760 0.116519
C29   C     C_R   0.209511 0.931270 0.802840 -0.143034
C30   C     C_R   0.701030 0.065660 0.291929 -0.142216
H13   H     H_    0.232305 0.062818 0.788334 0.105695
H14   H     H_    0.718654 0.933691 0.271010 0.106738
C31   C     C_R   0.228020 0.750762 0.778152 0.117524
C32   C     C_R   0.724343 0.246097 0.273148 0.116287
C33   C     C_R   0.767206 0.624679 0.811985 0.052985
C34   C     C_R   0.282899 0.401682 0.292179 0.002711
C35   C     C_R   0.813992 0.782594 0.818052 -0.119055
C36   C     C_R   0.318240 0.222504 0.312566 -0.082315
C37   C     C_R   0.790855 0.926875 0.759672 -0.132126
C38   C     C_R   0.290748 0.068342 0.259614 -0.158447
H15   H     H_    0.824647 0.051444 0.761672 0.126114
H16   H     H_    0.318169 0.930115 0.269182 0.111413
C39   C     C_R   0.726314 0.904959 0.694717 -0.173494
C40   C     C_R   0.226106 0.090093 0.194461 -0.146471
H17   H     H_    0.711988 0.015699 0.649407 0.121976
H18   H     H_    0.205904 0.966718 0.156275 0.117334
C41   C     C_R   0.683163 0.737126 0.685592 -0.096177
C42   C     C_R   0.186970 0.266515 0.180375 -0.062859
C43   C     C_R   0.703794 0.602054 0.747119 0.046970
C44   C     C_R   0.219609 0.423350 0.227809 -0.007053
C45   C     C_3   0.713881 0.389788 0.742872 -0.390974
C46   C     C_3   0.188626 0.571125 0.268859 -0.292636
C47   C     C_3   0.782756 0.412689 0.814076 0.043024
C48   C     C_3   0.258025 0.549591 0.339763 0.019167
H19   H     H_    0.724876 0.347186 0.687528 0.137752
H20   H     H_    0.183536 0.714407 0.239904 0.162065
H21   H     H_    0.669865 0.307294 0.755340 0.185212
H22   H     H_    0.138489 0.520128 0.279684 0.216910
H23   H     H_    0.833740 0.376846 0.801601 0.129534
H24   H     H_    0.292510 0.680870 0.352927 0.170082
N1    N     N_3   0.777383 0.318757 0.885707 -0.643745
H25   H     H_    0.732429 0.372034 0.899339 0.228061
H26   H     H_    0.823439 0.356251 0.933085 0.225195
N2    N     N_3   0.243884 0.471408 0.409770 -0.548063
H27   H     H_    0.220724 0.334111 0.397058 0.299930
H28   H     H_    0.293696 0.456534 0.455010 0.284238
S1    S     S_3+6 0.292993 0.036566 0.539423 -0.035864
O21   O     O_2   0.351689 0.186640 0.560128 -0.337436
O22   O     O_2   0.290640 0.938757 0.463087 -0.368404
O23   O     O_3   0.212815 0.146395 0.526660 -0.504108
H29   H     H_    0.175623 0.048390 0.500809 0.349650
S2    S     S_3+6 0.958540 0.977342 0.226848 0.012084
O24   O     O_2   0.941036 0.807001 0.171570 -0.308002
O25   O     O_2   0.026173 0.073352 0.222140 -0.350156
O26   O     O_3   0.973796 0.898004 0.320307 -0.487519
H30   H     H_    0.990259 0.013211 0.354476 0.338393

loop_
_geom_bond_atom_site_label_1
_geom_bond_atom_site_label_2
_ccdc_geom_bond_type
C30   H14   S    
C23   C25   A    
O13   V3    S    
O26   H30   S    
O4    C2    A    
V1    O19   S    
N1    H25   S    
C13   C15   A    
C3    C26   S    
C4    C25   S    
O9    V1    S    
C36   C38   A    
C42   C44   A    
C45   H19   S    
C44   C46   S    
O23   H29   S    
C8    C14   S    
C9    C19   A    
S2    O24   D    
C26   C28   A    
C16   C18   A    
C27   H11   S    
O7    C3    A    
C2    C35   S    
C28   H12   S    
O13   V1    S    
O5    C7    A    
O7    V1    S    
O6    C8    A    
C46   H20   S    
O8    V2    S    
C29   H13   S    
O3    V1    S    
O14   V4    S    
V4    O20   S    
C21   C23   A    
C40   C42   A    
C43   C45   S    
C2    O12   A    
C33   C43   A    
C12   S2    S    
C15   H3    S    
C16   H4    S    
C48   N2    S    
N1    H26   S    
C22   H8    S    
O11   V3    S    
C1    C36   S    
C46   H22   S    
C17   H5    S    
O15   C5    A    
O17   V3    S    
C18   H6    S    
C25   C27   A    
C10   C20   A    
C28   C30   A    
C34   C36   A    
O8    C4    A    
C7    C13   S    
C11   S1    S    
C1    O11   A    
O15   V3    S    
C9    C11   A    
C24   C26   A    
C47   N1    S    
C21   H7    S    
O4    V2    S    
C47   H23   S    
C34   C48   S    
C33   C47   S    
C17   C19   A    
O10   V2    S    
O1    V3    S    
S1    O22   D    
C37   H15   S    
C5    C41   S    
C40   H18   S    
C41   C43   A    
C46   C48   S    
O18   V4    S    
C23   H9    S    
O16   C6    A    
O1    C3    A    
C35   C37   A    
C33   C35   A    
N2    H28   S    
V2    O20   S    
C18   C20   A    
O16   V4    S    
C10   C12   A    
O18   C8    A    
C38   C40   A    
C38   H16   S    
C14   C16   A    
C34   C44   A    
C39   H17   S    
C48   H24   S    
O5    V1    S    
O17   C7    A    
O6    V2    S    
O10   C6    A    
O3    C1    A    
S2    O26   S    
O2    V4    S    
C45   C47   S    
C20   C32   S    
C11   C13   A    
C12   C14   A    
C30   C32   A    
S2    O25   D    
C37   C39   A    
C29   C31   A    
C45   H21   S    
O9    C5    A    
N2    H27   S    
C9    H1    S    
C10   H2    S    
C24   H10   S    
S1    O23   S    
O14   V2    S    
C6    C42   S    
O2    C4    A    
C22   C32   A    
C39   C41   A    
C27   C29   A    
V3    O19   S    
S1    O21   D    
C15   C17   A    
C19   C31   S    
C21   C31   A    
O12   V4    S    
C22   C24   A    
