data_mof_unit_pretest_321.cif
_audit_creation_date              2012-12-10T18:47:05-0500
_audit_creation_method            fapswitch 2.2
_symmetry_space_group_name_H-M    P1
_symmetry_Int_Tables_number       1
_space_group_crystal_system       triclinic
_cell_length_a                    10.642207
_cell_length_b                    9.834496
_cell_length_c                    14.977208
_cell_angle_alpha                 90.07601
_cell_angle_beta                  89.844831
_cell_angle_gamma                 90.39621
_cell_volume                      1567.48113688

loop_
_atom_site_label
_atom_site_type_symbol
_atom_type_description
_atom_site_fract_x
_atom_site_fract_y
_atom_site_fract_z
_atom_type_partial_charge
C1    C     C_R   0.260244 0.499347 0.500549 1.045159
C2    C     C_R   0.739761 0.500633 0.499407 1.044646
C3    C     C_R   0.401861 0.272784 0.045939 0.519068
C4    C     C_R   0.583173 0.733394 0.954061 0.517817
C5    C     C_R   0.063537 0.415703 0.561150 0.363501
C6    C     C_R   0.936492 0.584079 0.438692 0.362980
C7    C     C_R   0.933766 0.422708 0.564091 0.361651
C8    C     C_R   0.066255 0.576889 0.435659 0.364060
C9    C     C_R   0.872114 0.502414 0.500561 -0.413369
C10   C     C_R   0.127904 0.497451 0.499325 -0.414059
C11   C     C_R   0.579755 0.072674 0.554131 -0.068909
C12   C     C_R   0.420210 0.927327 0.445895 -0.064127
C13   C     C_R   0.420197 0.071277 0.445908 -0.088061
C14   C     C_R   0.579770 0.928724 0.554116 -0.093799
C15   C     C_R   0.499715 0.499987 0.326665 0.894315
C16   C     C_R   0.500003 0.500082 0.673342 0.893159
C17   C     C_R   0.541767 0.615578 0.814599 -0.241603
C18   C     C_R   0.452115 0.386498 0.185507 -0.246366
C19   C     C_R   0.498919 0.500485 0.769055 -0.090352
C20   C     C_R   0.497856 0.500340 0.230973 -0.092497
C21   C     C_R   0.453737 0.386556 0.814601 -0.201627
C22   C     C_R   0.540705 0.615259 0.185378 -0.189414
C23   C     C_R   0.450486 0.387017 0.906896 0.072510
C24   C     C_R   0.539314 0.616902 0.093121 0.059458
C25   C     C_R   0.494294 0.502656 0.953564 -0.007378
C26   C     C_R   0.493594 0.502126 0.046487 -0.011373
C27   C     C_R   0.540197 0.618054 0.907180 0.016437
C28   C     C_R   0.448925 0.386184 0.092901 0.023896
C29   C     C_R   0.404444 0.273489 0.952861 -0.343389
C30   C     C_R   0.584187 0.731024 0.047185 -0.300907
H1    H     H_    0.577124 0.702530 0.777599 0.197467
H2    H     H_    0.417811 0.299149 0.222588 0.196880
H3    H     H_    0.419708 0.298281 0.778187 0.162751
H4    H     H_    0.576620 0.702732 0.221722 0.167540
H5    H     H_    0.370876 0.184942 0.916698 0.155215
H6    H     H_    0.621007 0.818043 0.083411 0.170028
H7    H     H_    0.643484 0.127832 0.597402 0.160184
H8    H     H_    0.356453 0.872166 0.402646 0.159919
H9    H     H_    0.356427 0.125328 0.402683 0.124890
H10   H     H_    0.643515 0.874674 0.597358 0.128573
N1    N     N_R   0.500000 0.857200 0.500000 -0.084997
N2    N     N_R   0.500000 0.142800 0.500000 -0.084559
O1    O     O_R   0.316770 0.614620 0.499990 -0.595430
O2    O     O_R   0.683230 0.385380 0.500010 -0.594634
O3    O     O_R   0.683230 0.614620 0.500010 -0.621892
O4    O     O_R   0.316770 0.385380 0.499990 -0.623094
O5    O     O_R   0.499980 0.614680 0.367850 -0.614188
O6    O     O_R   0.500020 0.385320 0.632150 -0.615551
O7    O     O_R   0.500020 0.614680 0.632150 -0.640220
O8    O     O_R   0.499980 0.385320 0.367850 -0.638007
Zn1   Zn    Zn3+2 0.500000 0.653120 0.500000 0.966116
Zn2   Zn    Zn3+2 0.500000 0.346880 0.500000 0.965676
O9    O     O_3   0.361705 0.157490 0.090753 -0.623649
C31   C     C_3   0.229320 0.157707 0.093852 -0.348252
H11   H     H_    0.197185 0.068057 0.132794 0.201034
H12   H     H_    0.188265 0.148902 0.025802 0.175506
H13   H     H_    0.193379 0.250194 0.128233 0.155933
O10   O     O_3   0.633265 0.843899 0.908883 -0.616821
C32   C     C_3   0.545783 0.950827 0.911543 -0.323956
H14   H     H_    0.532748 0.989485 0.980750 0.204098
H15   H     H_    0.453792 0.919250 0.882557 0.159515
H16   H     H_    0.582676 0.036212 0.870589 0.195673
O11   O     O_3   0.128528 0.341147 0.624222 -0.586900
C33   C     C_3   0.123047 0.202158 0.600742 -0.201983
H17   H     H_    0.189532 0.145852 0.643732 0.169049
H18   H     H_    0.151874 0.184468 0.530126 0.139308
H19   H     H_    0.027724 0.159055 0.612644 0.186477
O12   O     O_3   0.871505 0.658660 0.375630 -0.586387
C34   C     C_3   0.877273 0.797680 0.399021 -0.201272
H20   H     H_    0.848379 0.815528 0.469607 0.140906
H21   H     H_    0.810980 0.854103 0.355946 0.171541
H22   H     H_    0.972709 0.840523 0.387166 0.183706
O13   O     O_3   0.866977 0.349025 0.627312 -0.594032
C35   C     C_3   0.849849 0.431583 0.703381 -0.252182
H23   H     H_    0.793858 0.373712 0.753253 0.185004
H24   H     H_    0.796612 0.525400 0.687200 0.129114
H25   H     H_    0.941467 0.458478 0.734660 0.187160
O14   O     O_3   0.133036 0.650007 0.372148 -0.590920
C36   C     C_3   0.149838 0.566873 0.296301 -0.269662
H26   H     H_    0.202989 0.473079 0.312684 0.125209
H27   H     H_    0.205750 0.624297 0.246167 0.187414
H28   H     H_    0.058107 0.539875 0.265234 0.185279

loop_
_geom_bond_atom_site_label_1
_geom_bond_atom_site_label_2
_ccdc_geom_bond_type
O13   C35   S    
C15   O5    A    
C16   O6    A    
C6    C9    A    
C7    O13   S    
O9    C31   S    
C35   H24   S    
C23   C29   A    
C3    C28   A    
C19   C21   A    
C24   C26   A    
C11   C14   A    
C1    O4    A    
C21   H3    S    
O3    Zn1   S    
O4    Zn2   S    
C5    O11   S    
C11   N2    A    
C34   H21   S    
C15   O8    A    
C11   H7    S    
C1    O1    A    
C2    O2    A    
O12   C34   S    
O7    Zn1   S    
C35   H25   S    
O8    Zn2   S    
O2    Zn2   S    
C6    O12   S    
C32   H14   S    
C8    O14   S    
C13   N2    A    
C2    O3    A    
C15   C20   S    
C22   H4    S    
C31   H12   S    
C32   H15   S    
C35   H23   S    
C17   C27   A    
C33   H19   S    
C18   C28   A    
C16   O7    A    
C36   H27   S    
O14   C36   S    
C6    C8    A    
O10   C32   S    
C36   H26   S    
C33   H18   S    
C34   H22   S    
C12   N1    A    
C14   N1    A    
C20   C22   A    
C21   C23   A    
C17   H1    S    
C22   C24   A    
C18   H2    S    
C4    C27   A    
C5    C7    A    
C7    C9    A    
C31   H11   S    
C32   H16   S    
C1    C10   S    
C36   H28   S    
O5    Zn1   S    
C25   C27   A    
C29   H5    S    
C26   C28   A    
C30   H6    S    
C33   H17   S    
C25   C26   A    
C5    C10   A    
C3    O9    S    
O1    Zn1   S    
C16   C19   S    
C17   C19   A    
C18   C20   A    
C23   C25   A    
C12   H8    S    
C34   H20   S    
C24   C30   A    
C13   H9    S    
C14   H10   S    
O11   C33   S    
O6    Zn2   S    
C12   C13   A    
C8    C10   A    
C4    O10   S    
C3    C29   A    
C2    C9    S    
N1    Zn1   S    
C4    C30   A    
N2    Zn2   S    
C31   H13   S    
