data_mof_unit_pretest_316.cif
_audit_creation_date              2012-12-10T19:43:23-0500
_audit_creation_method            fapswitch 2.2
_symmetry_space_group_name_H-M    P1
_symmetry_Int_Tables_number       1
_space_group_crystal_system       triclinic
_cell_length_a                    10.992594
_cell_length_b                    10.808499
_cell_length_c                    9.729823
_cell_angle_alpha                 90.976742
_cell_angle_beta                  91.151617
_cell_angle_gamma                 98.307305
_cell_volume                      1143.44030009

loop_
_atom_site_label
_atom_site_type_symbol
_atom_type_description
_atom_site_fract_x
_atom_site_fract_y
_atom_site_fract_z
_atom_type_partial_charge
C1    C     C_R   0.479754 0.261928 0.497887 0.869931
C2    C     C_R   0.219985 0.588020 0.983731 -0.191967
C3    C     C_R   0.929415 0.478252 0.378593 -0.214859
C4    C     C_R   0.871086 0.489771 0.504216 -0.081947
C5    C     C_R   0.944415 0.497344 0.626200 0.063696
C6    C     C_R   0.068448 0.485952 0.618843 -0.266851
C7    C     C_R   0.128014 0.491361 0.494331 -0.047662
C8    C     C_R   0.057795 0.493903 0.371727 0.023030
C9    C     C_R   0.967843 0.663001 0.802294 -0.268161
C10   C     C_R   0.963575 0.703547 0.937644 -0.226736
C11   C     C_R   0.901048 0.625072 0.034303 0.433594
C12   C     C_R   0.262539 0.497156 0.498109 0.848926
C13   C     C_R   0.841146 0.506340 0.992700 -0.264005
C14   C     C_R   0.847660 0.463570 0.856262 0.500508
C15   C     C_R   0.909474 0.543884 0.760082 0.088253
C16   C     C_R   0.343936 0.109509 0.715451 0.380701
C17   C     C_R   0.350599 0.064400 0.848570 -0.341476
C18   C     C_R   0.418201 0.967177 0.872768 0.477189
C19   C     C_R   0.447287 0.893894 0.762336 -0.262049
C20   C     C_R   0.442483 0.937240 0.626417 -0.051079
C21   C     C_R   0.411160 0.058783 0.612110 -0.002692
C22   C     C_R   0.444249 0.124329 0.493097 -0.108412
C23   C     C_R   0.492891 0.737577 0.501737 0.839547
C24   C     C_R   0.446366 0.055041 0.371429 0.352616
C25   C     C_R   0.461382 0.928778 0.377427 -0.271940
C26   C     C_R   0.470540 0.870334 0.504872 -0.111171
C27   C     C_R   0.642867 0.689915 0.156351 -0.037765
C28   C     C_R   0.696928 0.797904 0.097935 -0.236583
C29   C     C_R   0.703893 0.803584 0.957961 -0.237075
C30   C     C_R   0.653693 0.701051 0.871952 0.515276
C31   C     C_R   0.573213 0.597237 0.930362 0.074245
C32   C     C_R   0.571077 0.594789 0.079364 0.051916
C33   C     C_R   0.428762 0.410957 0.071255 0.534294
C34   C     C_R   0.737485 0.497883 0.501658 0.811911
C35   C     C_R   0.430616 0.410692 0.923512 -0.175669
C36   C     C_R   0.238710 0.674588 0.092836 -0.218370
C37   C     C_R   0.185294 0.646092 0.220184 0.576197
C38   C     C_R   0.114352 0.527277 0.238177 0.106573
C39   C     C_R   0.096988 0.440814 0.128177 -0.189812
C40   C     C_R   0.150109 0.470975 0.001930 -0.161274
Cu1   Cu    Cu3+1 0.499990 0.499990 0.640660 1.018646
Cu2   Cu    Cu3+1 0.500010 0.500010 0.359340 1.018886
H1    H     H_    0.262180 0.610706 0.886076 0.170210
H2    H     H_    0.789668 0.446847 0.066028 0.147784
H3    H     H_    0.312122 0.109601 0.933604 0.126454
H4    H     H_    0.482445 0.811364 0.789867 0.193114
H5    H     H_    0.467485 0.877710 0.281683 0.212793
H6    H     H_    0.296785 0.763044 0.079585 0.178753
H7    H     H_    0.666257 0.681105 0.262081 0.208339
H8    H     H_    0.747201 0.871887 0.161887 0.135552
H9    H     H_    0.761395 0.884773 0.920346 0.127538
H10   H     H_    0.372675 0.338860 0.866509 0.154148
H11   H     H_    0.043694 0.349475 0.140813 0.125967
H12   H     H_    0.139245 0.401873 0.919519 0.114376
H13   H     H_    0.875516 0.466705 0.284464 0.200966
H14   H     H_    0.121743 0.488347 0.713313 0.159954
H15   H     H_    0.021027 0.723114 0.730388 0.162310
H16   H     H_    0.010729 0.795298 0.967605 0.125921
N1    N     N_R   0.501190 0.501210 0.147910 -0.207194
N2    N     N_R   0.501230 0.501290 0.852040 -0.190351
O1    O     O_R   0.499990 0.319640 0.618810 -0.551601
O2    O     O_R   0.500000 0.319660 0.381240 -0.504527
O3    O     O_R   0.319640 0.500000 0.618780 -0.597489
O4    O     O_R   0.319650 0.500020 0.381210 -0.544521
O5    O     O_R   0.500000 0.680340 0.618760 -0.559750
O6    O     O_R   0.500010 0.680360 0.381190 -0.606954
O7    O     O_R   0.680350 0.499980 0.618790 -0.486699
O8    O     O_R   0.680360 0.500000 0.381220 -0.618326
O9    O     O_3   0.896455 0.662971 0.169401 -0.782584
H17   H     H_    0.931878 0.752388 0.177802 0.302430
O10   O     O_3   0.789428 0.346403 0.814921 -0.556682
C41   C     C_3   0.857503 0.255217 0.865280 -0.390394
H18   H     H_    0.815577 0.162551 0.822982 0.185007
H19   H     H_    0.854604 0.250780 0.979298 0.151613
H20   H     H_    0.954247 0.271717 0.830538 0.159395
O11   O     O_3   0.422860 0.109099 0.249181 -0.692100
H21   H     H_    0.372133 0.044020 0.191542 0.351723
O12   O     O_3   0.270998 0.199133 0.682403 -0.751486
H22   H     H_    0.216237 0.209438 0.760327 0.295163
O13   O     O_3   0.467679 0.951218 0.001150 -0.614648
C42   C     C_3   0.569797 0.046505 0.021427 -0.261851
H23   H     H_    0.541248 0.141193 0.024734 0.210215
H24   H     H_    0.638671 0.043844 0.939745 0.141817
H25   H     H_    0.615488 0.033079 0.121474 0.190075
O14   O     O_3   0.350688 0.323216 0.140034 -0.666167
H26   H     H_    0.294863 0.273086 0.072435 0.282049
O15   O     O_3   0.694736 0.693269 0.738650 -0.532600
C43   C     C_3   0.746846 0.807415 0.679392 -0.352264
H27   H     H_    0.840905 0.839725 0.720669 0.160201
H28   H     H_    0.688156 0.881909 0.692440 0.152304
H29   H     H_    0.755439 0.791077 0.567369 0.161734
O16   O     O_3   0.219841 0.725117 0.331942 -0.599209
C44   C     C_3   0.142132 0.817442 0.339022 -0.387526
H30   H     H_    0.050457 0.776732 0.376458 0.188883
H31   H     H_    0.134491 0.865038 0.239202 0.147282
H32   H     H_    0.181986 0.889965 0.415691 0.212477

loop_
_geom_bond_atom_site_label_1
_geom_bond_atom_site_label_2
_ccdc_geom_bond_type
O15   C43   S    
C44   H30   S    
C14   O10   S    
C19   C20   A    
Cu1   O1    S    
C1    O2    A    
C42   H23   S    
C19   H4    S    
C7    C8    A    
Cu1   O7    S    
C39   H11   S    
O14   H26   S    
C16   C21   A    
C23   O6    A    
C28   C29   A    
C10   H16   S    
C37   C38   A    
C17   H3    S    
C5    C6    A    
C12   O4    A    
C18   C19   A    
Cu1   Cu2   S    
C23   C26   S    
C33   O14   S    
C44   H31   S    
C28   H8    S    
C16   C17   A    
C9    C10   A    
Cu2   O2    S    
C9    H15   S    
C43   H27   S    
C1    C22   S    
C33   N1    A    
C21   C22   A    
Cu2   O8    S    
C8    C38   S    
C41   H20   S    
C42   H24   S    
C7    C12   S    
C4    C34   S    
C38   C39   A    
O11   H21   S    
C41   H19   S    
C3    C8    A    
C34   O8    A    
C39   C40   A    
C12   O3    A    
O12   H22   S    
C41   H18   S    
Cu1   O5    S    
C25   C26   A    
C35   N2    A    
C31   N2    A    
Cu2   N1    S    
C29   C30   A    
C31   C32   A    
C43   H29   S    
C2    H1    S    
C17   C18   A    
C24   C25   A    
C43   H28   S    
C44   H32   S    
C40   H12   S    
C22   C24   A    
Cu1   O3    S    
C3    C4    A    
Cu2   O4    S    
C35   H10   S    
C42   H25   S    
C29   H9    S    
C2    C36   A    
C25   H5    S    
C36   C37   A    
C37   O16   S    
C27   C32   A    
C24   O11   S    
Cu1   N2    S    
C6    H14   S    
O13   C42   S    
C1    O1    A    
C34   O7    A    
C11   O9    S    
C6    C7    A    
C3    H13   S    
C23   O5    A    
C9    C15   A    
O10   C41   S    
C11   C13   A    
C30   C31   A    
C20   C26   A    
O16   C44   S    
C33   C35   A    
C36   H6    S    
C16   O12   S    
O9    H17   S    
C5    C15   S    
C10   C11   A    
C2    C40   A    
C4    C5    A    
C20   C21   A    
C18   O13   S    
C27   C28   A    
Cu2   O6    S    
C14   C15   A    
C32   N1    A    
C30   O15   S    
C13   C14   A    
C13   H2    S    
C27   H7    S    
