data_mof_unit_pretest_1907.cif
_audit_creation_date              2012-12-10T21:34:47-0500
_audit_creation_method            fapswitch 2.2
_symmetry_space_group_name_H-M    P1
_symmetry_Int_Tables_number       1
_space_group_crystal_system       triclinic
_cell_length_a                    10.642937
_cell_length_b                    16.097021
_cell_length_c                    16.852472
_cell_angle_alpha                 87.908478
_cell_angle_beta                  90.129564
_cell_angle_gamma                 92.490483
_cell_volume                      2882.50912156

loop_
_atom_site_label
_atom_site_type_symbol
_atom_type_description
_atom_site_fract_x
_atom_site_fract_y
_atom_site_fract_z
_atom_type_partial_charge
C1    C     C_R   0.502648 0.489038 0.652924 0.877644
C2    C     C_3   0.121300 0.499460 0.499961 0.126610
C3    C     C_3   0.075359 0.556155 0.430485 -0.417908
C4    C     C_3   0.076405 0.532171 0.579899 -0.454522
C5    C     C_R   0.523026 0.482644 0.738003 -0.037217
C6    C     C_R   0.562365 0.554074 0.777849 -0.209296
C7    C     C_R   0.586794 0.548964 0.858279 -0.162588
C8    C     C_R   0.570400 0.472078 0.900378 0.325220
C9    C     C_R   0.535722 0.400359 0.860084 -0.193808
C10   C     C_R   0.511866 0.405385 0.779041 -0.230308
C11   C     C_R   0.574430 0.450084 0.141415 -0.167332
C12   C     C_R   0.742552 0.499783 0.500253 0.876219
C13   C     C_R   0.549960 0.445252 0.221828 -0.238929
C14   C     C_R   0.571099 0.527243 0.099421 0.328215
C15   C     C_R   0.523545 0.517170 0.261874 -0.032603
C16   C     C_R   0.524508 0.594529 0.220884 -0.224726
C17   C     C_R   0.548310 0.599294 0.139798 -0.194043
C18   C     C_R   0.437014 0.762431 0.463152 -0.020348
C19   C     C_R   0.440714 0.849692 0.465184 -0.273799
C20   C     C_R   0.526592 0.891101 0.515924 0.330889
C21   C     C_R   0.605961 0.842304 0.563043 -0.305433
C22   C     C_R   0.599066 0.755243 0.559178 -0.000996
C23   C     C_R   0.503731 0.510945 0.347052 0.861102
C24   C     C_R   0.560635 0.150383 0.533984 -0.275489
C25   C     C_R   0.564297 0.237648 0.535985 -0.019124
C26   C     C_R   0.473442 0.108871 0.484170 0.330998
C27   C     C_R   0.399633 0.244632 0.441744 -0.005933
C28   C     C_R   0.392792 0.157569 0.437901 -0.304493
C29   C     C_R   0.257481 0.499958 0.499567 0.861403
C30   C     C_3   0.922419 0.409445 0.490945 -0.475979
C31   C     C_3   0.065233 0.409540 0.490126 -0.398280
C32   C     C_3   0.931172 0.554030 0.429101 -0.415950
C33   C     C_3   0.931489 0.531779 0.580869 0.292044
C34   C     C_3   0.878838 0.499520 0.500442 0.093479
H1    H     H_    0.885352 0.383647 0.434633 0.200930
H2    H     H_    0.117428 0.595963 0.588817 0.195567
H3    H     H_    0.898025 0.618536 0.430220 0.180976
H4    H     H_    0.111716 0.621412 0.437323 0.177438
H5    H     H_    0.552450 0.385040 0.252556 0.166384
H6    H     H_    0.593352 0.393155 0.112174 0.148613
H7    H     H_    0.523224 0.341028 0.892147 0.138710
H8    H     H_    0.483555 0.349328 0.748836 0.161645
H9    H     H_    0.505923 0.650905 0.251189 0.159348
H10   H     H_    0.615730 0.605460 0.887535 0.149709
H11   H     H_    0.545545 0.658802 0.107829 0.138938
H12   H     H_    0.886294 0.367759 0.540791 0.173707
H13   H     H_    0.574850 0.614078 0.746967 0.168195
H14   H     H_    0.631076 0.269250 0.574267 0.127727
H15   H     H_    0.625304 0.116238 0.571024 0.152673
H16   H     H_    0.673104 0.871675 0.602706 0.148806
H17   H     H_    0.660670 0.718205 0.595743 0.164219
H18   H     H_    0.336920 0.281588 0.405912 0.127146
H19   H     H_    0.377140 0.883917 0.427413 0.151884
H20   H     H_    0.324634 0.128112 0.398952 0.143950
H21   H     H_    0.371255 0.730909 0.424157 0.125966
H22   H     H_    0.097415 0.367354 0.539235 0.184687
H23   H     H_    0.097127 0.384600 0.433105 0.182677
H24   H     H_    0.896766 0.527774 0.372400 0.170574
H25   H     H_    0.111092 0.534859 0.372941 0.164797
H26   H     H_    0.897440 0.487706 0.629407 0.118820
H27   H     H_    0.109939 0.491864 0.630012 0.138390
N1    N     N_2   0.576833 0.465513 0.983788 -0.209084
N2    N     N_2   0.579245 0.533928 0.016029 -0.207778
N3    N     N_R   0.515460 0.716920 0.509720 -0.090291
N4    N     N_2   0.536912 0.980014 0.521692 -0.189195
N5    N     N_2   0.463137 0.019958 0.478426 -0.189842
N6    N     N_R   0.484530 0.283060 0.490290 -0.086997
O1    O     O_R   0.494470 0.422540 0.612660 -0.626131
O2    O     O_R   0.504400 0.561840 0.618900 -0.616176
O3    O     O_R   0.680240 0.430340 0.496890 -0.643570
O4    O     O_R   0.690170 0.569650 0.503130 -0.588509
O5    O     O_R   0.495600 0.438160 0.381100 -0.624878
O6    O     O_R   0.505530 0.577460 0.387340 -0.627028
O7    O     O_R   0.309830 0.430350 0.496870 -0.631258
O8    O     O_R   0.319760 0.569660 0.503110 -0.629733
Zn1   Zn    Zn3+2 0.493370 0.406980 0.495830 0.931342
Zn2   Zn    Zn3+2 0.506630 0.593020 0.504170 0.952372
O9    O     O_3   0.888588 0.610631 0.598532 -0.770856
H28   H     H_    0.926053 0.652219 0.559616 0.340417

loop_
_geom_bond_atom_site_label_1
_geom_bond_atom_site_label_2
_ccdc_geom_bond_type
C4    H2    S    
C10   H8    S    
N3    Zn2   S    
O2    Zn2   S    
C19   C20   A    
C25   N6    A    
C32   H24   S    
O5    Zn1   S    
C7    C8    A    
O7    Zn1   S    
C30   H1    S    
C2    C29   S    
C1    C5    S    
C24   C26   A    
C5    C6    A    
C11   C14   A    
C33   O9    S    
C15   C16   A    
C1    O1    A    
C18   C19   A    
C3    H4    S    
C8    C9    A    
C31   H22   S    
C9    C10   A    
C19   H19   S    
C15   C23   S    
C21   C22   A    
C14   C17   A    
C3    C32   S    
C23   O6    A    
C21   H16   S    
C6    H13   S    
C30   C34   S    
C26   N5    S    
C20   N4    S    
C24   C25   A    
C28   H20   S    
O9    H28   S    
C16   C17   A    
C29   O7    A    
C32   H3    S    
C4    H27   S    
C1    O2    A    
C2    C31   S    
C32   C34   S    
C2    C4    S    
N1    N2    D    
C25   H14   S    
C33   C34   S    
C7    H10   S    
O8    Zn2   S    
C16   H9    S    
C18   H21   S    
C12   O4    A    
C33   H26   S    
C13   C15   A    
O3    Zn1   S    
C12   C34   S    
O4    Zn2   S    
C27   H18   S    
C24   H15   S    
C12   O3    A    
C4    C33   S    
C9    H7    S    
C23   O5    A    
C30   H12   S    
C17   H11   S    
C6    C7    A    
C29   O8    A    
O1    Zn1   S    
C26   C28   A    
C31   H23   S    
C2    C3    S    
C5    C10   A    
C11   C13   A    
C18   N3    A    
C30   C31   S    
C14   N2    S    
C11   H6    S    
C13   H5    S    
C27   N6    A    
C22   N3    A    
C20   C21   A    
N4    N5    D    
C27   C28   A    
O6    Zn2   S    
N6    Zn1   S    
C8    N1    S    
C22   H17   S    
C3    H25   S    
