data_mof_unit_pretest_161.cif
_audit_creation_date              2012-12-11T14:58:21-0500
_audit_creation_method            fapswitch 2.2
_symmetry_space_group_name_H-M    P1
_symmetry_Int_Tables_number       1
_space_group_crystal_system       triclinic
_cell_length_a                    10.878278
_cell_length_b                    10.945945
_cell_length_c                    18.787695
_cell_angle_alpha                 90.28292
_cell_angle_beta                  90.783555
_cell_angle_gamma                 60.099362
_cell_volume                      1939.14317596

loop_
_atom_site_label
_atom_site_type_symbol
_atom_type_description
_atom_site_fract_x
_atom_site_fract_y
_atom_site_fract_z
_atom_type_partial_charge
C1    C     C_R   0.359612 0.769999 0.396280 0.534732
C2    C     C_R   0.614455 0.129207 0.165603 0.053193
C3    C     C_R   0.356197 0.330623 0.163541 -0.005265
C4    C     C_R   0.481892 0.243153 0.274285 -0.149798
C5    C     C_R   0.482815 0.238572 0.200814 -0.031144
C6    C     C_R   0.043932 0.690992 0.287709 -0.101415
C7    C     C_R   0.931017 0.797873 0.325058 -0.110298
C8    C     C_R   0.679377 0.987501 0.187812 -0.103147
C9    C     C_R   0.793928 0.882468 0.150515 -0.124789
C10   C     C_R   0.238192 0.433797 0.200797 -0.154269
C11   C     C_R   0.237308 0.438586 0.274896 -0.040747
C12   C     C_R   0.385218 0.354247 0.387781 0.524859
C13   C     C_R   0.880194 0.765480 0.385688 -0.099801
C14   C     C_R   0.940648 0.625757 0.408319 -0.084417
C15   C     C_R   0.050473 0.517730 0.369762 -0.057425
C16   C     C_R   0.107589 0.549865 0.310707 0.044078
C17   C     C_R   0.361557 0.340380 0.312193 -0.003278
C18   C     C_R   0.863597 0.228288 0.296844 -0.144942
C19   C     C_R   0.885205 0.215586 0.224215 -0.131936
C20   C     C_R   0.861073 0.333696 0.183841 0.026706
C21   C     C_R   0.811370 0.464730 0.215883 -0.138479
C22   C     C_R   0.791247 0.476970 0.288054 -0.126052
C23   C     C_R   0.774071 0.381482 0.402015 0.544786
C24   C     C_R   0.818779 0.358579 0.329063 0.027957
C25   C     C_R   0.347486 0.708761 0.272960 -0.122768
C26   C     C_R   0.344127 0.732250 0.200537 -0.147125
C27   C     C_R   0.357090 0.845227 0.176198 0.031519
C28   C     C_R   0.381449 0.929838 0.224424 -0.132886
C29   C     C_R   0.383628 0.906595 0.297390 -0.153485
C30   C     C_R   0.359323 0.800117 0.321448 0.038779
C31   C     C_R   0.461187 0.290449 0.717678 -0.113856
C32   C     C_R   0.442237 0.287348 0.789611 -0.134818
C33   C     C_R   0.307097 0.330834 0.815114 0.024059
C34   C     C_R   0.341149 0.772796 0.603909 0.550751
C35   C     C_R   0.189150 0.384273 0.768645 -0.119541
C36   C     C_R   0.208433 0.388003 0.695862 -0.095167
C37   C     C_R   0.345182 0.338521 0.670458 0.040523
C38   C     C_R   0.712131 0.483657 0.734601 -0.109102
C39   C     C_R   0.722708 0.469715 0.808471 -0.014427
C40   C     C_R   0.801410 0.333557 0.838317 0.026392
C41   C     C_R   0.844373 0.215402 0.794437 -0.146745
C42   C     C_R   0.831093 0.230635 0.720887 -0.145055
C43   C     C_R   0.771895 0.364177 0.690582 -0.009142
C44   C     C_R   0.175079 0.861103 0.708964 0.231137
C45   C     C_R   0.371771 0.351006 0.596735 0.533089
C46   C     C_R   0.162370 0.892277 0.780777 -0.133298
C47   C     C_R   0.255647 0.924896 0.815358 -0.028374
C48   C     C_R   0.363593 0.929207 0.777120 -0.160021
C49   C     C_R   0.386836 0.886031 0.706640 -0.193924
C50   C     C_R   0.297281 0.846334 0.672330 0.006431
C51   C     C_R   0.912049 0.314624 0.112085 0.544180
C52   C     C_R   0.329299 0.294591 0.092295 0.537258
C53   C     C_R   0.309883 0.897135 0.104778 0.552115
C54   C     C_R   0.875071 0.312167 0.906905 0.527287
C55   C     C_R   0.295333 0.290280 0.886157 0.535304
C56   C     C_R   0.750176 0.384354 0.613863 0.547253
C57   C     C_R   0.238106 0.957422 0.891031 0.567867
C58   C     C_R   0.844752 0.917352 0.090690 -0.107291
C59   C     C_R   0.781653 0.057497 0.068376 -0.084756
C60   C     C_R   0.669472 0.163687 0.106551 -0.063137
Cr1   Cr    Cr6+3 0.601770 0.606860 0.505860 1.010954
Cr2   Cr    Cr6+3 0.291380 0.601660 0.495070 1.099772
Cr3   Cr    Cr6+3 0.606880 0.291510 0.499120 1.051232
Cr4   Cr    Cr6+3 0.062440 0.063090 0.008210 0.980113
Cr5   Cr    Cr6+3 0.062880 0.375170 0.998920 1.003407
Cr6   Cr    Cr6+3 0.374700 0.061720 0.992470 1.017540
H1    H     H_    0.580130 0.171941 0.301805 0.141458
H2    H     H_    0.794446 0.848681 0.415317 0.121404
H3    H     H_    0.903392 0.601444 0.456318 0.147978
H4    H     H_    0.095316 0.409857 0.387867 0.101925
H5    H     H_    0.881243 0.137412 0.327630 0.123536
H6    H     H_    0.925449 0.112526 0.200333 0.151865
H7    H     H_    0.791925 0.556856 0.185618 0.129579
H8    H     H_    0.750222 0.580759 0.311189 0.151464
H9    H     H_    0.338611 0.620341 0.291571 0.139109
H10   H     H_    0.324687 0.666896 0.163803 0.112614
H11   H     H_    0.387741 0.020063 0.205884 0.136247
H12   H     H_    0.841758 0.773609 0.167305 0.110087
H13   H     H_    0.398194 0.974357 0.334625 0.112288
H14   H     H_    0.567117 0.255550 0.698871 0.162767
H15   H     H_    0.533835 0.245210 0.825059 0.134857
H16   H     H_    0.084292 0.415120 0.788077 0.140483
H17   H     H_    0.118337 0.426804 0.659646 0.149088
H18   H     H_    0.654648 0.588364 0.711505 0.145273
H19   H     H_    0.897537 0.110821 0.816842 0.154366
H20   H     H_    0.869649 0.139014 0.687435 0.220858
H21   H     H_    0.884435 0.906190 0.307606 0.106378
H22   H     H_    0.079408 0.889538 0.810430 0.153639
H23   H     H_    0.434821 0.958772 0.802621 0.163162
H24   H     H_    0.477407 0.879437 0.679735 0.150917
H25   H     H_    0.932237 0.835682 0.061272 0.110131
H26   H     H_    0.819009 0.083691 0.021048 0.144180
H27   H     H_    0.621589 0.271835 0.088406 0.095463
H28   H     H_    0.083603 0.719230 0.241820 0.105830
H29   H     H_    0.639345 0.957486 0.232932 0.100093
H30   H     H_    0.141245 0.505165 0.172345 0.137587
O1    O     O_R   0.748800 0.497470 0.428000 -0.542940
O2    O     O_R   0.300070 0.471040 0.567100 -0.465326
O3    O     O_R   0.491670 0.258900 0.574910 -0.516115
O4    O     O_R   0.718780 0.304180 0.577850 -0.483112
O5    O     O_3   0.500010 0.500010 0.500020 -0.269973
O6    O     O_R   0.186690 0.923650 0.086970 -0.517459
O7    O     O_R   0.957250 0.194250 0.084630 -0.517270
O8    O     O_R   0.934970 0.407490 0.085330 -0.524369
O9    O     O_R   0.203780 0.365190 0.067090 -0.506883
O10   O     O_R   0.417600 0.174890 0.067840 -0.505165
O11   O     O_R   0.375320 0.946260 0.070860 -0.494611
O12   O     O_R   0.476420 0.724060 0.429470 -0.507540
O13   O     O_R   0.160600 0.919630 0.926660 -0.528302
O14   O     O_R   0.933060 0.190520 0.936020 -0.542130
O15   O     O_R   0.908880 0.403460 0.925020 -0.513184
O16   O     O_R   0.179600 0.361450 0.918490 -0.502523
O17   O     O_R   0.391510 0.170860 0.907530 -0.533924
O18   O     O_R   0.351130 0.942530 0.922260 -0.506484
O19   O     O_3   0.166667 0.166667 0.999870 -0.258808
O20   O     O_R   0.264580 0.744340 0.416750 -0.503801
O21   O     O_R   0.309380 0.472470 0.418200 -0.500765
O22   O     O_R   0.501710 0.260430 0.414300 -0.531285
O23   O     O_R   0.728090 0.305600 0.428960 -0.495870
O24   O     O_R   0.738760 0.495930 0.588610 -0.519607
O25   O     O_R   0.467110 0.722640 0.578360 -0.522747
O26   O     O_R   0.254530 0.742800 0.577360 -0.416026
C61   C     C_3   0.648971 0.601069 0.853078 -0.370236
H31   H     H_    0.535800 0.661863 0.836586 0.143584
H32   H     H_    0.650859 0.577215 0.910531 0.151077
H33   H     H_    0.698937 0.667042 0.845290 0.141610
S1    S     S_3+6 0.034482 0.840624 0.671099 -0.012496
O27   O     O_2   0.982488 0.922892 0.602800 -0.260568
O28   O     O_2   0.086694 0.688001 0.655668 -0.284356
O29   O     O_3   0.896519 0.898665 0.726828 -0.572768
H34   H     H_    0.916107 0.816158 0.756496 0.344589

loop_
_geom_bond_atom_site_label_1
_geom_bond_atom_site_label_2
_ccdc_geom_bond_type
C33   C55   S    
Cr4   O7    S    
C44   S1    S    
Cr6   O17   S    
C55   O16   A    
C56   O24   A    
C41   C42   A    
C35   C36   A    
C49   H24   S    
Cr3   O5    S    
C61   H31   S    
Cr4   O6    S    
C32   H15   S    
C26   C27   A    
Cr3   O4    S    
C18   C24   A    
C28   C29   A    
C18   C19   A    
C20   C51   S    
C45   O2    A    
C23   O23   A    
C38   C39   A    
C2    C60   A    
C61   H32   S    
C36   H17   S    
C51   O7    A    
C15   C16   A    
C21   H7    S    
C18   H5    S    
C39   C61   S    
C54   O14   A    
Cr1   O25   S    
C9    C58   A    
Cr1   O12   S    
Cr5   O15   S    
Cr2   O21   S    
Cr3   O3    S    
Cr2   O2    S    
C57   O13   A    
C47   C48   A    
C8    C9    A    
C6    H28   S    
C12   C17   S    
C26   H10   S    
C23   C24   S    
C42   H20   S    
C1    O20   A    
C58   H25   S    
Cr6   O11   S    
C59   H26   S    
Cr2   O5    S    
C60   H27   S    
C52   O10   A    
C59   C60   A    
C34   O26   A    
Cr4   O19   S    
C21   C22   A    
Cr1   O24   S    
Cr5   O19   S    
C19   H6    S    
C8    H29   S    
Cr6   O10   S    
Cr5   O9    S    
C35   H16   S    
C44   C46   A    
C46   H22   S    
Cr1   O1    S    
C34   C50   S    
Cr6   O19   S    
C31   H14   S    
C45   O3    A    
C39   C40   A    
Cr3   O22   S    
C61   H33   S    
C55   O17   A    
C51   O8    A    
C31   C37   A    
C25   H9    S    
Cr1   O5    S    
S1    O28   D    
Cr5   O16   S    
Cr2   O20   S    
C29   C30   A    
C47   C57   S    
Cr3   O23   S    
C11   C16   S    
C53   O11   A    
Cr4   O14   S    
C31   C32   A    
C29   H13   S    
C10   H30   S    
C53   O6    A    
C28   H11   S    
C57   O18   A    
C12   O22   A    
C4    C17   A    
C40   C41   A    
C23   O1    A    
C52   O9    A    
C34   O25   A    
C40   C54   S    
C48   H23   S    
C14   H3    S    
C22   C24   A    
C58   C59   A    
C2    C5    S    
C42   C43   A    
C22   H8    S    
C37   C45   S    
S1    O27   D    
Cr2   O26   S    
C44   C50   A    
C25   C30   A    
C15   H4    S    
C46   C47   A    
C11   C17   A    
Cr6   O18   S    
C38   H18   S    
C2    C8    A    
C4    C5    A    
C3    C5    A    
C4    H1    S    
C3    C52   S    
C27   C53   S    
C6    C7    A    
C41   H19   S    
C32   C33   A    
C19   C20   A    
O29   H34   S    
C25   C26   A    
S1    O29   S    
C38   C43   A    
C3    C10   A    
Cr4   O13   S    
C48   C49   A    
C1    C30   S    
C33   C35   A    
C54   O15   A    
C9    H12   S    
C10   C11   A    
C1    O12   A    
C6    C16   A    
C12   O21   A    
C43   C56   S    
C7    C13   A    
C7    H21   S    
C20   C21   A    
C36   C37   A    
C49   C50   A    
C27   C28   A    
C56   O4    A    
C14   C15   A    
Cr5   O8    S    
C13   C14   A    
C13   H2    S    
