data_mof_unit_pretest_1529.cif
_audit_creation_date              2012-12-10T19:42:53-0500
_audit_creation_method            fapswitch 2.2
_symmetry_space_group_name_H-M    P1
_symmetry_Int_Tables_number       1
_space_group_crystal_system       triclinic
_cell_length_a                    30.875409
_cell_length_b                    30.320281
_cell_length_c                    22.128271
_cell_angle_alpha                 89.739148
_cell_angle_beta                  46.426232
_cell_angle_gamma                 89.95531
_cell_volume                      15007.8171005

loop_
_atom_site_label
_atom_site_type_symbol
_atom_type_description
_atom_site_fract_x
_atom_site_fract_y
_atom_site_fract_z
_atom_type_partial_charge
C1    C     C_R   0.190910 0.189645 0.498755 0.976016
C2    C     C_R   0.809464 0.189876 0.500466 1.004080
C3    C     C_R   0.690912 0.689644 0.498752 0.975972
C4    C     C_R   0.309465 0.689875 0.500463 1.003996
C5    C     C_R   0.096959 0.156050 0.558949 -0.160279
C6    C     C_R   0.839552 0.153339 0.563506 -0.162078
C7    C     C_R   0.596955 0.656077 0.558903 -0.160226
C8    C     C_R   0.339626 0.653379 0.563442 -0.161964
C9    C     C_R   0.159040 0.155350 0.499423 -0.184791
C10   C     C_R   0.843580 0.157039 0.497267 -0.177799
C11   C     C_R   0.659037 0.655349 0.499426 -0.184876
C12   C     C_R   0.343579 0.657034 0.497266 -0.177790
C13   C     C_R   0.189498 0.117991 0.448251 0.393658
C14   C     C_R   0.883755 0.130880 0.425900 0.391048
C15   C     C_R   0.689484 0.617968 0.448313 0.393671
C16   C     C_R   0.383654 0.630806 0.425972 0.391010
C17   C     C_R   0.157325 0.086679 0.445264 0.373586
C18   C     C_R   0.913931 0.096794 0.426897 0.409413
C19   C     C_R   0.657311 0.586658 0.445321 0.373611
C20   C     C_R   0.413831 0.596724 0.426976 0.409496
C21   C     C_R   0.094691 0.090685 0.501254 -0.192466
C22   C     C_R   0.905963 0.091407 0.497617 -0.208562
C23   C     C_R   0.594683 0.590691 0.501255 -0.192413
C24   C     C_R   0.405949 0.591395 0.497630 -0.208447
C25   C     C_R   0.065199 0.123661 0.561178 -0.118587
C26   C     C_R   0.869328 0.120320 0.564366 -0.136026
C27   C     C_R   0.565191 0.623692 0.561132 -0.118639
C28   C     C_R   0.369389 0.620354 0.564315 -0.136065
C29   C     C_3   0.016894 0.154818 0.588496 0.367218
C30   C     C_3   0.818222 0.111495 0.655717 0.419031
C31   C     C_3   0.516922 0.654865 0.588363 0.367113
C32   C     C_3   0.318317 0.611586 0.655696 0.418933
C33   C     C_3   0.052599 0.191127 0.586042 0.393902
C34   C     C_3   0.785621 0.149176 0.655017 0.353183
C35   C     C_3   0.552631 0.691170 0.585911 0.393724
C36   C     C_3   0.285736 0.649278 0.654981 0.353131
C37   C     C_R   0.010501 0.226692 0.044719 -0.183539
C38   C     C_R   0.990042 0.271551 0.955453 -0.186472
C39   C     C_R   0.506510 0.721660 0.044671 -0.183046
C40   C     C_R   0.494156 0.776827 0.955498 -0.185925
C41   C     C_R   0.956777 0.249172 0.086815 0.174476
C42   C     C_R   0.043795 0.249115 0.913324 0.169183
C43   C     C_R   0.456822 0.749277 0.086814 0.173919
C44   C     C_R   0.543858 0.749228 0.913323 0.168610
C45   C     C_R   0.330378 0.250144 0.338881 0.920663
C46   C     C_R   0.669442 0.250130 0.661082 0.917037
C47   C     C_R   0.830379 0.750143 0.338880 0.920634
C48   C     C_R   0.169442 0.750130 0.661082 0.917116
C49   C     C_R   0.946457 0.271584 0.042356 -0.183860
C50   C     C_R   0.054109 0.226669 0.957781 -0.180472
C51   C     C_R   0.450561 0.776855 0.042400 -0.184435
C52   C     C_R   0.550123 0.721635 0.957734 -0.181210
C53   C     C_1   0.912240 0.249367 0.175709 -0.081880
C54   C     C_1   0.088372 0.249209 0.824400 -0.077324
C55   C     C_1   0.412257 0.749417 0.175708 -0.081845
C56   C     C_1   0.588408 0.749268 0.824400 -0.077414
C57   C     C_1   0.125625 0.249430 0.749717 -0.185249
C58   C     C_1   0.874817 0.249615 0.250365 -0.185447
C59   C     C_1   0.625642 0.749453 0.749716 -0.185268
C60   C     C_1   0.374818 0.749631 0.250364 -0.185377
C61   C     C_R   0.316359 0.382802 0.540290 0.043010
C62   C     C_R   0.680913 0.385192 0.469361 0.047972
C63   C     C_R   0.816388 0.882827 0.540188 0.043188
C64   C     C_R   0.180885 0.885205 0.469441 0.048257
C65   C     C_R   0.344195 0.344248 0.494682 -0.060169
C66   C     C_R   0.655113 0.344240 0.506331 -0.063366
C67   C     C_R   0.844204 0.844248 0.494667 -0.060276
C68   C     C_R   0.155108 0.844240 0.506337 -0.063437
C69   C     C_R   0.406282 0.339716 0.441292 -0.220726
C70   C     C_R   0.594379 0.337136 0.552100 -0.218928
C71   C     C_R   0.906280 0.839687 0.441358 -0.220641
C72   C     C_R   0.094390 0.837120 0.552040 -0.218821
C73   C     C_R   0.438552 0.371713 0.441491 -0.218358
C74   C     C_R   0.562327 0.369243 0.551692 -0.231726
C75   C     C_R   0.938549 0.871683 0.441563 -0.218355
C76   C     C_R   0.062340 0.869227 0.551629 -0.231678
C77   C     C_R   0.408084 0.406836 0.497884 -0.084875
C78   C     C_R   0.591802 0.407436 0.503205 -0.062260
C79   C     C_R   0.908086 0.906835 0.497885 -0.084869
C80   C     C_R   0.091801 0.907437 0.503206 -0.062263
C81   C     C_R   0.347579 0.412636 0.544440 -0.026305
C82   C     C_R   0.649837 0.416173 0.466580 -0.011164
C83   C     C_R   0.847601 0.912663 0.544348 -0.026228
C84   C     C_R   0.149810 0.916189 0.466660 -0.011220
C85   C     C_3   0.293868 0.422344 0.634696 0.410635
C86   C     C_3   0.705207 0.431062 0.380640 0.409984
C87   C     C_3   0.793859 0.922423 0.634563 0.410417
C88   C     C_3   0.205191 0.931116 0.380770 0.409924
C89   C     C_R   0.309882 0.310346 0.499744 0.876514
C90   C     C_R   0.689967 0.310365 0.500459 0.872842
C91   C     C_R   0.809885 0.810346 0.499739 0.876563
C92   C     C_R   0.189967 0.810365 0.500459 0.872853
C93   C     C_3   0.258964 0.389854 0.628951 -0.563503
C94   C     C_3   0.739725 0.396585 0.384361 -0.596247
C95   C     C_3   0.758963 0.889932 0.628803 -0.563721
C96   C     C_3   0.239707 0.896636 0.384488 -0.596679
C97   C     C_R   0.559744 0.439650 0.500499 0.886048
C98   C     C_R   0.440437 0.439255 0.499812 0.854255
C99   C     C_R   0.059745 0.939651 0.500499 0.886054
C100  C     C_R   0.940437 0.939255 0.499813 0.854317
C101  C     C_R   0.060268 0.059976 0.500170 1.009165
C102  C     C_R   0.938777 0.058899 0.499424 0.969352
C103  C     C_R   0.560264 0.559979 0.500170 1.009185
C104  C     C_R   0.438775 0.558897 0.499426 0.969353
C105  C     C_R   0.169606 0.249832 0.661132 0.894765
C106  C     C_R   0.830499 0.249922 0.338906 0.910477
C107  C     C_R   0.669606 0.749832 0.661132 0.894791
C108  C     C_R   0.330500 0.749923 0.338905 0.910282
C109  C     C_R   0.535155 0.213279 0.957184 -0.195041
C110  C     C_R   0.491574 0.213240 0.044099 -0.178987
C111  C     C_R   0.034601 0.713062 0.957168 -0.195015
C112  C     C_R   0.991018 0.713021 0.044083 -0.178882
C113  C     C_R   0.542922 0.250635 0.913185 0.175379
C114  C     C_R   0.455923 0.250551 0.086681 0.167997
C115  C     C_R   0.042928 0.750638 0.913184 0.175257
C116  C     C_R   0.955927 0.750552 0.086680 0.167953
C117  C     C_R   0.507260 0.287938 0.955753 -0.180681
C118  C     C_R   0.463677 0.287897 0.042674 -0.184892
C119  C     C_R   0.007828 0.788162 0.955766 -0.180579
C120  C     C_R   0.964245 0.788120 0.042687 -0.184868
C121  C     C_1   0.587506 0.250664 0.824289 -0.089481
C122  C     C_1   0.411486 0.250542 0.175607 -0.071200
C123  C     C_1   0.087509 0.750666 0.824288 -0.089460
C124  C     C_1   0.911489 0.750541 0.175606 -0.071117
C125  C     C_1   0.374300 0.250439 0.250292 -0.169445
C126  C     C_1   0.624990 0.250525 0.749625 -0.187517
C127  C     C_1   0.874301 0.750438 0.250291 -0.169382
C128  C     C_1   0.124991 0.750526 0.749625 -0.187421
H1    H     H_    0.429268 0.311178 0.401403 0.156049
H2    H     H_    0.572479 0.306513 0.585702 0.161786
H3    H     H_    0.929257 0.811128 0.401530 0.156135
H4    H     H_    0.072503 0.806485 0.585591 0.161876
H5    H     H_    0.486350 0.367831 0.401307 0.153510
H6    H     H_    0.515857 0.363288 0.585113 0.147483
H7    H     H_    0.986337 0.867780 0.401443 0.153509
H8    H     H_    0.015884 0.863259 0.584995 0.147506
H9    H     H_    0.278565 0.456882 0.642846 0.105788
H10   H     H_    0.717525 0.465254 0.381828 0.131679
H11   H     H_    0.778600 0.956966 0.642615 0.105869
H12   H     H_    0.217469 0.965306 0.382037 0.131637
H13   H     H_    0.225048 0.406328 0.632602 0.182101
H14   H     H_    0.770692 0.411756 0.387878 0.183548
H15   H     H_    0.725098 0.906410 0.632348 0.181967
H16   H     H_    0.270636 0.911804 0.388080 0.183501
H17   H     H_    0.513176 0.316915 0.921825 0.140392
H18   H     H_    0.436146 0.316850 0.075486 0.141942
H19   H     H_    0.014180 0.817311 0.921849 0.140459
H20   H     H_    0.937150 0.817244 0.075509 0.141954
H21   H     H_    0.973488 0.146205 0.652243 0.002489
H22   H     H_    0.830311 0.119070 0.691912 -0.027308
H23   H     H_    0.473493 0.646276 0.652105 0.002580
H24   H     H_    0.330465 0.619172 0.691815 -0.027209
H25   H     H_    0.095703 0.209267 0.925311 0.140468
H26   H     H_    0.904890 0.289030 0.074813 0.135374
H27   H     H_    0.588574 0.700222 0.925232 0.140747
H28   H     H_    0.412128 0.798290 0.074889 0.135934
O1    O     O_R   0.178350 0.230070 0.500010 -0.598370
O2    O     O_R   0.821650 0.230070 0.499990 -0.655126
O3    O     O_R   0.678350 0.730070 0.500010 -0.598359
O4    O     O_R   0.321650 0.730070 0.499990 -0.655063
O5    O     O_R   0.511410 0.454120 0.568820 -0.638700
O6    O     O_R   0.488590 0.454120 0.431180 -0.631645
O7    O     O_R   0.011410 0.954120 0.568820 -0.638693
O8    O     O_R   0.988590 0.954120 0.431180 -0.631674
O9    O     O_R   0.080260 0.045800 0.431140 -0.596489
O10   O     O_R   0.919740 0.045800 0.568860 -0.621603
O11   O     O_R   0.580260 0.545800 0.431140 -0.596510
O12   O     O_R   0.419740 0.545800 0.568860 -0.621622
O13   O     O_R   0.011410 0.045760 0.568860 -0.647119
O14   O     O_R   0.988590 0.045760 0.431140 -0.585475
O15   O     O_R   0.511410 0.545760 0.568860 -0.647154
O16   O     O_R   0.488590 0.545760 0.431140 -0.585476
O17   O     O_R   0.230030 0.178320 0.500020 -0.612652
O18   O     O_R   0.769970 0.178320 0.499980 -0.573492
O19   O     O_R   0.730030 0.678320 0.500020 -0.612653
O20   O     O_R   0.269970 0.678320 0.499980 -0.573457
O21   O     O_R   0.285150 0.275890 0.378020 -0.617125
O22   O     O_R   0.714850 0.275890 0.621980 -0.622965
O23   O     O_R   0.785150 0.775890 0.378020 -0.617086
O24   O     O_R   0.214850 0.775890 0.621980 -0.622981
O25   O     O_R   0.336840 0.224130 0.378040 -0.611900
O26   O     O_R   0.663160 0.224130 0.621960 -0.612521
O27   O     O_R   0.836840 0.724130 0.378040 -0.611868
O28   O     O_R   0.163160 0.724130 0.621960 -0.612495
O29   O     O_R   0.269970 0.321680 0.499990 -0.616460
O30   O     O_R   0.730030 0.321680 0.500010 -0.615838
O31   O     O_R   0.769970 0.821680 0.499990 -0.616512
O32   O     O_R   0.230030 0.821680 0.500010 -0.615877
O33   O     O_R   0.321650 0.269930 0.500010 -0.631123
O34   O     O_R   0.678350 0.269930 0.499990 -0.635004
O35   O     O_R   0.821650 0.769930 0.500010 -0.631038
O36   O     O_R   0.178350 0.769930 0.499990 -0.634933
O37   O     O_R   0.163160 0.275870 0.621980 -0.630613
O38   O     O_R   0.836840 0.275870 0.378020 -0.626109
O39   O     O_R   0.663160 0.775870 0.621980 -0.630697
O40   O     O_R   0.336840 0.775870 0.378020 -0.626070
O41   O     O_R   0.214850 0.224110 0.621990 -0.621411
O42   O     O_R   0.785150 0.224110 0.378010 -0.605781
O43   O     O_R   0.714850 0.724110 0.621990 -0.621423
O44   O     O_R   0.285150 0.724110 0.378010 -0.605711
O45   O     O_R   0.580260 0.454160 0.431100 -0.579864
O46   O     O_R   0.419740 0.454160 0.568900 -0.605111
O47   O     O_R   0.080260 0.954160 0.431100 -0.579871
O48   O     O_R   0.919740 0.954160 0.568900 -0.605127
Zn1   Zn    Zn3+2 0.215490 0.284560 0.500000 0.953566
Zn2   Zn    Zn3+2 0.784510 0.284560 0.500000 0.947405
Zn3   Zn    Zn3+2 0.715490 0.784560 0.500000 0.953472
Zn4   Zn    Zn3+2 0.284510 0.784560 0.500000 0.947488
Zn5   Zn    Zn3+2 0.284510 0.215440 0.500020 0.953492
Zn6   Zn    Zn3+2 0.715490 0.215440 0.499980 0.991665
Zn7   Zn    Zn3+2 0.784510 0.715440 0.500020 0.953565
Zn8   Zn    Zn3+2 0.215490 0.715440 0.499980 0.991856
Zn9   Zn    Zn3+2 0.045990 0.000000 0.408050 1.011342
Zn10  Zn    Zn3+2 0.954010 0.000000 0.591950 0.952843
Zn11  Zn    Zn3+2 0.545990 0.500000 0.408050 1.011387
Zn12  Zn    Zn3+2 0.454010 0.500000 0.591950 0.952830
H29   H     H_    0.485684 0.184267 0.078019 0.140879
H30   H     H_    0.562691 0.184326 0.924393 0.125820
H31   H     H_    0.984692 0.683877 0.077992 0.141007
H32   H     H_    0.061705 0.683939 0.924362 0.126048
H33   H     H_    0.018602 0.209310 0.079023 0.133155
H34   H     H_    0.981927 0.288961 0.921191 0.137767
H35   H     H_    0.511473 0.700275 0.078938 0.133657
H36   H     H_    0.489181 0.798233 0.921270 0.138662
O49   O     O_3   0.296258 0.411165 0.695168 -0.583762
C129  C     C_3   0.325787 0.371114 0.680893 -0.225273
H37   H     H_    0.373731 0.377485 0.644016 0.171724
H38   H     H_    0.321534 0.345164 0.650106 0.148389
H39   H     H_    0.306060 0.357554 0.742035 0.168206
O50   O     O_3   0.703192 0.426853 0.318343 -0.568755
C130  C     C_3   0.699818 0.383053 0.300038 -0.249878
H40   H     H_    0.680586 0.383859 0.272348 0.176561
H41   H     H_    0.670582 0.361257 0.355780 0.161614
H42   H     H_    0.745349 0.368881 0.252482 0.153274
O51   O     O_3   0.796169 0.911278 0.695125 -0.583909
C131  C     C_3   0.825631 0.871214 0.680988 -0.224891
H43   H     H_    0.873571 0.877557 0.644165 0.171719
H44   H     H_    0.821387 0.845249 0.650212 0.148433
H45   H     H_    0.805839 0.857689 0.742182 0.168400
O52   O     O_3   0.203226 0.926940 0.318421 -0.568855
C132  C     C_3   0.199911 0.883150 0.300019 -0.249712
H46   H     H_    0.180715 0.883969 0.272282 0.176666
H47   H     H_    0.170673 0.861326 0.355718 0.161716
H48   H     H_    0.245457 0.869002 0.252475 0.153107
H49   H     H_    0.242080 0.359821 0.668615 0.203979
H50   H     H_    0.759588 0.368529 0.340427 0.197700
H51   H     H_    0.742020 0.859921 0.668535 0.204018
H52   H     H_    0.259611 0.868600 0.340508 0.197557
O53   O     O_3   0.251026 0.115164 0.394555 -0.602007
C133  C     C_3   0.264875 0.082292 0.424307 -0.251920
H53   H     H_    0.241371 0.087864 0.490590 0.150306
H54   H     H_    0.313587 0.083591 0.386670 0.178006
H55   H     H_    0.254497 0.048797 0.416956 0.181404
O54   O     O_3   0.889069 0.135647 0.358839 -0.587812
C134  C     C_3   0.937546 0.164172 0.300185 -0.281279
H56   H     H_    0.929907 0.197483 0.326976 0.141663
H57   H     H_    0.941871 0.168186 0.246362 0.187732
H58   H     H_    0.980335 0.150225 0.276125 0.187767
O55   O     O_3   0.751007 0.615114 0.394672 -0.601958
C135  C     C_3   0.764795 0.582252 0.424519 -0.251861
H59   H     H_    0.741260 0.587851 0.490809 0.150208
H60   H     H_    0.813501 0.583532 0.386925 0.178017
H61   H     H_    0.754403 0.548754 0.417198 0.181426
O56   O     O_3   0.388860 0.635502 0.358998 -0.588054
C136  C     C_3   0.437351 0.663979 0.300181 -0.280716
H62   H     H_    0.429803 0.697314 0.326846 0.141929
H63   H     H_    0.441572 0.667945 0.246443 0.186639
H64   H     H_    0.480154 0.650012 0.276038 0.187872
O57   O     O_3   0.186034 0.051338 0.391028 -0.630200
C137  C     C_3   0.216341 0.066126 0.309609 -0.210541
H65   H     H_    0.186870 0.085868 0.307647 0.161861
H66   H     H_    0.231237 0.036869 0.269478 0.187586
H67   H     H_    0.256885 0.085437 0.282524 0.192266
O58   O     O_3   0.950483 0.068928 0.359128 -0.583307
C138  C     C_3   0.916268 0.032224 0.373554 -0.205222
H68   H     H_    0.878980 0.042373 0.379134 0.178529
H69   H     H_    0.898554 0.013347 0.430025 0.128778
H70   H     H_    0.945547 0.009709 0.319482 0.179900
O59   O     O_3   0.686010 0.551292 0.391145 -0.630315
C139  C     C_3   0.716376 0.566042 0.309683 -0.210618
H71   H     H_    0.686948 0.585787 0.307640 0.161940
H72   H     H_    0.731267 0.536767 0.269592 0.187627
H73   H     H_    0.756929 0.585338 0.282609 0.192308
O60   O     O_3   0.450298 0.568804 0.359282 -0.583420
C140  C     C_3   0.416014 0.532099 0.373906 -0.205578
H74   H     H_    0.378683 0.542239 0.379577 0.178533
H75   H     H_    0.398352 0.513271 0.430393 0.128833
H76   H     H_    0.445224 0.509542 0.319890 0.179887
O61   O     O_3   0.015477 0.159435 0.526224 -0.554473
C141  C     C_3   0.963193 0.182090 0.559534 -0.267139
H77   H     H_    0.922522 0.163431 0.612288 0.124555
H78   H     H_    0.962644 0.185578 0.510146 0.191082
H79   H     H_    0.962074 0.215742 0.580130 0.159869
O62   O     O_3   0.792025 0.069743 0.669333 -0.548503
C142  C     C_3   0.774233 0.049745 0.741179 -0.253553
H80   H     H_    0.813696 0.041996 0.731892 0.168982
H81   H     H_    0.751207 0.018222 0.752952 0.194370
H82   H     H_    0.742331 0.070896 0.797043 0.120796
O63   O     O_3   0.515551 0.659465 0.526042 -0.554462
C143  C     C_3   0.463318 0.682167 0.559257 -0.266881
H83   H     H_    0.422602 0.663583 0.612101 0.124379
H84   H     H_    0.462768 0.685595 0.509863 0.191076
H85   H     H_    0.462285 0.715845 0.579693 0.160035
O64   O     O_3   0.292051 0.569849 0.669437 -0.548419
C144  C     C_3   0.274309 0.549878 0.741269 -0.253547
H86   H     H_    0.313799 0.542119 0.731912 0.168936
H87   H     H_    0.251242 0.518363 0.753129 0.194302
H88   H     H_    0.242460 0.571053 0.797109 0.120863
O65   O     O_3   0.077005 0.222426 0.521646 -0.526120
C145  C     C_3   0.057483 0.265096 0.555727 -0.258626
H89   H     H_    0.075084 0.275030 0.583758 0.167689
H90   H     H_    0.007860 0.267299 0.603048 0.115630
H91   H     H_    0.074994 0.288804 0.504863 0.181171
O66   O     O_3   0.735056 0.135253 0.670274 -0.542484
C146  C     C_3   0.682973 0.142894 0.754492 -0.267986
H92   H     H_    0.676605 0.178719 0.768761 0.138253
H93   H     H_    0.684051 0.124683 0.797143 0.148733
H94   H     H_    0.643796 0.130899 0.766206 0.192354
O67   O     O_3   0.577089 0.722448 0.521465 -0.526116
C147  C     C_3   0.557593 0.765133 0.555486 -0.258512
H95   H     H_    0.575167 0.775068 0.583552 0.167729
H96   H     H_    0.507972 0.767360 0.602769 0.115680
H97   H     H_    0.575153 0.788824 0.504580 0.181174
O68   O     O_3   0.235110 0.635381 0.670370 -0.542535
C148  C     C_3   0.183084 0.643061 0.754603 -0.267943
H98   H     H_    0.176767 0.678891 0.768822 0.138378
H99   H     H_    0.184200 0.624856 0.797220 0.148875
H100  H     H_    0.143859 0.631087 0.766420 0.192259
H101  H     H_    0.030025 0.204032 0.649077 -0.020621
H102  H     H_    0.779687 0.179395 0.688698 -0.004460
H103  H     H_    0.530034 0.704096 0.648943 -0.020174
H104  H     H_    0.279879 0.679515 0.688567 -0.004348

loop_
_geom_bond_atom_site_label_1
_geom_bond_atom_site_label_2
_ccdc_geom_bond_type
C103  O15   A    
C134  H57   S    
C29   O61   S    
C141  H79   S    
C19   O59   S    
C24   C104  S    
C65   C89   S    
C34   H102  S    
O60   C140  S    
C133  H54   S    
C29   C33   S    
C87   O51   S    
O58   C138  S    
C9    C13   A    
C64   C84   A    
C109  H30   S    
C11   C15   A    
C23   C103  S    
C12   C16   A    
O68   C148  S    
C70   C74   A    
C4    C12   S    
C133  H55   S    
C105  O41   A    
C41   C49   A    
C98   O6    A    
C72   H4    S    
C25   C29   S    
O23   Zn3   S    
C115  C123  S    
C27   C31   S    
C147  H97   S    
C28   C32   S    
C62   C66   A    
O1    Zn1   S    
C47   O27   A    
C48   O28   A    
O30   Zn2   S    
C90   O30   A    
O66   C146  S    
C91   O35   A    
C17   C21   A    
O20   Zn8   S    
C19   C23   A    
C96   H16   S    
C78   C82   A    
C16   C20   A    
C35   H103  S    
C93   H49   S    
C124  C127  T    
C5    C25   A    
O15   Zn12  S    
C120  H20   S    
C130  H41   S    
C8    C28   A    
C137  H66   S    
C143  H83   S    
C36   H104  S    
O47   Zn9   S    
C84   C88   S    
C53   C58   T    
O3    Zn3   S    
C13   O53   S    
C56   C59   T    
O34   Zn6   S    
C37   H33   S    
C140  H75   S    
C37   C50   A    
C32   O64   S    
C66   C70   A    
C74   H6    S    
C68   C92   S    
C130  H42   S    
C75   H7    S    
C33   O65   S    
C3    C11   S    
C29   H21   S    
C61   C65   A    
C69   H1    S    
O31   Zn3   S    
C73   C77   A    
C58   C106  S    
C75   C79   A    
O35   Zn7   S    
C102  O14   A    
C103  O11   A    
C111  C112  A    
O11   Zn11  S    
C43   C51   A    
C142  H81   S    
O14   Zn9   S    
C1    O17   A    
O53   C133  S    
C32   C36   S    
C64   C68   A    
O7    Zn10  S    
O48   Zn10  S    
O26   Zn6   S    
C131  H43   S    
C132  H46   S    
C148  H99   S    
O36   Zn8   S    
C95   H51   S    
C85   C93   S    
C131  H44   S    
O56   C136  S    
C144  H87   S    
C14   O54   S    
O19   Zn7   S    
C110  C114  A    
C143  H85   S    
C44   C52   A    
C102  O10   A    
C3    O3    A    
O50   C130  S    
O37   Zn1   S    
C30   C34   S    
C4    O20   A    
C94   H14   S    
C138  H70   S    
C139  H71   S    
C64   C96   S    
C10   C14   A    
C59   C107  S    
C116  C120  A    
C147  H96   S    
O40   Zn4   S    
C5    C9    A    
O4    Zn4   S    
C31   H23   S    
C32   H24   S    
C8    C12   A    
C78   C97   S    
O61   C141  S    
C101  O13   A    
C136  H63   S    
C41   C53   S    
C42   C50   A    
C113  C117  A    
O9    Zn9   S    
C49   H26   S    
C26   C30   S    
C115  C119  A    
C80   C99   S    
C22   C26   A    
C99   O7    A    
C85   O49   S    
C104  O16   A    
C112  C116  A    
C90   O34   A    
C43   C55   S    
C21   C25   A    
C146  H94   S    
C99   O47   A    
C18   C22   A    
C89   O29   A    
O17   Zn5   S    
C24   C28   A    
C97   O45   A    
C135  H59   S    
C92   O32   A    
C47   C127  S    
C40   C51   A    
C97   O5    A    
C131  H45   S    
C13   C17   A    
C132  H48   S    
O12   Zn12  S    
C122  C125  T    
C61   C81   A    
C117  C118  A    
C107  O43   A    
C6    C26   A    
O52   C132  S    
C5    C33   S    
C37   C41   A    
O42   Zn6   S    
C71   H3    S    
C40   C44   A    
C113  C121  S    
C129  H37   S    
C55   C60   T    
C81   C85   S    
O55   C135  S    
C18   O58   S    
C54   C57   T    
C83   C87   S    
C88   C96   S    
C95   H15   S    
C138  H68   S    
C139  H73   S    
C48   O24   A    
C80   C84   A    
C45   O25   A    
C66   C90   S    
C38   C49   A    
C52   H27   S    
C15   C19   A    
C33   H101  S    
O62   C142  S    
C61   C93   S    
C30   H22   S    
C50   H25   S    
C119  H19   S    
C88   O52   S    
C63   C95   S    
C70   H2    S    
C7    C27   A    
C117  H17   S    
C141  H77   S    
C8    C36   S    
C110  H29   S    
C14   C18   A    
C91   O31   A    
O51   C131  S    
C36   O68   S    
C69   C73   A    
C108  O40   A    
C60   C108  S    
C106  O42   A    
C62   C82   A    
C134  H58   S    
C146  H92   S    
O57   C137  S    
C137  H67   S    
C39   H35   S    
C135  H61   S    
C143  H84   S    
C145  H90   S    
O2    Zn2   S    
C76   C80   A    
C79   C100  S    
C1    C9    S    
C106  O38   A    
C142  H80   S    
C34   O66   S    
C35   O67   S    
C133  H53   S    
C82   C86   S    
C6    C34   S    
C63   C83   A    
C68   C72   A    
C86   O50   S    
C105  O37   A    
O63   C143  S    
O54   C134  S    
C48   C128  S    
C44   C56   S    
C77   C81   A    
C2    O2    A    
C67   C91   S    
C100  O8    A    
O44   Zn8   S    
C101  O9    A    
C94   H50   S    
C17   O57   S    
O5    Zn12  S    
C62   C94   S    
C31   C35   S    
C85   H9    S    
C93   H13   S    
C30   O62   S    
C145  H89   S    
O32   Zn4   S    
C116  C124  S    
C87   H11   S    
C6    C10   A    
C119  C120  A    
C38   H34   S    
O59   C139  S    
O33   Zn5   S    
C109  C110  A    
C42   C54   S    
C79   C83   A    
C100  O48   A    
C46   O26   A    
C65   C69   A    
O21   Zn1   S    
C67   C71   A    
C148  H98   S    
O67   C147  S    
O39   Zn3   S    
C144  H86   S    
C74   C78   A    
C89   O33   A    
C137  H65   S    
C20   O60   S    
C96   H52   S    
C92   O36   A    
C145  H91   S    
C57   C105  S    
C46   O22   A    
C72   C76   A    
C107  O39   A    
C76   H8    S    
O65   C145  S    
C7    C11   A    
O13   Zn10  S    
C140  H74   S    
C40   H36   S    
C138  H69   S    
C139  H72   S    
C38   C42   A    
C140  H76   S    
O27   Zn7   S    
O25   Zn5   S    
O45   Zn11  S    
C47   O23   A    
C86   C94   S    
C88   H12   S    
C20   C24   A    
C45   C125  S    
C23   C27   A    
O16   Zn11  S    
C136  H62   S    
O43   Zn7   S    
C45   O21   A    
C21   C101  S    
C39   C52   A    
O28   Zn8   S    
C142  H82   S    
O6    Zn11  S    
O38   Zn2   S    
C63   C67   A    
C51   H28   S    
C146  H93   S    
O29   Zn1   S    
C118  H18   S    
C135  H60   S    
C39   C43   A    
C87   C95   S    
C132  H47   S    
C16   O56   S    
C108  O44   A    
C148  H100  S    
C104  O12   A    
C144  H88   S    
O49   C129  S    
C77   C98   S    
C114  C118  A    
C31   O63   S    
O10   Zn10  S    
O64   C144  S    
C73   H5    S    
O22   Zn2   S    
C129  H38   S    
C111  H32   S    
C134  H56   S    
C2    C10   S    
C15   O55   S    
C3    O19   A    
O18   Zn6   S    
C7    C35   S    
C46   C126  S    
C109  C113  A    
O8    Zn9   S    
C129  H39   S    
C22   C102  S    
C147  H95   S    
C1    O1    A    
C121  C126  T    
C2    O18   A    
C71   C75   A    
C123  C128  T    
C4    O4    A    
C98   O46   A    
C112  H31   S    
C141  H78   S    
C136  H64   S    
O41   Zn5   S    
C86   H10   S    
C114  C122  S    
C130  H40   S    
C111  C115  A    
O46   Zn12  S    
O24   Zn4   S    
