data_mof_unit_pretest_1331.cif
_audit_creation_date              2012-12-10T18:47:03-0500
_audit_creation_method            fapswitch 2.2
_symmetry_space_group_name_H-M    P1
_symmetry_Int_Tables_number       1
_space_group_crystal_system       triclinic
_cell_length_a                    10.818851
_cell_length_b                    9.838816
_cell_length_c                    14.863895
_cell_angle_alpha                 90.000346
_cell_angle_beta                  89.127076
_cell_angle_gamma                 90.000351
_cell_volume                      1581.99898852

loop_
_atom_site_label
_atom_site_type_symbol
_atom_type_description
_atom_site_fract_x
_atom_site_fract_y
_atom_site_fract_z
_atom_type_partial_charge
C1    C     C_R   0.259718 0.499996 0.499755 0.896644
C2    C     C_R   0.740282 0.499997 0.500243 0.896646
C3    C     C_R   0.276055 0.461505 0.052428 0.222434
C4    C     C_R   0.723930 0.461541 0.947571 0.222428
C5    C     C_R   0.063576 0.376224 0.499923 -0.133983
C6    C     C_R   0.936425 0.623753 0.500071 -0.136672
C7    C     C_R   0.936414 0.376224 0.500191 -0.134048
C8    C     C_R   0.063585 0.623752 0.499803 -0.136743
C9    C     C_R   0.872787 0.499990 0.500252 -0.008372
C10   C     C_R   0.127213 0.499989 0.499743 -0.008371
C11   C     C_R   0.581805 0.071958 0.551110 -0.048365
C12   C     C_R   0.418191 0.928045 0.448894 -0.047648
C13   C     C_R   0.418195 0.071958 0.448890 -0.048367
C14   C     C_R   0.581809 0.928046 0.551106 -0.047651
C15   C     C_R   0.503034 0.499846 0.326987 0.934198
C16   C     C_R   0.496965 0.499847 0.673013 0.934200
C17   C     C_R   0.606798 0.492189 0.811128 -0.222478
C18   C     C_R   0.393193 0.492170 0.188875 -0.222469
C19   C     C_R   0.494122 0.497339 0.768578 -0.133522
C20   C     C_R   0.505871 0.497335 0.231422 -0.133526
C21   C     C_R   0.381723 0.483553 0.815216 0.254635
C22   C     C_R   0.618268 0.483550 0.184780 0.254630
C23   C     C_R   0.383782 0.463405 0.908702 -0.058806
C24   C     C_R   0.616204 0.463406 0.091293 -0.058810
C25   C     C_R   0.498604 0.469991 0.953047 -0.041647
C26   C     C_R   0.501379 0.469988 0.046950 -0.041648
C27   C     C_R   0.610874 0.477615 0.903742 0.024506
C28   C     C_R   0.389110 0.477595 0.096259 0.024508
C29   C     C_R   0.276102 0.436883 0.959947 0.296502
C30   C     C_R   0.723884 0.436899 0.040046 0.296517
H1    H     H_    0.690367 0.497381 0.770278 0.181298
H2    H     H_    0.309628 0.497352 0.229731 0.181289
H3    H     H_    0.111646 0.279625 0.499893 0.160324
H4    H     H_    0.888356 0.720352 0.500096 0.160595
H5    H     H_    0.888336 0.279626 0.500319 0.160299
H6    H     H_    0.111662 0.720351 0.499681 0.160566
H7    H     H_    0.647170 0.126506 0.591992 0.137767
H8    H     H_    0.352817 0.873501 0.408019 0.136693
H9    H     H_    0.352828 0.126505 0.408009 0.137780
H10   H     H_    0.647184 0.873502 0.591981 0.136708
N1    N     N_R   0.500000 0.857200 0.500000 -0.088000
N2    N     N_R   0.500000 0.142800 0.500000 -0.088443
O1    O     O_R   0.316770 0.614620 0.499990 -0.627525
O2    O     O_R   0.683230 0.385380 0.500010 -0.628445
O3    O     O_R   0.683230 0.614620 0.500010 -0.627539
O4    O     O_R   0.316770 0.385380 0.499990 -0.628458
O5    O     O_R   0.499980 0.614680 0.367850 -0.604137
O6    O     O_R   0.500020 0.385320 0.632150 -0.607978
O7    O     O_R   0.500020 0.614680 0.632150 -0.604121
O8    O     O_R   0.499980 0.385320 0.367850 -0.607966
Zn1   Zn    Zn3+2 0.500000 0.653120 0.500000 0.993837
Zn2   Zn    Zn3+2 0.500000 0.346880 0.500000 0.992290
Br1   Br    Br    0.230462 0.517713 0.750922 -0.408607
Br2   Br    Br    0.769538 0.517678 0.249073 -0.408618
Br3   Br    Br    0.152999 0.314026 0.915538 -0.271699
Br4   Br    Br    0.846968 0.313995 0.084428 -0.271685
Br5   Br    Br    0.121226 0.470300 0.117336 -0.330464
Br6   Br    Br    0.878758 0.470422 0.882676 -0.330481

loop_
_geom_bond_atom_site_label_1
_geom_bond_atom_site_label_2
_ccdc_geom_bond_type
O2    Zn2   S    
O8    Zn2   S    
C30   Br4   S    
C12   N1    A    
O4    Zn2   S    
C25   C27   A    
C26   C28   A    
C15   O5    A    
C7    C9    A    
C16   O6    A    
C6    C9    A    
C23   C25   A    
C20   C22   A    
C5    C10   A    
C22   Br2   S    
C16   O7    A    
C21   Br1   S    
O1    Zn1   S    
C14   N1    A    
C16   C19   S    
C6    C8    A    
C23   C29   A    
C8    C10   A    
C3    C28   A    
C19   C21   A    
N1    Zn1   S    
C24   C26   A    
C18   C20   A    
C5    H3    S    
C21   C23   A    
C2    O3    A    
C12   H8    S    
C15   C20   S    
C17   H1    S    
C11   C14   A    
C22   C24   A    
C1    O4    A    
C13   H9    S    
C24   C30   A    
C18   H2    S    
O3    Zn1   S    
C14   H10   S    
C17   C27   A    
C3    Br5   S    
O6    Zn2   S    
C4    C27   A    
C18   C28   A    
C12   C13   A    
C11   N2    A    
C11   H7    S    
C8    H6    S    
C15   O8    A    
C4    Br6   S    
C5    C7    A    
C13   N2    A    
C3    C29   A    
O5    Zn1   S    
C29   Br3   S    
C17   C19   A    
C25   C26   A    
C2    C9    S    
C7    H5    S    
C1    O1    A    
C4    C30   A    
C1    C10   S    
C6    H4    S    
C2    O2    A    
O7    Zn1   S    
N2    Zn2   S    
