data_mof_unit_pretest_1097.cif
_audit_creation_date              2012-12-10T18:53:40-0500
_audit_creation_method            fapswitch 2.2
_symmetry_space_group_name_H-M    P1
_symmetry_Int_Tables_number       1
_space_group_crystal_system       triclinic
_cell_length_a                    10.753297
_cell_length_b                    9.956426
_cell_length_c                    19.220578
_cell_angle_alpha                 89.973044
_cell_angle_beta                  100.290447
_cell_angle_gamma                 89.99245
_cell_volume                      2024.73880092

loop_
_atom_site_label
_atom_site_type_symbol
_atom_type_description
_atom_site_fract_x
_atom_site_fract_y
_atom_site_fract_z
_atom_type_partial_charge
C1    C     C_R   0.262091 0.500697 0.506261 0.994803
C2    C     C_R   0.737890 0.500693 0.493712 0.994937
C3    C     C_R   0.499355 0.526769 0.930293 0.496685
C4    C     C_R   0.497109 0.527054 0.069449 0.496475
C5    C     C_R   0.508926 0.499966 0.366301 0.988162
C6    C     C_R   0.490942 0.499907 0.633679 0.988201
C7    C     C_R   0.064351 0.382296 0.511497 0.334181
C8    C     C_R   0.934740 0.627965 0.491775 0.347904
C9    C     C_R   0.935656 0.382288 0.488492 0.334244
C10   C     C_R   0.065138 0.627978 0.508015 0.347948
C11   C     C_R   0.869563 0.503990 0.487164 -0.414993
C12   C     C_R   0.130388 0.504008 0.512750 -0.415036
C13   C     C_R   0.587905 0.072894 0.548939 0.306412
C14   C     C_R   0.413756 0.926771 0.450113 0.317257
C15   C     C_R   0.412093 0.073008 0.451062 0.306417
C16   C     C_R   0.586251 0.926654 0.549885 0.317353
C17   C     C_R   0.549633 0.623825 0.259495 0.296150
C18   C     C_R   0.489510 0.382777 0.749814 0.305079
C19   C     C_R   0.449087 0.623643 0.740228 0.296041
C20   C     C_R   0.508423 0.383139 0.250031 0.304695
C21   C     C_R   0.528012 0.635512 0.185695 0.240297
C22   C     C_R   0.508256 0.391377 0.823870 0.307557
C23   C     C_R   0.469749 0.635172 0.814007 0.240813
C24   C     C_R   0.487841 0.392001 0.175964 0.308097
C25   C     C_R   0.497125 0.519126 0.144408 -0.310331
C26   C     C_R   0.499325 0.518574 0.855355 -0.311189
C27   C     C_R   0.523289 0.501537 0.291230 -0.371281
C28   C     C_R   0.475709 0.501342 0.708632 -0.371695
N1    N     N_R   0.500000 0.857200 0.500000 -0.215241
N2    N     N_R   0.500000 0.142800 0.500000 -0.218635
N3    N     N_R   0.386878 0.532115 0.022824 -0.050831
N4    N     N_R   0.609647 0.530131 0.976918 -0.052154
N5    N     N_R   0.388065 0.530932 0.953920 -0.082223
N6    N     N_R   0.608440 0.529238 0.045819 -0.082897
O1    O     O_R   0.316770 0.614620 0.500000 -0.529478
O2    O     O_R   0.683230 0.385380 0.500000 -0.541022
O3    O     O_R   0.683230 0.614620 0.500000 -0.529473
O4    O     O_R   0.316770 0.385380 0.500000 -0.540961
O5    O     O_R   0.499990 0.614700 0.398140 -0.535805
O6    O     O_R   0.500010 0.385300 0.601860 -0.531874
O7    O     O_R   0.500010 0.614700 0.601860 -0.535578
O8    O     O_R   0.499990 0.385300 0.398140 -0.531947
Zn1   Zn    Zn3+2 0.500000 0.653120 0.500000 1.180476
Zn2   Zn    Zn3+2 0.500000 0.346880 0.500000 1.175273
Cl1   Cl    Cl    0.135808 0.233071 0.549913 -0.338444
Cl2   Cl    Cl    0.858717 0.785464 0.470702 -0.322346
Cl3   Cl    Cl    0.864264 0.233060 0.450161 -0.338205
Cl4   Cl    Cl    0.141044 0.785520 0.528939 -0.322217
Cl5   Cl    Cl    0.633820 0.752915 0.311635 -0.410765
Cl6   Cl    Cl    0.460934 0.222596 0.709454 -0.333245
Cl7   Cl    Cl    0.365777 0.753130 0.687879 -0.411211
Cl8   Cl    Cl    0.538635 0.222962 0.290245 -0.333345
S1    S     S_3+6 0.542330 0.795270 0.145057 0.169263
O9    O     O_2   0.450179 0.806884 0.076651 -0.196695
O10   O     O_2   0.516608 0.908155 0.192328 -0.098151
O11   O     O_3   0.689598 0.811299 0.128026 -0.457351
H1    H     H_    0.745542 0.806354 0.174851 0.387827
S2    S     S_3+6 0.536751 0.239959 0.874756 0.146853
O12   O     O_2   0.413195 0.167193 0.870546 -0.185265
O13   O     O_2   0.626775 0.152920 0.843382 -0.147391
O14   O     O_3   0.599564 0.264190 0.960241 -0.524472
H2    H     H_    0.613110 0.172805 0.980583 0.427066
S3    S     S_3+6 0.456107 0.795129 0.854496 0.169173
O15   O     O_2   0.547499 0.806054 0.923210 -0.196928
O16   O     O_2   0.483471 0.907579 0.807346 -0.098337
O17   O     O_3   0.308519 0.812667 0.870827 -0.457060
H3    H     H_    0.253159 0.808570 0.823802 0.388361
S4    S     S_3+6 0.456937 0.241020 0.125023 0.147044
O18   O     O_2   0.580229 0.169012 0.126544 -0.188092
O19   O     O_2   0.369906 0.152856 0.158024 -0.145650
O20   O     O_3   0.388848 0.266451 0.040418 -0.522915
H4    H     H_    0.376574 0.175471 0.019482 0.426065
S5    S     S_3+6 0.713140 0.159301 0.610543 0.183901
O21   O     O_2   0.717333 0.105703 0.683900 -0.153986
O22   O     O_2   0.835964 0.126625 0.587574 -0.170963
O23   O     O_3   0.717376 0.325437 0.622859 -0.532355
H5    H     H_    0.799460 0.344041 0.653939 0.369623
S6    S     S_3+6 0.309645 0.839153 0.377580 0.178379
O24   O     O_2   0.178383 0.895508 0.366815 -0.155811
O25   O     O_2   0.363832 0.864358 0.311920 -0.195344
O26   O     O_3   0.281336 0.674234 0.378334 -0.532239
H6    H     H_    0.235900 0.652241 0.330171 0.365707
S7    S     S_3+6 0.286822 0.159554 0.389473 0.183851
O27   O     O_2   0.282576 0.106078 0.316116 -0.153810
O28   O     O_2   0.164026 0.126858 0.412473 -0.170838
O29   O     O_3   0.282564 0.325712 0.377142 -0.532754
H7    H     H_    0.200489 0.344372 0.346046 0.369604
S8    S     S_3+6 0.690385 0.838873 0.622412 0.178366
O30   O     O_2   0.821639 0.895190 0.633175 -0.156151
O31   O     O_2   0.636201 0.863952 0.688075 -0.195163
O32   O     O_3   0.718716 0.673948 0.621663 -0.532208
H8    H     H_    0.764191 0.651870 0.669821 0.365810

loop_
_geom_bond_atom_site_label_1
_geom_bond_atom_site_label_2
_ccdc_geom_bond_type
C5    O8    A    
S3    O16   D    
S5    O22   D    
S5    O21   D    
O29   H7    S    
C2    O3    A    
C4    C25   S    
S1    O9    D    
C1    O1    A    
C7    Cl1   S    
C8    C11   A    
S6    O25   D    
C3    N5    A    
S2    O13   D    
O11   H1    S    
C23   C26   A    
C5    C27   S    
C6    C28   S    
C20   C24   A    
S4    O18   D    
C6    O7    A    
N3    N5    A    
O1    Zn1   S    
S2    O14   S    
C23   S3    S    
O17   H3    S    
S3    O17   S    
N1    Zn1   S    
O7    Zn1   S    
N2    Zn2   S    
C3    N4    A    
C1    C12   S    
O8    Zn2   S    
C2    C11   S    
O26   H6    S    
S1    O10   D    
C7    C12   A    
C4    N6    A    
C17   C27   A    
C13   N2    A    
C18   C28   A    
C24   C25   A    
C17   Cl5   S    
O32   H8    S    
S6    O24   D    
C15   S7    S    
S2    O12   D    
C17   C21   A    
N4    N6    A    
O3    Zn1   S    
C19   C23   A    
O4    Zn2   S    
S7    O27   D    
S8    O32   S    
O23   H5    S    
C19   C28   A    
C9    C11   A    
C10   C12   A    
C1    O4    A    
C8    C10   A    
S7    O28   D    
S8    O31   D    
C9    Cl3   S    
C5    O5    A    
C10   Cl4   S    
S5    O23   S    
C6    O6    A    
O2    Zn2   S    
C14   N1    A    
C18   Cl6   S    
C15   N2    A    
S1    O11   S    
C2    O2    A    
C7    C9    A    
C21   C25   A    
C18   C22   A    
C3    C26   S    
C13   S5    S    
C22   S2    S    
O5    Zn1   S    
C20   C27   A    
C16   N1    A    
O20   H4    S    
C20   Cl8   S    
C21   S1    S    
S6    O26   S    
S4    O20   S    
C14   S6    S    
O14   H2    S    
C8    Cl2   S    
C4    N3    A    
C24   S4    S    
S3    O15   D    
C19   Cl7   S    
O6    Zn2   S    
S7    O29   S    
S8    O30   D    
S4    O19   D    
C22   C26   A    
C13   C16   A    
C16   S8    S    
C14   C15   A    
