data_mof_unit_pretest_1690.cif
_audit_creation_date              2012-12-10T20:20:46-0500
_audit_creation_method            fapswitch 2.2
_symmetry_space_group_name_H-M    P1
_symmetry_Int_Tables_number       1
_space_group_crystal_system       triclinic
_cell_length_a                    19.030816
_cell_length_b                    18.474941
_cell_length_c                    10.691752
_cell_angle_alpha                 89.910345
_cell_angle_beta                  90.313352
_cell_angle_gamma                 90.392184
_cell_volume                      3758.99866451

loop_
_atom_site_label
_atom_site_type_symbol
_atom_type_description
_atom_site_fract_x
_atom_site_fract_y
_atom_site_fract_z
_atom_type_partial_charge
C1    C     C_R   0.365495 0.499795 0.497944 1.001873
C2    C     C_R   0.634619 0.500302 0.498430 0.967582
C3    C     C_R   0.806327 0.545568 0.352287 -0.095729
C4    C     C_R   0.174584 0.538891 0.522744 -0.104300
C5    C     C_R   0.735596 0.546996 0.382213 -0.273484
C6    C     C_R   0.245742 0.536686 0.551186 -0.237143
C7    C     C_R   0.709394 0.501183 0.475628 -0.273564
C8    C     C_R   0.291074 0.499484 0.472395 -0.277107
C9    C     C_R   0.962951 0.569045 0.400062 0.519560
C10   C     C_R   0.035832 0.570632 0.396644 0.535140
C11   C     C_R   0.073313 0.505686 0.388988 -0.337858
C12   C     C_R   0.927024 0.502537 0.392795 -0.354012
C13   C     C_R   0.037280 0.439694 0.373392 0.586065
C14   C     C_R   0.964321 0.438366 0.373088 0.594959
C15   C     C_R   0.547819 0.726307 0.571300 0.737223
C16   C     C_R   0.451952 0.725911 0.429425 0.753736
C17   C     C_R   0.548838 0.802316 0.572475 -0.291407
C18   C     C_R   0.451035 0.801891 0.428458 -0.292579
C19   C     C_R   0.499998 0.841468 0.500430 -0.068578
C20   C     C_R   0.436583 0.961604 0.498054 -0.164293
C21   C     C_R   0.563492 0.962452 0.502920 -0.170859
C22   C     C_R   0.501772 0.500099 0.259753 0.950781
C23   C     C_R   0.501967 0.500017 0.740239 0.932825
C24   C     C_R   0.436619 0.037637 0.498265 -0.060178
C25   C     C_R   0.563499 0.038490 0.502487 -0.060812
C26   C     C_R   0.500068 0.077241 0.500294 0.254094
C27   C     C_R   0.500027 0.922772 0.500508 0.179177
C28   C     C_R   0.542980 0.198201 0.583633 0.454120
C29   C     C_R   0.457171 0.197653 0.416520 0.449104
C30   C     C_R   0.542208 0.274225 0.581726 0.568716
C31   C     C_R   0.457887 0.273690 0.418250 0.564904
C32   C     C_R   0.500076 0.158525 0.500146 -0.379871
C33   C     C_R   0.508757 0.566019 0.063675 -0.204844
C34   C     C_R   0.508836 0.565932 0.935890 -0.127913
C35   C     C_R   0.512006 0.500742 0.128548 -0.067134
C36   C     C_R   0.512220 0.500618 0.871604 -0.067570
C37   C     C_R   0.528091 0.436578 0.065169 -0.122813
C38   C     C_R   0.528207 0.436518 0.935801 -0.102665
C39   C     C_3   0.456199 0.625602 0.927823 1.005625
C40   C     C_3   0.456123 0.625741 0.069598 1.075546
C41   C     C_R   0.754104 0.454173 0.540097 0.554833
C42   C     C_R   0.265950 0.466389 0.362853 0.582561
C43   C     C_R   0.825450 0.454260 0.512830 0.652581
C44   C     C_R   0.195021 0.470311 0.332452 0.685252
C45   C     C_R   0.851675 0.499615 0.417776 0.021538
C46   C     C_R   0.148906 0.505856 0.413279 0.008683
H1    H     H_    0.586895 0.830205 0.630955 0.207484
H2    H     H_    0.412850 0.829437 0.370368 0.211524
H3    H     H_    0.386651 0.933177 0.498139 0.174347
H4    H     H_    0.613403 0.934689 0.502913 0.171337
N1    N     N_R   0.500000 0.689440 0.500000 -0.223536
N2    N     N_R   0.500000 0.310560 0.500000 -0.283729
O1    O     O_R   0.398180 0.560840 0.499970 -0.562920
O2    O     O_R   0.601820 0.560840 0.500030 -0.596437
O3    O     O_R   0.398180 0.439210 0.499910 -0.559222
O4    O     O_R   0.601820 0.439210 0.500090 -0.560134
O5    O     O_R   0.499990 0.560820 0.316770 -0.582078
O6    O     O_R   0.500010 0.560820 0.683230 -0.562087
O7    O     O_R   0.499990 0.439200 0.316710 -0.590355
O8    O     O_R   0.500010 0.439200 0.683290 -0.602731
Zn1   Zn    Zn3+2 0.500000 0.581210 0.500000 1.127625
Zn2   Zn    Zn3+2 0.500000 0.418790 0.500000 1.105672
H5    H     H_    0.536016 0.385984 0.114481 0.194515
H6    H     H_    0.536188 0.385900 0.887048 0.222010
F1    F     F_    0.594590 0.689412 0.642512 -0.590621
F2    F     F_    0.404488 0.688669 0.359459 -0.554985
H7    H     H_    0.386777 0.065546 0.498611 0.200915
H8    H     H_    0.613356 0.067072 0.502055 0.200908
F3    F     F_    0.584100 0.163807 0.668792 -0.567555
F4    F     F_    0.416112 0.162732 0.331392 -0.565005
F5    F     F_    0.583736 0.311771 0.662386 -0.544720
F6    F     F_    0.416468 0.310713 0.337309 -0.520970
F7    F     F_    0.483772 0.688104 0.875307 -0.594551
F8    F     F_    0.392646 0.604482 0.121361 -0.573435
F9    F     F_    0.392809 0.604184 0.874762 -0.635056
F10   F     F_    0.483702 0.688375 0.121784 -0.603913
F11   F     F_    0.728988 0.409982 0.631347 -0.547172
F12   F     F_    0.310587 0.432805 0.283375 -0.537524
F13   F     F_    0.869140 0.411960 0.581676 -0.548485
F14   F     F_    0.171564 0.440609 0.223741 -0.535769
H9    H     H_    0.825812 0.580531 0.278610 0.223748
H10   H     H_    0.139375 0.565688 0.586797 0.224378
H11   H     H_    0.700950 0.582589 0.330417 0.206826
H12   H     H_    0.265319 0.563027 0.635031 0.229498
F15   F     F_    0.927867 0.631772 0.419513 -0.564330
F16   F     F_    0.070004 0.635126 0.407605 -0.552786
F17   F     F_    0.072450 0.376064 0.368177 -0.519541
F18   F     F_    0.930076 0.374062 0.359830 -0.522908

loop_
_geom_bond_atom_site_label_1
_geom_bond_atom_site_label_2
_ccdc_geom_bond_type
C23   O6    A    
C26   C32   S    
C1    C8    S    
C2    C7    S    
N1    Zn1   S    
C16   N1    A    
C31   N2    A    
C22   O5    A    
C30   F5    S    
C4    C46   A    
C22   C35   S    
C20   H3    S    
C35   C37   A    
C24   C26   A    
C29   C32   A    
C41   F11   S    
C5    H11   S    
C43   F13   S    
C15   F1    S    
O3    Zn2   S    
O8    Zn2   S    
C18   C19   A    
C1    O1    A    
C30   N2    A    
C24   H7    S    
C9    F15   S    
O1    Zn1   S    
C20   C24   A    
C3    H9    S    
C15   N1    A    
C19   C27   S    
C9    C10   A    
O6    Zn1   S    
C39   F7    S    
C21   C27   A    
C13   C14   A    
C41   C43   A    
C25   H8    S    
C42   C44   A    
C21   H4    S    
C37   H5    S    
C44   C46   A    
C38   H6    S    
C23   O8    A    
C33   C40   S    
C6    H12   S    
C34   C39   S    
C44   F14   S    
C4    C6    A    
C2    O2    A    
C22   O7    A    
C5    C7    A    
C6    C8    A    
C25   C26   A    
C3    C45   A    
C40   F10   S    
C37   C38   A    
C28   C32   A    
C13   F17   S    
C28   F3    S    
C33   C34   A    
C43   C45   A    
C31   F6    S    
O2    Zn1   S    
C12   C14   A    
C42   F12   S    
C39   F9    S    
O4    Zn2   S    
C16   F2    S    
C39   C40   S    
C29   F4    S    
C15   C17   A    
C21   C25   A    
C10   F16   S    
O7    Zn2   S    
C17   H1    S    
C8    C42   A    
C12   C45   S    
C3    C5    A    
C18   H2    S    
O5    Zn1   S    
C20   C27   A    
C36   C38   A    
C1    O3    A    
C14   F18   S    
C29   C31   A    
C2    O4    A    
C11   C13   A    
C33   C35   A    
C28   C30   A    
C17   C19   A    
C40   F8    S    
C34   C36   A    
C7    C41   A    
C9    C12   A    
C10   C11   A    
C4    H10   S    
C16   C18   A    
C23   C36   S    
C11   C46   S    
N2    Zn2   S    
