data_mof_unit_pretest_1555.cif
_audit_creation_date              2012-12-10T20:12:40-0500
_audit_creation_method            fapswitch 2.2
_symmetry_space_group_name_H-M    P1
_symmetry_Int_Tables_number       1
_space_group_crystal_system       triclinic
_cell_length_a                    19.324713
_cell_length_b                    18.451568
_cell_length_c                    10.622495
_cell_angle_alpha                 89.918731
_cell_angle_beta                  90.071014
_cell_angle_gamma                 90.014894
_cell_volume                      3787.66953828

loop_
_atom_site_label
_atom_site_type_symbol
_atom_type_description
_atom_site_fract_x
_atom_site_fract_y
_atom_site_fract_z
_atom_type_partial_charge
Br1   Br    Br    0.399534 0.629121 0.129499 -0.490811
Br2   Br    Br    0.347824 0.454477 0.145946 -0.489828
C1    C     C_R   0.365656 0.499975 0.499348 0.911124
C2    C     C_R   0.964431 0.453806 0.568129 -0.183402
C3    C     C_R   0.035689 0.543025 0.398998 -0.173686
C4    C     C_R   0.036043 0.453726 0.567542 -0.183241
C5    C     C_R   0.071813 0.498383 0.483116 0.106904
C6    C     C_R   0.928258 0.498554 0.484313 0.105733
C7    C     C_R   0.183207 0.433319 0.486568 -0.163306
C8    C     C_R   0.182533 0.565002 0.486544 -0.164904
C9    C     C_R   0.497344 0.500251 0.257674 0.929495
C10   C     C_R   0.254772 0.433682 0.491865 -0.151386
C11   C     C_R   0.254169 0.565446 0.491842 -0.144318
C12   C     C_3   0.566538 0.471876 0.929475 -0.410559
C13   C     C_R   0.290573 0.499754 0.494959 -0.023368
C14   C     C_R   0.146951 0.498938 0.484405 0.112323
C15   C     C_R   0.480629 0.723839 0.607560 -0.034946
C16   C     C_R   0.476134 0.275721 0.604308 -0.033441
C17   C     C_R   0.477891 0.799990 0.614307 -0.067921
C18   C     C_R   0.472996 0.199546 0.609570 -0.070570
C19   C     C_R   0.495600 0.841592 0.506443 0.057999
C20   C     C_R   0.495462 0.158565 0.504449 0.060525
C21   C     C_R   0.514966 0.804112 0.396608 -0.291378
C22   C     C_R   0.519321 0.196358 0.397899 -0.299325
C23   C     C_R   0.745299 0.433761 0.493097 -0.197396
C24   C     C_R   0.517079 0.728132 0.395438 0.045913
C25   C     C_R   0.521379 0.272363 0.397680 0.016739
C26   C     C_R   0.464303 0.961966 0.407480 -0.194358
C27   C     C_R   0.464514 0.038101 0.406612 -0.200451
C28   C     C_R   0.495911 0.077307 0.504741 0.117798
C29   C     C_R   0.495763 0.922997 0.506229 0.115525
C30   C     C_R   0.634369 0.499990 0.499511 0.854399
C31   C     C_R   0.528437 0.038429 0.602271 -0.157489
C32   C     C_R   0.528605 0.962368 0.602761 -0.162646
C33   C     C_R   0.498459 0.500128 0.742540 0.866735
C34   C     C_R   0.745911 0.565523 0.493680 -0.200145
C35   C     C_3   0.483350 0.580070 0.070182 0.156240
C36   C     C_3   0.439729 0.446852 0.070496 0.149161
C37   C     C_3   0.485092 0.579355 0.926998 -0.418459
C38   C     C_3   0.436216 0.452745 0.926440 -0.431271
C39   C     C_3   0.566934 0.475301 0.073741 -0.556460
C40   C     C_3   0.495144 0.501162 0.121531 0.037799
C41   C     C_3   0.496664 0.500819 0.878735 0.083942
C42   C     C_R   0.453414 0.832971 0.733191 0.092754
C43   C     C_R   0.487331 0.817202 0.847183 -0.178905
C44   C     C_R   0.462723 0.845737 0.960472 -0.099434
C45   C     C_R   0.816877 0.433442 0.488325 -0.181099
C46   C     C_R   0.403608 0.889297 0.961055 -0.091315
C47   C     C_R   0.369034 0.904307 0.848372 -0.123997
C48   C     C_R   0.393991 0.876760 0.734586 -0.116190
C49   C     C_R   0.442456 0.165330 0.722571 0.099963
C50   C     C_R   0.382187 0.123228 0.712245 -0.117553
C51   C     C_R   0.351743 0.093511 0.819827 -0.134799
C52   C     C_R   0.381777 0.104555 0.938030 -0.099085
C53   C     C_R   0.441768 0.146405 0.949056 -0.123100
C54   C     C_R   0.471774 0.177253 0.841878 -0.183742
C55   C     C_R   0.817556 0.565121 0.488839 -0.179468
C56   C     C_R   0.853130 0.499082 0.486427 0.119982
C57   C     C_R   0.709482 0.499809 0.495975 -0.034991
C58   C     C_R   0.963970 0.543113 0.399601 -0.188414
H1    H     H_    0.526805 0.615075 0.102795 0.110035
H2    H     H_    0.457787 0.307402 0.683100 0.133560
H3    H     H_    0.529397 0.833536 0.312333 0.138945
H4    H     H_    0.537137 0.167150 0.315721 0.141335
H5    H     H_    0.532388 0.700156 0.310568 0.132380
H6    H     H_    0.540075 0.300806 0.315383 0.121617
H7    H     H_    0.438818 0.933416 0.331412 0.135188
H8    H     H_    0.439269 0.066489 0.329967 0.132960
H9    H     H_    0.554448 0.067023 0.677661 0.137868
H10   H     H_    0.555104 0.934262 0.678227 0.139467
H11   H     H_    0.435970 0.601355 0.887650 0.209490
H12   H     H_    0.456791 0.390793 0.094228 0.130520
H13   H     H_    0.386048 0.476753 0.896215 0.208010
H14   H     H_    0.527683 0.615510 0.894339 0.156309
H15   H     H_    0.439107 0.397333 0.885424 0.161331
H16   H     H_    0.608269 0.513109 0.105847 0.181203
H17   H     H_    0.579824 0.420737 0.112160 0.190240
H18   H     H_    0.610186 0.504721 0.891647 0.173584
H19   H     H_    0.574498 0.414818 0.898707 0.186857
H20   H     H_    0.718159 0.382395 0.494196 0.157012
H21   H     H_    0.719206 0.617109 0.495810 0.155886
H22   H     H_    0.843969 0.382074 0.485296 0.131571
H23   H     H_    0.062966 0.577209 0.332532 0.142853
H24   H     H_    0.845243 0.616185 0.488760 0.131424
H25   H     H_    0.936365 0.577342 0.333555 0.134164
H26   H     H_    0.937263 0.419912 0.635197 0.134058
H27   H     H_    0.532822 0.782913 0.848173 0.120527
H28   H     H_    0.489167 0.833621 0.047905 0.125416
H29   H     H_    0.384265 0.910922 0.048904 0.115989
H30   H     H_    0.322387 0.936586 0.849439 0.118539
H31   H     H_    0.366338 0.888356 0.648128 0.128945
H32   H     H_    0.358221 0.114473 0.621298 0.125992
H33   H     H_    0.304549 0.062361 0.811516 0.116613
H34   H     H_    0.063534 0.419800 0.634225 0.136544
H35   H     H_    0.358323 0.081082 0.021106 0.115258
H36   H     H_    0.464763 0.155314 0.040722 0.121108
H37   H     H_    0.517953 0.210062 0.851655 0.120810
H38   H     H_    0.156114 0.381932 0.483665 0.132335
H39   H     H_    0.154859 0.616057 0.486199 0.132888
H40   H     H_    0.281912 0.382331 0.493355 0.161418
H41   H     H_    0.280880 0.617048 0.493886 0.165755
H42   H     H_    0.465664 0.691857 0.688418 0.139781
N1    N     N_R   0.499980 0.689440 0.500020 -0.097330
N2    N     N_R   0.499980 0.310560 0.500020 -0.095494
O1    O     O_R   0.398180 0.560840 0.500010 -0.604006
O2    O     O_R   0.398180 0.439160 0.500010 -0.615378
O3    O     O_R   0.499990 0.560810 0.314820 -0.609107
O4    O     O_R   0.499990 0.439190 0.314820 -0.633435
O5    O     O_R   0.601820 0.560790 0.500050 -0.626834
O6    O     O_R   0.601820 0.439210 0.500050 -0.623377
O7    O     O_R   0.500010 0.560810 0.685230 -0.644405
O8    O     O_R   0.500010 0.439190 0.685230 -0.639548
Zn1   Zn    Zn3+2 0.500000 0.581210 0.500040 0.961927
Zn2   Zn    Zn3+2 0.500000 0.418790 0.500040 0.947309

loop_
_geom_bond_atom_site_label_1
_geom_bond_atom_site_label_2
_ccdc_geom_bond_type
C53   C54   A    
C7    H38   S    
C23   H20   S    
C39   C40   S    
C22   C25   A    
C47   H30   S    
C2    C6    A    
C34   C57   A    
O8    Zn2   S    
C1    C13   S    
C43   C44   A    
C1    O1    A    
C19   C29   S    
C30   O6    A    
O2    Zn2   S    
O1    Zn1   S    
C26   C27   A    
C43   H27   S    
C7    C14   A    
C36   C40   S    
C18   C49   S    
C39   H17   S    
C3    H23   S    
C37   H14   S    
C2    H26   S    
C25   N2    A    
C38   H13   S    
C9    C40   S    
C49   C54   A    
C21   C24   A    
O4    Zn2   S    
C35   C40   S    
O3    Zn1   S    
C6    C56   S    
C52   C53   A    
C38   C41   S    
C4    H34   S    
C33   C41   S    
O6    Zn2   S    
C3    C58   A    
O5    Zn1   S    
C21   H3    S    
C22   H4    S    
C54   H37   S    
C44   H28   S    
C1    O2    A    
C36   H12   S    
C29   C32   A    
C30   O5    A    
C51   H33   S    
C49   C50   A    
C26   H7    S    
C2    C4    A    
C34   C55   A    
C3    C5    A    
C16   H2    S    
C37   C41   S    
C51   C52   A    
C15   H42   S    
C27   C28   A    
C24   N1    A    
C27   H8    S    
Br2   C36   S    
C10   C13   A    
C34   H21   S    
C31   C32   A    
C55   H24   S    
O7    Zn1   S    
C16   N2    A    
C12   H19   S    
C52   H35   S    
C12   C39   S    
N2    Zn2   S    
C5    C14   S    
C18   C20   A    
C46   H29   S    
C11   C13   A    
C9    O3    A    
C20   C22   A    
C50   H32   S    
C11   H41   S    
C33   O7    A    
C17   C42   S    
C42   C48   A    
C32   H10   S    
C23   C45   A    
C46   C47   A    
C20   C28   S    
C28   C31   A    
N1    Zn1   S    
C24   H5    S    
C45   H22   S    
C26   C29   A    
C42   C43   A    
C53   H36   S    
C8    C11   A    
C35   H1    S    
C58   H25   S    
C4    C5    A    
C31   H9    S    
C38   H15   S    
C19   C21   A    
C15   N1    A    
C35   C37   S    
C25   H6    S    
C8    C14   A    
C6    C58   A    
C45   C56   A    
C36   C38   S    
C55   C56   A    
C15   C17   A    
C39   H16   S    
C16   C18   A    
C12   H18   S    
C8    H39   S    
C7    C10   A    
C10   H40   S    
C44   C46   A    
C48   H31   S    
C47   C48   A    
C9    O4    A    
C37   H11   S    
C12   C41   S    
C23   C57   A    
C30   C57   S    
C33   O8    A    
C50   C51   A    
Br1   C35   S    
C17   C19   A    
