data_mof_unit_pretest_1301.cif
_audit_creation_date              2012-12-10T16:49:26-0500
_audit_creation_method            fapswitch 2.2
_symmetry_space_group_name_H-M    P1
_symmetry_Int_Tables_number       1
_space_group_crystal_system       triclinic
_cell_length_a                    7.754669
_cell_length_b                    8.579038
_cell_length_c                    12.864937
_cell_angle_alpha                 90.11297
_cell_angle_beta                  87.882521
_cell_angle_gamma                 93.590299
_cell_volume                      853.610278862

loop_
_atom_site_label
_atom_site_type_symbol
_atom_type_description
_atom_site_fract_x
_atom_site_fract_y
_atom_site_fract_z
_atom_type_partial_charge
C1    C     C_R   0.454661 0.205229 0.497280 0.968021
C2    C     C_R   0.545339 0.794771 0.502720 0.968021
C3    C     C_R   0.465432 0.501368 0.699788 0.923111
C4    C     C_R   0.534567 0.498632 0.300212 0.923114
C5    C     C_R   0.555572 0.496986 0.189027 -0.181659
C6    C     C_R   0.444428 0.503015 0.810972 -0.181660
C7    C     C_R   0.286019 0.571080 0.966758 0.705999
C8    C     C_R   0.713983 0.428923 0.033242 0.705999
C9    C     C_R   0.295686 0.557779 0.859534 -0.243205
C10   C     C_R   0.704315 0.442224 0.140466 -0.243205
C11   C     C_R   0.581152 0.456532 0.868779 -0.192973
C12   C     C_R   0.418848 0.543469 0.131222 -0.192971
C13   C     C_R   0.574319 0.470798 0.975313 -0.054420
C14   C     C_R   0.425681 0.529203 0.024687 -0.054418
C15   C     C_2   0.430780 0.041771 0.495738 -0.366562
C16   C     C_2   0.569220 0.958229 0.504262 -0.366562
H1    H     H_    0.305266 0.588551 0.169426 0.222836
H2    H     H_    0.694734 0.411450 0.830574 0.222835
H3    H     H_    0.810516 0.406319 0.185339 0.192715
H4    H     H_    0.189486 0.593686 0.814661 0.192713
H5    H     H_    0.998586 0.615565 0.421829 0.198117
H6    H     H_    0.001414 0.384435 0.578171 0.198117
H7    H     H_    0.299995 0.990698 0.487614 0.183191
H8    H     H_    0.700005 0.009302 0.512386 0.183191
N1    N     N_2   0.054030 0.541640 0.471970 -0.173104
N2    N     N_2   0.945970 0.458360 0.528030 -0.173104
O1    O     O_R   0.609680 0.261530 0.506880 -0.614396
O2    O     O_R   0.390320 0.738470 0.493120 -0.614396
O3    O     O_R   0.323330 0.288220 0.488910 -0.627840
O4    O     O_R   0.676670 0.711780 0.511090 -0.627840
O5    O     O_R   0.619510 0.488830 0.661140 -0.620313
O6    O     O_R   0.380490 0.511170 0.338860 -0.620314
O7    O     O_R   0.333160 0.515520 0.643180 -0.629212
O8    O     O_R   0.666840 0.484480 0.356820 -0.629213
Zn1   Zn    Zn3+2 0.691200 0.482180 0.511990 0.958601
Zn2   Zn    Zn3+2 0.308800 0.517820 0.488010 0.958600
F1    F     F_    0.142245 0.626605 0.013440 -0.648907
F2    F     F_    0.857757 0.373400 0.986560 -0.648907

loop_
_geom_bond_atom_site_label_1
_geom_bond_atom_site_label_2
_ccdc_geom_bond_type
C12   H1    S    
C11   H2    S    
C8    C13   A    
C1    C15   S    
C2    C16   S    
C9    H4    S    
C10   H3    S    
C2    O4    A    
C3    C6    S    
C6    C9    A    
C1    O3    A    
C7    F1    S    
C5    C10   A    
C16   H8    S    
C13   C14   A    
C3    O5    A    
C11   C13   A    
O3    Zn2   S    
C4    O6    A    
C8    F2    S    
O4    Zn1   S    
O6    Zn2   S    
C15   H7    S    
C12   C14   A    
C4    O8    A    
O5    Zn1   S    
C3    O7    A    
N1    Zn2   S    
C15   C16   D    
C7    C9    A    
N2    Zn1   S    
O7    Zn2   S    
O2    Zn2   S    
C5    C12   A    
C8    C10   A    
O8    Zn1   S    
H6    N2    S    
C6    C11   A    
C1    O1    A    
H5    N1    S    
C2    O2    A    
O1    Zn1   S    
N1    N2    D    
C7    C14   A    
C4    C5    S    
