data_mof_unit_pretest_296.cif
_audit_creation_date              2012-12-11T15:08:58-0500
_audit_creation_method            fapswitch 2.2
_symmetry_space_group_name_H-M    P1
_symmetry_Int_Tables_number       1
_space_group_crystal_system       triclinic
_cell_length_a                    19.609762
_cell_length_b                    11.357113
_cell_length_c                    18.703769
_cell_angle_alpha                 90.022167
_cell_angle_beta                  90.56236
_cell_angle_gamma                 89.976122
_cell_volume                      4165.32037814

loop_
_atom_site_label
_atom_site_type_symbol
_atom_type_description
_atom_site_fract_x
_atom_site_fract_y
_atom_site_fract_z
_atom_type_partial_charge
C1    C     C_R   0.273153 0.041758 0.854882 0.530240
C2    C     C_R   0.728097 0.044645 0.146651 0.530174
C3    C     C_R   0.773153 0.541759 0.854882 0.530232
C4    C     C_R   0.228100 0.544654 0.146655 0.530181
C5    C     C_3   0.522260 0.733026 0.962082 -0.108882
C6    C     C_3   0.484024 0.719253 0.032846 -0.110470
C7    C     C_3   0.022250 0.233081 0.962074 -0.108870
C8    C     C_3   0.983991 0.219222 0.032821 -0.110524
C9    C     C_3   0.315843 0.539328 0.046511 -0.235206
C10   C     C_3   0.691655 0.515257 0.958725 -0.231806
C11   C     C_3   0.815832 0.039304 0.046503 -0.235205
C12   C     C_3   0.191654 0.015256 0.958723 -0.231806
C13   C     C_3   0.323315 0.557948 0.965004 -0.232901
C14   C     C_3   0.686923 0.524048 0.041035 -0.240466
C15   C     C_3   0.823298 0.057894 0.964994 -0.232908
C16   C     C_3   0.186921 0.024052 0.041033 -0.240475
C17   C     C_3   0.187127 0.513432 0.025811 -0.214267
C18   C     C_3   0.822711 0.530191 0.974992 -0.211653
C19   C     C_3   0.687110 0.013433 0.025804 -0.214260
C20   C     C_3   0.322710 0.030193 0.974991 -0.211654
C21   C     C_3   0.235913 0.707175 0.056012 -0.255499
C22   C     C_3   0.752683 0.703124 0.944634 -0.252530
C23   C     C_3   0.735913 0.207163 0.056008 -0.255502
C24   C     C_3   0.252680 0.203126 0.944628 -0.252541
C25   C     C_3   0.243101 0.575870 0.071055 0.064290
C26   C     C_3   0.759158 0.571496 0.931080 0.061859
C27   C     C_3   0.743092 0.075857 0.071049 0.064289
C28   C     C_3   0.259157 0.071496 0.931078 0.061869
C29   C     C_3   0.256552 0.610270 0.932578 0.055033
C30   C     C_3   0.744903 0.604702 0.069502 0.058745
C31   C     C_3   0.756544 0.110255 0.932573 0.055039
C32   C     C_3   0.244899 0.104711 0.069498 0.058749
C33   C     C_3   0.199834 0.520777 0.944773 -0.255200
C34   C     C_3   0.813302 0.544316 0.055778 -0.245102
C35   C     C_3   0.699812 0.020788 0.944765 -0.255178
C36   C     C_3   0.313300 0.044323 0.055776 -0.245083
C37   C     C_3   0.236698 0.723908 0.974263 -0.223457
C38   C     C_3   0.740848 0.720186 0.025572 -0.222847
C39   C     C_3   0.736702 0.223899 0.974259 -0.223449
C40   C     C_3   0.240838 0.220192 0.025564 -0.222866
C41   C     C_3   0.516980 0.693290 0.465083 0.154895
C42   C     C_3   0.483024 0.693283 0.534863 0.154704
C43   C     C_3   0.016980 0.193290 0.465083 0.154895
C44   C     C_3   0.983024 0.193283 0.534863 0.154704
C45   C     C_R   0.442746 0.817180 0.862037 0.531386
C46   C     C_R   0.554104 0.817527 0.137633 0.532636
C47   C     C_R   0.942733 0.317179 0.862028 0.531440
C48   C     C_R   0.054026 0.317536 0.137618 0.532575
C49   C     C_3   0.563502 0.898911 0.474621 -0.291712
C50   C     C_3   0.436508 0.898915 0.525444 -0.291670
C51   C     C_3   0.063502 0.398911 0.474621 -0.291712
C52   C     C_3   0.936508 0.398915 0.525444 -0.291670
C53   C     C_3   0.441952 0.875704 0.443821 -0.298820
C54   C     C_3   0.558063 0.875625 0.556226 -0.298729
C55   C     C_3   0.941952 0.375704 0.443821 -0.298821
C56   C     C_3   0.058063 0.375625 0.556226 -0.298729
C57   C     C_3   0.512602 0.821011 0.431051 0.019516
C58   C     C_3   0.487416 0.820961 0.568965 0.019334
C59   C     C_3   0.012603 0.321011 0.431051 0.019517
C60   C     C_3   0.987416 0.320961 0.568965 0.019334
C61   C     C_3   0.175090 0.628233 0.462837 -0.261700
C62   C     C_3   0.824877 0.628161 0.537171 -0.261722
C63   C     C_3   0.675090 0.128233 0.462837 -0.261701
C64   C     C_3   0.324877 0.128161 0.537171 -0.261723
C65   C     C_3   0.181112 0.650042 0.541330 -0.261603
C66   C     C_3   0.818868 0.650007 0.458688 -0.261525
C67   C     C_3   0.681112 0.150042 0.541330 -0.261603
C68   C     C_3   0.318868 0.150007 0.458688 -0.261524
C69   C     C_3   0.252794 0.447656 0.477453 -0.209409
C70   C     C_3   0.747244 0.447607 0.522435 -0.209591
C71   C     C_3   0.752794 0.947656 0.477453 -0.209409
C72   C     C_3   0.247244 0.947607 0.522435 -0.209592
C73   C     C_3   0.297343 0.648482 0.446121 -0.081852
C74   C     C_3   0.702639 0.648424 0.553914 -0.081734
C75   C     C_3   0.797343 0.148482 0.446121 -0.081852
C76   C     C_3   0.202638 0.148424 0.553914 -0.081734
C77   C     C_3   0.237978 0.563766 0.433111 0.046835
C78   C     C_3   0.762024 0.563678 0.566866 0.046416
C79   C     C_3   0.737978 0.063766 0.433111 0.046833
C80   C     C_3   0.262024 0.063678 0.566866 0.046417
C81   C     C_3   0.249750 0.600658 0.570649 0.079984
C82   C     C_3   0.750261 0.600669 0.429336 0.080300
C83   C     C_3   0.749750 0.100658 0.570649 0.079985
C84   C     C_3   0.250261 0.100669 0.429336 0.080301
C85   C     C_3   0.246802 0.467792 0.560279 -0.057390
C86   C     C_3   0.753247 0.467788 0.439623 -0.057246
C87   C     C_3   0.746802 0.967793 0.560278 -0.057390
C88   C     C_3   0.253247 0.967788 0.439623 -0.057246
C89   C     C_R   0.262655 0.642427 0.855131 0.529323
C90   C     C_R   0.738288 0.638841 0.146319 0.528130
C91   C     C_R   0.762652 0.142417 0.855128 0.529318
C92   C     C_R   0.238286 0.138849 0.146315 0.528153
C93   C     C_3   0.312026 0.644739 0.527104 -0.171643
C94   C     C_3   0.687982 0.644767 0.472919 -0.171531
C95   C     C_3   0.812026 0.144739 0.527104 -0.171642
C96   C     C_3   0.187982 0.144767 0.472919 -0.171531
C97   C     C_R   0.275299 0.037388 0.643614 0.535898
C98   C     C_R   0.724723 0.037481 0.356365 0.534904
C99   C     C_R   0.775299 0.537388 0.643614 0.535899
C100  C     C_R   0.224723 0.537481 0.356365 0.534897
C101  C     C_R   0.467271 0.821450 0.645051 0.562932
C102  C     C_R   0.532736 0.821487 0.354956 0.562215
C103  C     C_R   0.967271 0.321450 0.645051 0.562931
C104  C     C_R   0.032736 0.321487 0.354956 0.562203
C105  C     C_R   0.260014 0.638702 0.645158 0.572029
C106  C     C_R   0.739986 0.638748 0.354843 0.570642
C107  C     C_R   0.760014 0.138702 0.645158 0.572028
C108  C     C_R   0.239985 0.138748 0.354843 0.570638
C109  C     C_3   0.471413 0.910124 0.039114 -0.110000
C110  C     C_3   0.509871 0.924031 0.967600 -0.111475
C111  C     C_3   0.971299 0.410083 0.039124 -0.110095
C112  C     C_3   0.009781 0.424077 0.967626 -0.111457
C113  C     C_3   0.429565 0.807180 0.006895 -0.161415
C114  C     C_3   0.564202 0.835134 0.993203 -0.162670
C115  C     C_3   0.929506 0.307096 0.006868 -0.161437
C116  C     C_3   0.064139 0.335234 0.993232 -0.162632
C117  C     C_3   0.468613 0.821753 0.936408 0.054842
C118  C     C_3   0.525593 0.821960 0.064103 0.060716
C119  C     C_3   0.968575 0.321755 0.936399 0.054882
C120  C     C_3   0.025503 0.321972 0.064109 0.060718
Cr1   Cr    Cr6+3 0.229620 0.836040 0.749110 1.006611
Cr2   Cr    Cr6+3 0.770380 0.836040 0.250890 1.006612
Cr3   Cr    Cr6+3 0.729620 0.336040 0.749110 1.006605
Cr4   Cr    Cr6+3 0.270380 0.336040 0.250890 1.006629
Cr5   Cr    Cr6+3 0.387630 0.990680 0.750730 1.008479
Cr6   Cr    Cr6+3 0.612370 0.990680 0.249270 1.009055
Cr7   Cr    Cr6+3 0.887630 0.490680 0.750730 1.008474
Cr8   Cr    Cr6+3 0.112370 0.490680 0.249270 1.009077
Cr9   Cr    Cr6+3 0.386020 0.676590 0.749210 1.059988
Cr10  Cr    Cr6+3 0.613980 0.676590 0.250790 1.059623
Cr11  Cr    Cr6+3 0.886020 0.176590 0.749210 1.059981
Cr12  Cr    Cr6+3 0.113980 0.176590 0.250790 1.059652
H1    H     H_    0.375264 0.790215 0.016661 0.091568
H2    H     H_    0.615920 0.840331 0.972726 0.096412
H3    H     H_    0.875200 0.290079 0.016598 0.091581
H4    H     H_    0.115860 0.340462 0.972779 0.096396
H5    H     H_    0.186882 0.740458 0.077516 0.132133
H6    H     H_    0.799523 0.750773 0.928041 0.127886
H7    H     H_    0.686882 0.240450 0.077509 0.132131
H8    H     H_    0.299521 0.250776 0.928038 0.127893
H9    H     H_    0.277604 0.757418 0.082509 0.104662
H10   H     H_    0.709136 0.738682 0.912910 0.102705
H11   H     H_    0.777602 0.257402 0.082510 0.104664
H12   H     H_    0.209132 0.238682 0.912903 0.102711
H13   H     H_    0.270904 0.795718 0.959702 0.107734
H14   H     H_    0.688334 0.748755 0.033530 0.100474
H15   H     H_    0.770911 0.295703 0.959697 0.107718
H16   H     H_    0.188317 0.248751 0.033503 0.100491
H17   H     H_    0.183624 0.745945 0.957961 0.134591
H18   H     H_    0.777038 0.786018 0.046307 0.138090
H19   H     H_    0.683630 0.245950 0.957958 0.134589
H20   H     H_    0.277019 0.286039 0.046301 0.138083
H21   H     H_    0.636237 0.053097 0.036604 0.141105
H22   H     H_    0.368415 0.082408 0.959731 0.139937
H23   H     H_    0.136250 0.553090 0.036605 0.141118
H24   H     H_    0.868416 0.582402 0.959731 0.139933
H25   H     H_    0.152018 0.547583 0.916629 0.127878
H26   H     H_    0.855657 0.598839 0.077839 0.133760
H27   H     H_    0.651999 0.047623 0.916627 0.127865
H28   H     H_    0.355660 0.098832 0.077839 0.133770
H29   H     H_    0.568180 0.681851 0.480870 0.166483
H30   H     H_    0.431813 0.681896 0.519077 0.166505
H31   H     H_    0.068180 0.181851 0.480870 0.166483
H32   H     H_    0.931813 0.181896 0.519077 0.166505
H33   H     H_    0.615571 0.889577 0.455933 0.110751
H34   H     H_    0.384441 0.889563 0.544122 0.110765
H35   H     H_    0.115571 0.389577 0.455933 0.110750
H36   H     H_    0.884441 0.389563 0.544122 0.110765
H37   H     H_    0.598807 0.816613 0.575028 0.163946
H38   H     H_    0.401227 0.816711 0.424972 0.163858
H39   H     H_    0.098808 0.316613 0.575028 0.163946
H40   H     H_    0.901227 0.316711 0.424972 0.163857
H41   H     H_    0.452621 0.983583 0.072461 0.116728
H42   H     H_    0.520331 0.009212 0.940763 0.117339
H43   H     H_    0.952481 0.483493 0.072493 0.116687
H44   H     H_    0.020217 0.509285 0.940811 0.117351
H45   H     H_    0.436558 0.959502 0.413758 0.122007
H46   H     H_    0.563448 0.959403 0.586349 0.122300
H47   H     H_    0.936558 0.459502 0.413758 0.122005
H48   H     H_    0.063448 0.459403 0.586349 0.122301
H49   H     H_    0.453674 0.990303 0.534609 0.147804
H50   H     H_    0.546335 0.990336 0.465535 0.147681
H51   H     H_    0.953674 0.490303 0.534609 0.147804
H52   H     H_    0.046335 0.490335 0.465535 0.147680
H53   H     H_    0.128990 0.582999 0.450297 0.144877
H54   H     H_    0.870998 0.582989 0.549699 0.144796
H55   H     H_    0.628990 0.082999 0.450297 0.144877
H56   H     H_    0.370998 0.082989 0.549699 0.144796
H57   H     H_    0.166894 0.711599 0.435228 0.136036
H58   H     H_    0.833030 0.711495 0.564833 0.136074
H59   H     H_    0.666894 0.211599 0.435228 0.136036
H60   H     H_    0.333030 0.211495 0.564833 0.136074
H61   H     H_    0.175821 0.744690 0.550639 0.150882
H62   H     H_    0.824122 0.744647 0.449437 0.150837
H63   H     H_    0.675821 0.244690 0.550639 0.150882
H64   H     H_    0.324122 0.244647 0.449437 0.150836
H65   H     H_    0.137377 0.609337 0.569299 0.127732
H66   H     H_    0.862620 0.609313 0.430697 0.127573
H67   H     H_    0.637377 0.109337 0.569299 0.127731
H68   H     H_    0.362620 0.109313 0.430697 0.127574
H69   H     H_    0.721345 0.876505 0.459004 0.092778
H70   H     H_    0.278709 0.876444 0.540829 0.092600
H71   H     H_    0.221345 0.376505 0.459004 0.092778
H72   H     H_    0.778709 0.376444 0.540829 0.092601
H73   H     H_    0.697058 0.934236 0.579383 0.122670
H74   H     H_    0.303007 0.934229 0.420507 0.122558
H75   H     H_    0.197058 0.434236 0.579383 0.122670
H76   H     H_    0.803007 0.434229 0.420507 0.122557
H77   H     H_    0.282711 0.739120 0.432929 0.139576
H78   H     H_    0.717236 0.739050 0.567203 0.139484
H79   H     H_    0.782711 0.239120 0.432929 0.139576
H80   H     H_    0.217236 0.239050 0.567203 0.139484
H81   H     H_    0.543042 0.658735 0.930591 0.126628
H82   H     H_    0.474082 0.633345 0.058993 0.124072
H83   H     H_    0.043080 0.158840 0.930570 0.126624
H84   H     H_    0.974078 0.133294 0.058956 0.124040
H85   H     H_    0.331972 0.727070 0.547958 0.071998
H86   H     H_    0.668041 0.727149 0.452150 0.072042
H87   H     H_    0.831972 0.227070 0.547958 0.071998
H88   H     H_    0.168041 0.227149 0.452150 0.072041
H89   H     H_    0.352553 0.578932 0.536475 0.206595
H90   H     H_    0.647487 0.578981 0.463481 0.206524
H91   H     H_    0.852553 0.078932 0.536476 0.206595
H92   H     H_    0.147487 0.078980 0.463481 0.206524
H93   H     H_    0.305146 0.420342 0.465827 0.134342
H94   H     H_    0.694903 0.420279 0.534023 0.134255
H95   H     H_    0.805146 0.920342 0.465827 0.134342
H96   H     H_    0.194903 0.920279 0.534023 0.134255
H97   H     H_    0.328218 0.447333 0.060175 0.130532
H98   H     H_    0.684968 0.425011 0.940782 0.134491
H99   H     H_    0.828211 0.947317 0.060179 0.130530
H100  H     H_    0.184966 0.925010 0.940781 0.134493
H101  H     H_    0.354354 0.593320 0.075591 0.115280
H102  H     H_    0.647593 0.562332 0.934268 0.111490
H103  H     H_    0.854345 0.093304 0.075573 0.115289
H104  H     H_    0.147592 0.062329 0.934265 0.111481
H105  H     H_    0.367156 0.616262 0.954093 0.135425
H106  H     H_    0.635936 0.560000 0.055004 0.138517
H107  H     H_    0.867156 0.116163 0.954066 0.135456
H108  H     H_    0.135934 0.060002 0.055001 0.138520
H109  H     H_    0.334998 0.472186 0.939063 0.119730
H110  H     H_    0.691040 0.436138 0.065877 0.114838
H111  H     H_    0.834954 0.972113 0.939060 0.119708
H112  H     H_    0.191039 0.936144 0.065878 0.114838
H113  H     H_    0.684117 0.923934 0.044701 0.099025
H114  H     H_    0.335248 0.940061 0.960419 0.099498
H115  H     H_    0.184142 0.423931 0.044714 0.099040
H116  H     H_    0.835244 0.440060 0.960418 0.099529
H117  H     H_    0.714998 0.934340 0.923026 0.109896
H118  H     H_    0.315287 0.957250 0.082723 0.106744
H119  H     H_    0.215035 0.434331 0.923044 0.109909
H120  H     H_    0.815295 0.457242 0.082725 0.106748
O1    O     O_R   0.214130 0.708570 0.829890 -0.527702
O2    O     O_R   0.785870 0.708570 0.170110 -0.529031
O3    O     O_R   0.714130 0.208570 0.829890 -0.527708
O4    O     O_R   0.285870 0.208570 0.170110 -0.529026
O5    O     O_R   0.446360 0.919990 0.675230 -0.514434
O6    O     O_R   0.553640 0.919990 0.324770 -0.514914
O7    O     O_R   0.946360 0.419990 0.675230 -0.514435
O8    O     O_R   0.053640 0.419990 0.324770 -0.514919
O9    O     O_R   0.457170 0.717300 0.668380 -0.442794
O10   O     O_R   0.542830 0.717300 0.331620 -0.442903
O11   O     O_R   0.957170 0.217300 0.668380 -0.442796
O12   O     O_R   0.042830 0.217300 0.331620 -0.442905
O13   O     O_R   0.320870 0.624890 0.673130 -0.464670
O14   O     O_R   0.679130 0.624890 0.326870 -0.465298
O15   O     O_R   0.820870 0.124890 0.673130 -0.464670
O16   O     O_R   0.179130 0.124890 0.326870 -0.465300
O17   O     O_3   0.334430 0.834430 0.749680 -0.310011
O18   O     O_3   0.665570 0.834430 0.250320 -0.305652
O19   O     O_3   0.834430 0.334430 0.749680 -0.310024
O20   O     O_3   0.165570 0.334430 0.250320 -0.305591
O21   O     O_R   0.236050 0.959150 0.825270 -0.512895
O22   O     O_R   0.763950 0.959150 0.174730 -0.511698
O23   O     O_R   0.736050 0.459150 0.825270 -0.512892
O24   O     O_R   0.263950 0.459150 0.174730 -0.511697
O25   O     O_R   0.332100 0.076650 0.832310 -0.529068
O26   O     O_R   0.667900 0.076650 0.167690 -0.529364
O27   O     O_R   0.832100 0.576650 0.832310 -0.529072
O28   O     O_R   0.167900 0.576650 0.167690 -0.529347
O29   O     O_R   0.446500 0.918620 0.826240 -0.505395
O30   O     O_R   0.553500 0.918620 0.173760 -0.505205
O31   O     O_R   0.946500 0.418620 0.826240 -0.505416
O32   O     O_R   0.053500 0.418620 0.173760 -0.505171
O33   O     O_R   0.457310 0.715830 0.831280 -0.519326
O34   O     O_R   0.542690 0.715830 0.168720 -0.519662
O35   O     O_R   0.957310 0.215830 0.831280 -0.519344
O36   O     O_R   0.042690 0.215830 0.168720 -0.519644
O37   O     O_R   0.321000 0.623520 0.824130 -0.519553
O38   O     O_R   0.679000 0.623520 0.175870 -0.519428
O39   O     O_R   0.821000 0.123520 0.824130 -0.519563
O40   O     O_R   0.179000 0.123520 0.175870 -0.519390
O41   O     O_R   0.213990 0.710040 0.667000 -0.540923
O42   O     O_R   0.786010 0.710040 0.333000 -0.541676
O43   O     O_R   0.713990 0.210040 0.667000 -0.540924
O44   O     O_R   0.286010 0.210040 0.333000 -0.541679
O45   O     O_R   0.235920 0.960520 0.674260 -0.510643
O46   O     O_R   0.764080 0.960520 0.325740 -0.511480
O47   O     O_R   0.735920 0.460520 0.674260 -0.510641
O48   O     O_R   0.264080 0.460520 0.325740 -0.511488
O49   O     O_R   0.331960 0.078120 0.669410 -0.528250
O50   O     O_R   0.668040 0.078120 0.330590 -0.529124
O51   O     O_R   0.831960 0.578120 0.669410 -0.528249
O52   O     O_R   0.168040 0.578120 0.330590 -0.529128
Cl1   Cl    Cl    0.497438 0.557536 0.417529 -0.576696
Cl2   Cl    Cl    0.502580 0.557508 0.582347 -0.576429
Cl3   Cl    Cl    0.997438 0.057537 0.417529 -0.576698
Cl4   Cl    Cl    0.002580 0.057508 0.582347 -0.576428
N1    N     N_3   0.357098 0.620210 0.403315 -0.612138
H121  H     H_    0.349533 0.652584 0.351469 0.244444
H122  H     H_    0.364154 0.529624 0.398826 0.300901
N2    N     N_3   0.642881 0.620110 0.596673 -0.611989
H123  H     H_    0.650404 0.652460 0.648544 0.245010
H124  H     H_    0.635867 0.529522 0.601101 0.300868
N3    N     N_3   0.857098 0.120210 0.403316 -0.612139
H125  H     H_    0.849533 0.152584 0.351469 0.244442
H126  H     H_    0.864155 0.029624 0.398826 0.300902
N4    N     N_3   0.142881 0.120110 0.596673 -0.611989
H127  H     H_    0.150404 0.152460 0.648544 0.245010
H128  H     H_    0.135867 0.029522 0.601101 0.300868
N5    N     N_3   0.301815 0.413704 0.603144 -0.634385
H129  H     H_    0.284633 0.343773 0.634346 0.231372
H130  H     H_    0.345582 0.394277 0.574134 0.256867
N6    N     N_3   0.698271 0.413707 0.396706 -0.634665
H131  H     H_    0.715464 0.343617 0.365591 0.230807
H132  H     H_    0.654474 0.394426 0.425677 0.256963
N7    N     N_3   0.801814 0.913704 0.603144 -0.634385
H133  H     H_    0.784633 0.843773 0.634346 0.231372
H134  H     H_    0.845582 0.894277 0.574134 0.256867
N8    N     N_3   0.198271 0.913707 0.396706 -0.634666
H135  H     H_    0.215464 0.843617 0.365591 0.230806
H136  H     H_    0.154474 0.894426 0.425677 0.256964

loop_
_geom_bond_atom_site_label_1
_geom_bond_atom_site_label_2
_ccdc_geom_bond_type
C90   O38   A    
C82   C94   S    
C55   C59   S    
C73   C93   S    
C42   C58   S    
C29   C89   S    
C48   O32   A    
C75   C95   S    
C62   H58   S    
C24   H8    S    
C57   C102  S    
Cr6   O26   S    
C91   O39   A    
C59   C104  S    
Cr8   O8    S    
Cr2   O22   S    
C5    C6    S    
Cr10  O18   S    
C109  H41   S    
Cr11  O15   S    
C22   C38   S    
C29   C33   S    
C30   C38   S    
C77   C100  S    
C9    C13   S    
C87   H73   S    
C88   N8    S    
C11   C15   S    
C12   C16   S    
N6    H131  S    
C101  O5    A    
C95   H87   S    
C102  O10   A    
C21   H5    S    
C60   C103  S    
C110  H42   S    
C113  H1    S    
C61   H57   S    
C54   H37   S    
C23   H11   S    
C64   H60   S    
C109  C118  S    
C15   H111  S    
C11   H103  S    
C50   C53   S    
N8    H135  S    
Cr6   O6    S    
C9    H101  S    
C46   O34   A    
C7    C119  S    
C48   C120  S    
C62   C66   S    
C13   H105  S    
C20   C28   S    
C96   H88   S    
C54   H46   S    
C100  O52   A    
C43   C44   S    
C1    O25   A    
C2    O22   A    
C3    O27   A    
C11   C27   S    
C5    H81   S    
C58   C101  S    
C85   N5    S    
C53   H38   S    
C56   H39   S    
C4    O28   A    
C17   H23   S    
C55   H40   S    
C18   H24   S    
C11   H99   S    
Cr6   O18   S    
C3    C26   S    
Cr3   O47   S    
C84   C88   S    
C8    H84   S    
C53   H45   S    
Cr12  O20   S    
Cr1   O1    S    
Cr11  O39   S    
C17   C25   S    
Cr9   O33   S    
C19   C35   S    
C76   C96   S    
C32   C92   S    
C91   O3    A    
C98   O50   A    
C99   O47   A    
C21   H9    S    
C61   C65   S    
N5    H129  S    
C5    C117  S    
C78   C99   S    
C73   C77   S    
C104  O12   A    
C75   C79   S    
C75   N3    S    
C67   C83   S    
C15   H107  S    
C80   C97   S    
Cr1   O41   S    
C69   C77   S    
C111  C112  S    
Cr10  O34   S    
Cr3   O43   S    
C71   C79   S    
C4    C25   S    
C7    C8    S    
C32   C36   S    
C73   H77   S    
C44   C60   S    
C105  O13   A    
C39   H19   S    
C10   H98   S    
C49   C57   S    
N2    H123  S    
C40   H20   S    
C93   H85   S    
C108  O16   A    
C38   H14   S    
N4    H128  S    
C52   C60   S    
C14   H110  S    
C61   C77   S    
C110  C114  S    
C43   C59   S    
C62   H54   S    
Cr5   O49   S    
C76   H80   S    
C90   O2    A    
Cr7   O19   S    
Cr8   O20   S    
C92   O40   A    
C76   N4    S    
Cr3   O23   S    
Cr11  O11   S    
N1    H122  S    
C81   C105  S    
C30   C34   S    
C10   C14   S    
N7    H134  S    
C95   H91   S    
C116  C120  S    
C20   C36   S    
C7    C116  S    
C36   H118  S    
C22   H10   S    
C61   H53   S    
C114  H2    S    
Cr11  O19   S    
C64   H56   S    
C66   H66   S    
C47   O31   A    
C113  C117  S    
C16   H112  S    
C89   O37   A    
C112  H44   S    
Cr5   O29   S    
C63   H55   S    
C22   C26   S    
C46   O30   A    
Cr7   O7    S    
Cr8   O32   S    
Cr1   O17   S    
C112  C116  S    
C69   C85   S    
C85   H75   S    
C72   H70   S    
C56   H48   S    
Cr3   O19   S    
C21   C25   S    
Cr4   O20   S    
C55   H47   S    
C62   C78   S    
C76   C80   S    
C2    O26   A    
C42   H30   S    
C3    O23   A    
C16   C32   S    
C31   C91   S    
C72   C80   S    
C115  H3    S    
C82   C106  S    
C51   C59   S    
C16   H108  S    
N6    H132  S    
C94   H90   S    
C86   N6    S    
Cr4   O44   S    
Cr8   O28   S    
C81   C85   S    
C98   O46   A    
C83   C87   S    
C41   H29   S    
C41   C42   S    
C74   C94   S    
C18   C26   S    
C30   C90   S    
C43   Cl3   S    
C9    C25   S    
C75   H79   S    
N8    H136  S    
C12   C28   S    
C13   C29   S    
C105  O41   A    
C67   H67   S    
C107  O43   A    
C17   H115  S    
C45   C117  S    
C45   O33   A    
C46   C118  S    
C71   H69   S    
C104  O8    A    
C66   H62   S    
C51   H35   S    
C50   H34   S    
C1    C28   S    
Cr1   O45   S    
C2    C27   S    
Cr2   O42   S    
C102  O6    A    
C73   N1    S    
Cr3   O3    S    
Cr4   O48   S    
C52   C55   S    
Cr12  O12   S    
N3    H125  S    
C70   H72   S    
C64   C80   S    
C17   C33   S    
Cr9   O9    S    
C110  C117  S    
C38   H18   S    
C33   H25   S    
C65   H61   S    
C10   H102  S    
C106  O14   A    
C40   H16   S    
C68   C84   S    
C24   C28   S    
C97   O45   A    
C51   H52   S    
C86   H76   S    
C14   H106  S    
C53   C57   S    
C82   C86   S    
C56   C60   S    
C115  C119  S    
C50   C58   S    
C49   H33   S    
C111  C115  S    
C65   C81   S    
C6    H82   S    
C68   H64   S    
C15   C31   S    
Cr10  O10   S    
C71   C87   S    
C92   O4    A    
C42   Cl2   S    
C31   C35   S    
C64   C68   S    
Cr9   O13   S    
C103  O7    A    
C37   H17   S    
C69   H93   S    
Cr2   O2    S    
C112  C119  S    
C116  H4    S    
C22   H6    S    
C44   Cl4   S    
C41   C57   S    
N7    H133  S    
C47   O35   A    
C109  C110  S    
C48   O36   A    
Cr5   O25   S    
C24   H12   S    
C63   H59   S    
Cr6   O30   S    
C41   Cl1   S    
C84   C108  S    
N2    H124  S    
Cr1   O21   S    
C74   N2    S    
Cr2   O18   S    
Cr10  O14   S    
C18   H116  S    
C21   C37   S    
C74   C78   S    
C29   C37   S    
C44   H32   S    
C7    H83   S    
C43   H31   S    
C101  O9    A    
C5    C114  S    
C70   C78   S    
C79   C98   S    
C52   H51   S    
C35   H117  S    
Cr4   O4    S    
C108  O44   A    
C63   C79   S    
N1    H121  S    
C20   H22   S    
C74   H78   S    
C111  H43   S    
C23   H7    S    
Cr7   O51   S    
Cr8   O52   S    
C66   C82   S    
C49   C54   S    
Cr5   O5    S    
C94   H86   S    
C19   H21   S    
C9    H97   S    
C51   C56   S    
C84   C96   S    
Cr7   O31   S    
C33   H119  S    
C8    C115  S    
C13   H109  S    
C83   C107  S    
N5    H130  S    
Cr6   O50   S    
Cr12  O40   S    
C23   C27   S    
C100  O48   A    
C19   C27   S    
C1    O21   A    
C109  C113  S    
C10   C26   S    
C47   C119  S    
Cr9   O37   S    
C89   O1    A    
C14   C30   S    
C67   H63   S    
C106  O42   A    
C72   C88   S    
C12   H100  S    
C63   C67   S    
C70   H94   S    
N3    H126  S    
C45   O29   A    
C4    O24   A    
C96   H92   S    
Cr5   O17   S    
C111  C120  S    
Cr2   O46   S    
C6    C113  S    
N4    H127  S    
Cr12  O16   S    
C81   C93   S    
C83   C95   S    
Cr10  O38   S    
C18   C34   S    
C114  C118  S    
C65   H65   S    
C34   H26   S    
C69   H71   S    
C107  O15   A    
C50   H49   S    
C97   O49   A    
C70   C86   S    
C99   O51   A    
C19   H113  S    
C54   C58   S    
C12   H104  S    
C8    C120  S    
C71   H95   S    
C88   H74   S    
C93   H89   S    
C87   N7    S    
C72   H96   S    
C68   H68   S    
Cr7   O27   S    
C52   H36   S    
Cr11  O35   S    
Cr4   O24   S    
Cr12  O36   S    
C23   C39   S    
C20   H114  S    
C24   C40   S    
C31   C39   S    
C32   C40   S    
C35   H27   S    
Cr9   O17   S    
C36   H28   S    
C49   H50   S    
C39   H15   S    
C103  O11   A    
C34   H120  S    
C37   H13   S    
C6    C118  S    
