data_mof_unit_pretest_1627.cif
_audit_creation_date              2012-10-26T21:09:29-0400
_audit_creation_method            fapswitch 2.2
_symmetry_space_group_name_H-M    P1
_symmetry_Int_Tables_number       1
_space_group_crystal_system       triclinic
_cell_length_a                    15.997095
_cell_length_b                    14.800118
_cell_length_c                    11.72735
_cell_angle_alpha                 90.00001
_cell_angle_beta                  89.975294
_cell_angle_gamma                 90.0
_cell_volume                      2776.5541534

loop_
_atom_site_label
_atom_site_type_symbol
_atom_type_description
_atom_site_fract_x
_atom_site_fract_y
_atom_site_fract_z
_atom_type_partial_charge
C1    C     C_R   0.340873 0.500000 0.500020 0.550099
C2    C     C_R   0.445495 0.047852 0.427008 0.276783
C3    C     C_R   0.445496 0.952148 0.427008 0.276783
C4    C     C_R   0.554504 0.047852 0.572992 0.276783
C5    C     C_1   0.500000 0.802435 0.500000 0.114271
C6    C     C_1   0.500000 0.197565 0.500000 0.114271
C7    C     C_1   0.500006 0.500000 0.162031 -0.000911
C8    C     C_1   0.499994 0.500000 0.837969 -0.000911
C9    C     C_1   0.500002 0.500000 0.059766 -0.016845
C10   C     C_1   0.499998 0.500000 0.940234 -0.016846
C11   C     C_R   0.956376 0.582007 0.500207 -0.096166
C12   C     C_R   0.659127 0.500000 0.499980 0.550099
C13   C     C_R   0.043623 0.417992 0.499793 -0.096166
C14   C     C_R   0.043623 0.582007 0.500233 -0.096165
C15   C     C_R   0.956377 0.417992 0.499767 -0.096165
C16   C     C_R   0.912780 0.500000 0.499978 0.037201
C17   C     C_R   0.087220 0.500000 0.500022 0.037202
C18   C     C_1   0.823316 0.500000 0.499976 -0.043980
C19   C     C_1   0.176684 0.500000 0.500024 -0.043980
C20   C     C_1   0.251738 0.500000 0.500023 -0.009271
C21   C     C_1   0.748262 0.500000 0.499977 -0.009271
C22   C     C_R   0.500000 0.902669 0.500000 -0.110903
C23   C     C_R   0.500000 0.097331 0.500000 -0.110903
C24   C     C_R   0.500009 0.500000 0.283481 0.548576
C25   C     C_R   0.499991 0.500000 0.716519 0.548576
C26   C     C_R   0.554504 0.952148 0.572992 0.276783
Cu1   Cu    Cu3+1 0.500000 0.589220 0.500000 1.018574
Cu2   Cu    Cu3+1 0.500000 0.410780 0.500000 1.018574
H1    H     H_    0.077016 0.645704 0.500416 0.128864
H2    H     H_    0.922984 0.354296 0.499584 0.128864
H3    H     H_    0.922983 0.645704 0.500365 0.128869
H4    H     H_    0.077017 0.354296 0.499634 0.128869
H5    H     H_    0.605260 0.156127 0.640950 0.326943
H6    H     H_    0.394740 0.843873 0.359050 0.326943
H7    H     H_    0.394739 0.156127 0.359051 0.326940
H8    H     H_    0.605261 0.843873 0.640949 0.326940
N1    N     N_1   0.500000 0.276710 0.500000 -0.187737
N2    N     N_1   0.500000 0.723290 0.500000 -0.187737
O1    O     O_R   0.380310 0.575320 0.500020 -0.488054
O2    O     O_3   0.390258 0.910287 0.353040 -0.611069
O3    O     O_3   0.390258 0.089712 0.353040 -0.611072
O4    O     O_3   0.609742 0.910288 0.646960 -0.611072
O5    O     O_R   0.619690 0.424680 0.499980 -0.488055
O6    O     O_R   0.619690 0.575320 0.499980 -0.488055
O7    O     O_R   0.380310 0.424680 0.500020 -0.488054
O8    O     O_R   0.500010 0.575340 0.337190 -0.486836
O9    O     O_R   0.499990 0.424660 0.662810 -0.486836
O10   O     O_R   0.499990 0.575340 0.662810 -0.486840
O11   O     O_R   0.500010 0.424660 0.337190 -0.486840
O12   O     O_3   0.609742 0.089713 0.646960 -0.611069

loop_
_geom_bond_atom_site_label_1
_geom_bond_atom_site_label_2
_ccdc_geom_bond_type
Cu1   O10   S    
C4    C26   A    
Cu2   O9    S    
C18   C21   T    
C11   C16   A    
C25   O9    A    
C13   H4    S    
H8    O4    S    
C19   C20   T    
C14   C17   A    
C13   C17   A    
C24   O8    A    
C2    C3    A    
C6    N1    T    
C11   H3    S    
C2    O3    S    
C12   O6    A    
C5    N2    T    
C8    C25   S    
C25   O10   A    
C1    O7    A    
Cu2   N1    S    
H6    O2    S    
C6    C23   S    
C24   O11   A    
Cu1   O8    S    
C8    C10   T    
C17   C19   S    
C3    O2    S    
C9    C10   S    
C12   O5    A    
C13   C15   A    
H7    O3    S    
C11   C14   A    
Cu2   O7    S    
C1    O1    A    
Cu1   N2    S    
C7    C24   S    
C12   C21   S    
Cu1   Cu2   S    
C26   O4    S    
C15   H2    S    
C16   C18   S    
C22   C26   A    
Cu1   O1    S    
C2    C23   A    
C7    C9    T    
C4    C23   A    
C3    C22   A    
Cu2   O5    S    
H5    O12   S    
Cu1   O6    S    
C5    C22   S    
C15   C16   A    
C4    O12   S    
C14   H1    S    
C1    C20   S    
Cu2   O11   S    
