data_mof_unit_pretest_140.cif
_audit_creation_date              2012-12-10T20:38:23-0500
_audit_creation_method            fapswitch 2.2
_symmetry_space_group_name_H-M    P1
_symmetry_Int_Tables_number       1
_space_group_crystal_system       triclinic
_cell_length_a                    9.89443
_cell_length_b                    10.697201
_cell_length_c                    16.664183
_cell_angle_alpha                 90.609857
_cell_angle_beta                  84.483396
_cell_angle_gamma                 89.679834
_cell_volume                      1755.4748856

loop_
_atom_site_label
_atom_site_type_symbol
_atom_type_description
_atom_site_fract_x
_atom_site_fract_y
_atom_site_fract_z
_atom_type_partial_charge
C1    C     C_R   0.500044 0.739763 0.498276 0.928902
C2    C     C_R   0.533290 0.454232 0.262859 -0.021507
C3    C     C_R   0.379964 0.937331 0.488776 0.051126
C4    C     C_R   0.480234 0.497927 0.653416 0.876902
C5    C     C_R   0.501490 0.871150 0.488440 -0.049581
C6    C     C_R   0.625550 0.934084 0.474937 -0.220665
C7    C     C_R   0.625948 0.063261 0.475147 -0.172488
C8    C     C_R   0.502156 0.128446 0.487235 -0.081229
C9    C     C_R   0.380334 0.064344 0.485765 0.091942
C10   C     C_3   0.248029 0.076379 0.537036 -0.509258
C11   C     C_3   0.247188 0.933971 0.540832 -0.210326
C12   C     C_R   0.354776 0.407964 0.774488 -0.194375
C13   C     C_R   0.919266 0.565686 0.557482 0.203639
C14   C     C_R   0.940579 0.446318 0.437990 -0.021179
C15   C     C_R   0.083866 0.447647 0.438427 -0.166916
C16   C     C_R   0.500547 0.260100 0.498117 0.896660
C17   C     C_R   0.061525 0.565028 0.557647 0.219835
C18   C     C_3   0.053203 0.543779 0.646091 -0.487451
C19   C     C_3   0.899966 0.545912 0.646237 -0.497085
C20   C     C_R   0.519610 0.494081 0.346786 0.859228
C21   C     C_R   0.466710 0.474706 0.739528 -0.035926
C22   C     C_R   0.572963 0.505843 0.785294 -0.207251
C23   C     C_R   0.450714 0.326519 0.157925 -0.146630
C24   C     C_R   0.570588 0.466225 0.864213 -0.140546
C25   C     C_R   0.461910 0.393972 0.898101 0.197398
C26   C     C_R   0.352147 0.368389 0.853784 -0.162891
C27   C     C_2   0.252363 0.887228 0.625737 0.960560
C28   C     C_2   0.887809 0.381853 0.369019 0.927292
C29   C     C_R   0.434478 0.375043 0.235630 -0.182620
C30   C     C_R   0.651134 0.480607 0.212700 -0.186903
C31   C     C_R   0.666681 0.433101 0.134317 -0.173791
C32   C     C_R   0.564486 0.359252 0.105951 0.196261
C33   C     C_2   0.455148 0.356357 0.982339 -0.227071
C34   C     C_2   0.567779 0.336904 0.019231 -0.234651
H1    H     H_    0.658302 0.559740 0.759859 0.149053
H2    H     H_    0.345506 0.349075 0.274776 0.155551
H3    H     H_    0.093272 0.623853 0.679332 0.238437
H4    H     H_    0.852212 0.454628 0.662520 0.218474
H5    H     H_    0.852251 0.628714 0.678579 0.210507
H6    H     H_    0.729541 0.539429 0.233692 0.170497
H7    H     H_    0.666374 0.332305 0.984423 0.151362
H8    H     H_    0.265962 0.315814 0.880052 0.134079
H9    H     H_    0.372472 0.266727 0.137737 0.135079
H10   H     H_    0.272241 0.381885 0.739722 0.146150
H11   H     H_    0.356048 0.361702 0.016477 0.154657
H12   H     H_    0.754887 0.459303 0.094588 0.133107
H13   H     H_    0.652889 0.493960 0.898734 0.131159
H14   H     H_    0.364293 0.828719 0.713375 0.336041
H15   H     H_    0.907333 0.351301 0.248740 0.340019
H16   H     H_    0.721955 0.884700 0.469490 0.172255
H17   H     H_    0.722560 0.110865 0.470938 0.203497
H18   H     H_    0.258887 0.125092 0.595441 0.204338
H19   H     H_    0.166507 0.114747 0.502708 0.201262
H20   H     H_    0.165594 0.890348 0.508714 0.139146
H21   H     H_    0.147971 0.401839 0.390464 0.170910
H22   H     H_    0.093722 0.450661 0.660977 0.202316
N1    N     N_R   0.857140 0.500860 0.500530 -0.147999
N2    N     N_R   0.142780 0.500820 0.500530 -0.120858
O1    O     O_R   0.385310 0.683210 0.499990 -0.619718
O2    O     O_R   0.376161 0.859611 0.655833 -0.815786
O3    O     O_2   0.799670 0.303020 0.379715 -0.620559
O4    O     O_R   0.947537 0.404490 0.291084 -0.842260
O5    O     O_R   0.614650 0.683240 0.500000 -0.626892
O6    O     O_R   0.371780 0.500000 0.615800 -0.617942
O7    O     O_R   0.601120 0.500040 0.615800 -0.617005
O8    O     O_R   0.385350 0.316760 0.500000 -0.627329
O9    O     O_R   0.614690 0.316790 0.500010 -0.578094
O10   O     O_R   0.398880 0.499960 0.384200 -0.625471
O11   O     O_R   0.628220 0.500000 0.384200 -0.598784
O12   O     O_2   0.146160 0.875739 0.668857 -0.650228
Zn1   Zn    Zn3+2 0.346870 0.499980 0.499990 0.949840
Zn2   Zn    Zn3+2 0.653130 0.500020 0.500010 0.981787

loop_
_geom_bond_atom_site_label_1
_geom_bond_atom_site_label_2
_ccdc_geom_bond_type
O11   Zn2   S    
C24   C25   A    
C6    C7    A    
C3    C9    A    
C19   H4    S    
C11   C27   S    
O7    Zn2   S    
C33   H11   S    
C9    C10   S    
C4    O6    A    
O8    Zn1   S    
C13   C17   A    
C17   N2    A    
C2    C30   A    
C10   H18   S    
C23   C32   A    
C24   H13   S    
C22   H1    S    
C17   C18   S    
C25   C26   A    
C30   H6    S    
C7    C8    A    
C12   H10   S    
C16   O9    A    
C21   C22   A    
C28   O3    D    
C4    C21   S    
C34   H7    S    
C29   H2    S    
O1    Zn1   S    
C5    C6    A    
C11   H20   S    
C19   H5    S    
O10   Zn1   S    
C1    C5    S    
C23   C29   A    
C27   O12   D    
C18   H3    S    
C33   C34   D    
H14   O2    S    
C27   O2    S    
C1    O1    A    
N1    Zn2   S    
C28   O4    S    
C4    O7    A    
C20   O11   A    
C15   N2    A    
C22   C24   A    
N2    Zn1   S    
C3    C11   S    
C10   C11   S    
C13   C19   S    
C7    H17   S    
C1    O5    A    
O9    Zn2   S    
C13   N1    A    
C2    C29   A    
O5    Zn2   S    
C26   H8    S    
C8    C16   S    
C18   C19   S    
O6    Zn1   S    
C12   C26   A    
C14   N1    A    
C10   H19   S    
C30   C31   A    
C18   H22   S    
C16   O8    A    
H15   O4    S    
C14   C28   S    
C32   C34   S    
C14   C15   A    
C23   H9    S    
C2    C20   S    
C12   C21   A    
C20   O10   A    
C6    H16   S    
C31   C32   A    
C25   C33   S    
C8    C9    A    
C3    C5    A    
C31   H12   S    
C15   H21   S    
