data_mof_unit_pretest_360.cif
_audit_creation_date              2012-12-10T16:51:15-0500
_audit_creation_method            fapswitch 2.2
_symmetry_space_group_name_H-M    P1
_symmetry_Int_Tables_number       1
_space_group_crystal_system       triclinic
_cell_length_a                    27.852499
_cell_length_b                    8.674883
_cell_length_c                    7.419168
_cell_angle_alpha                 103.167723
_cell_angle_beta                  93.593466
_cell_angle_gamma                 92.558369
_cell_volume                      1738.83020614

loop_
_atom_site_label
_atom_site_type_symbol
_atom_type_description
_atom_site_fract_x
_atom_site_fract_y
_atom_site_fract_z
_atom_type_partial_charge
C1    C     C_R   0.498528 0.199523 0.453017 0.888449
C2    C     C_R   0.501492 0.800480 0.546980 0.893451
C3    C     C_R   0.101806 0.499448 0.500069 -0.043117
C4    C     C_R   0.898241 0.498775 0.502591 -0.043052
C5    C     C_R   0.124922 0.355684 0.465182 -0.022660
C6    C     C_R   0.875135 0.642559 0.537608 -0.023810
C7    C     C_R   0.097355 0.212320 0.428623 -0.150175
C8    C     C_R   0.902708 0.785920 0.574487 -0.148921
C9    C     C_R   0.129927 0.643431 0.534534 -0.024679
C10   C     C_R   0.870106 0.354788 0.467743 -0.026747
C11   C     C_R   0.354756 0.507925 0.511524 -0.148950
C12   C     C_R   0.645279 0.491878 0.488641 -0.175729
C13   C     C_R   0.971899 0.352313 0.464776 0.044214
C14   C     C_R   0.028149 0.645897 0.538071 0.044332
C15   C     C_R   0.977106 0.645741 0.539108 0.045186
C16   C     C_R   0.022947 0.352473 0.463881 0.045255
C17   C     C_R   0.949316 0.498949 0.502219 0.069919
C18   C     C_R   0.050733 0.499265 0.500633 0.069502
C19   C     C_R   0.942306 0.209984 0.429488 -0.214004
C20   C     C_R   0.057735 0.788226 0.573129 -0.213948
C21   C     C_R   0.892568 0.211624 0.431590 -0.140430
C22   C     C_R   0.107463 0.786589 0.570713 -0.142594
C23   C     C_R   0.407588 0.504418 0.504390 0.846834
C24   C     C_R   0.592425 0.495618 0.495614 0.841965
C25   C     C_R   0.047494 0.210325 0.427243 -0.212973
C26   C     C_R   0.952568 0.787901 0.575951 -0.212961
C27   C     C_2   0.497833 0.031517 0.426575 -0.310308
C28   C     C_2   0.502211 0.968490 0.573425 -0.326165
C29   C     C_R   0.175403 0.358568 0.468346 0.542556
C30   C     C_R   0.824655 0.639700 0.534223 0.546425
C31   C     C_R   0.180212 0.641123 0.532346 0.552264
C32   C     C_R   0.819809 0.357122 0.469475 0.555054
C33   C     C_R   0.281625 0.576722 0.666765 -0.189137
C34   C     C_R   0.718519 0.423287 0.333915 -0.156311
C35   C     C_R   0.332008 0.584736 0.671585 0.344722
C36   C     C_R   0.668121 0.416324 0.328169 0.396533
C37   C     C_R   0.325975 0.431884 0.350288 -0.203457
C38   C     C_R   0.674001 0.566120 0.650791 -0.220632
C39   C     C_R   0.275989 0.429399 0.346783 -0.072711
C40   C     C_R   0.723981 0.567994 0.654920 -0.072446
C41   C     C_R   0.253596 0.500916 0.505191 0.280792
C42   C     C_R   0.746454 0.497464 0.496354 0.258174
Cu1   Cu    Cu3+1 0.505380 0.517380 0.684380 1.059954
Cu2   Cu    Cu3+1 0.494620 0.482620 0.315620 1.065145
H1    H     H_    0.342167 0.373171 0.225839 0.196828
H2    H     H_    0.657772 0.623957 0.775532 0.205289
H3    H     H_    0.462847 0.376269 0.948106 0.237208
H4    H     H_    0.537114 0.623853 0.051916 0.239663
H5    H     H_    0.254586 0.371750 0.220526 0.164468
H6    H     H_    0.745324 0.624439 0.781779 0.170539
H7    H     H_    0.114232 0.100065 0.399833 0.186319
H8    H     H_    0.885836 0.898185 0.603387 0.186564
H9    H     H_    0.736582 0.369031 0.212433 0.202913
H10   H     H_    0.263651 0.631709 0.788181 0.189084
H11   H     H_    0.871689 0.099218 0.403312 0.193650
H12   H     H_    0.128336 0.898995 0.598778 0.192767
H13   H     H_    0.956121 0.093910 0.399066 0.136951
H14   H     H_    0.043920 0.904297 0.603512 0.136870
H15   H     H_    0.029484 0.094143 0.396426 0.134944
H16   H     H_    0.970580 0.904087 0.607011 0.134935
H17   H     H_    0.493710 0.959417 0.285252 0.200352
H18   H     H_    0.506337 0.040589 0.714747 0.196826
N1    N     N_R   0.201969 0.500031 0.501323 -0.458389
N2    N     N_R   0.798077 0.498241 0.500704 -0.459113
N3    N     N_2   0.486510 0.456430 0.038510 -0.166579
N4    N     N_2   0.513490 0.543570 0.961490 -0.164901
O1    O     O_R   0.503500 0.286120 0.619780 -0.594636
O2    O     O_R   0.496500 0.713880 0.380220 -0.590249
O3    O     O_R   0.494410 0.256780 0.308360 -0.562858
O4    O     O_R   0.505590 0.743220 0.691640 -0.563459
O5    O     O_R   0.434810 0.514700 0.655690 -0.539037
O6    O     O_R   0.565190 0.485300 0.344310 -0.535703
O7    O     O_R   0.425720 0.485350 0.344280 -0.565678
O8    O     O_R   0.574280 0.514650 0.655720 -0.568797
O9    O     O_2   0.197789 0.221184 0.440800 -0.513922
O10   O     O_2   0.802278 0.777109 0.562078 -0.509522
O11   O     O_2   0.792818 0.219400 0.441422 -0.496231
O12   O     O_2   0.207167 0.778859 0.559701 -0.508506
S1    S     S_3+6 0.636360 0.305014 0.121405 0.008389
O13   O     O_2   0.597795 0.196526 0.167610 -0.292880
O14   O     O_2   0.613752 0.416888 0.018241 -0.301154
O15   O     O_3   0.674172 0.195129 0.984588 -0.521583
H19   H     H_    0.654151 0.144199 0.869508 0.380618
S2    S     S_3+6 0.363875 0.699347 0.876375 0.022078
O16   O     O_2   0.386304 0.590098 0.983624 -0.259653
O17   O     O_2   0.402839 0.805360 0.828213 -0.296013
O18   O     O_3   0.326431 0.812197 0.011886 -0.501435
H20   H     H_    0.317335 0.894025 0.944330 0.358235

loop_
_geom_bond_atom_site_label_1
_geom_bond_atom_site_label_2
_ccdc_geom_bond_type
O18   H20   S    
C29   N1    A    
C30   N2    A    
C8    C26   A    
C14   C18   A    
C34   C42   A    
S2    O18   S    
C39   C41   A    
C19   H13   S    
C3    C18   A    
C19   C21   A    
S2    O17   D    
C2    O2    A    
C9    C22   A    
C33   H10   S    
C14   C20   A    
C11   C37   A    
C27   H17   S    
C1    O1    A    
C32   O11   S    
C5    C7    A    
C12   C36   A    
C8    H8    S    
Cu1   O8    S    
C40   C42   A    
Cu2   N3    S    
C23   O7    A    
C5    C29   A    
C10   C21   A    
C13   C19   A    
C31   N1    A    
S2    O16   D    
C32   N2    A    
C4    C6    A    
C21   H11   S    
C15   C26   A    
C6    C8    A    
C1    O3    A    
Cu1   Cu2   S    
C3    C9    A    
C23   O5    A    
C30   O10   S    
Cu2   O3    S    
C4    C17   A    
Cu1   O1    S    
C39   H5    S    
C20   C22   A    
O15   H19   S    
Cu1   O4    S    
Cu2   O2    S    
C41   N1    S    
C20   H14   S    
C42   N2    S    
C24   O6    A    
C31   O12   S    
S1    O14   D    
C16   C25   A    
C15   C17   A    
Cu1   O5    S    
C6    C30   A    
C4    C10   A    
C3    C5    A    
C36   S1    S    
S1    O15   S    
C22   H12   S    
C35   S2    S    
C29   O9    S    
C12   C24   S    
C7    C25   A    
C13   C17   A    
C33   C41   A    
C11   C35   A    
C7    H7    S    
C37   C39   A    
C38   C40   A    
C24   O8    A    
C26   H16   S    
Cu1   N4    S    
C40   H6    S    
C11   C23   S    
C33   C35   A    
Cu2   O6    S    
C34   C36   A    
C12   C38   A    
Cu2   O7    S    
C38   H2    S    
C9    C31   A    
S1    O13   D    
C10   C32   A    
C34   H9    S    
C16   C18   A    
N3    N4    D    
C13   C16   A    
C27   C28   D    
C1    C27   S    
C14   C15   A    
C2    C28   S    
C25   H15   S    
H4    N4    S    
C2    O4    A    
C37   H1    S    
H3    N3    S    
C28   H18   S    
