data_mof_unit_pretest_854.cif
_audit_creation_date              2012-12-11T15:20:40-0500
_audit_creation_method            fapswitch 2.2
_symmetry_space_group_name_H-M    P1
_symmetry_Int_Tables_number       1
_space_group_crystal_system       triclinic
_cell_length_a                    12.934506
_cell_length_b                    13.109159
_cell_length_c                    15.436222
_cell_angle_alpha                 116.488071
_cell_angle_beta                  62.913195
_cell_angle_gamma                 97.266177
_cell_volume                      2076.01584715

loop_
_atom_site_label
_atom_site_type_symbol
_atom_type_description
_atom_site_fract_x
_atom_site_fract_y
_atom_site_fract_z
_atom_type_partial_charge
C1    C     C_R   0.013863 0.834050 0.040471 -0.189953
C2    C     C_R   0.322094 0.535652 0.777142 -0.117803
C3    C     C_R   0.262051 0.415511 0.043590 -0.157697
C4    C     C_R   0.706106 0.399352 0.209567 -0.139569
C5    C     C_R   0.982805 0.298394 0.698092 0.234777
C6    C     C_R   0.365746 0.437336 0.972628 0.145775
C7    C     C_R   0.927861 0.201593 0.700541 -0.002290
C8    C     C_R   0.332698 0.457541 0.676096 0.048957
C9    C     C_R   0.040279 0.144248 0.011628 0.054095
C10   C     C_R   0.885441 0.019351 0.457521 -0.195187
C11   C     C_R   0.869026 0.111801 0.554444 -0.175581
C12   C     C_R   0.711137 0.425781 0.304505 0.041103
C13   C     C_R   0.923853 0.104301 0.611406 0.184333
C14   C     C_R   0.986940 0.003865 0.577824 -0.184245
C15   C     C_R   0.001152 0.911795 0.483253 -0.188992
C16   C     C_R   0.758935 0.509730 0.887272 -0.221293
C17   C     C_R   0.952780 0.921074 0.422645 0.152201
C18   C     C_R   0.644997 0.429837 0.483892 -0.174155
C19   C     C_R   0.548491 0.439510 0.578224 -0.171827
C20   C     C_R   0.441243 0.409959 0.576410 0.145672
C21   C     C_R   0.438039 0.347140 0.476845 -0.171160
C22   C     C_R   0.534397 0.337113 0.382652 -0.165201
C23   C     C_R   0.667131 0.446763 0.916430 0.076575
C24   C     C_R   0.633867 0.390120 0.388116 0.144861
C25   C     C_2   0.480471 0.379358 0.922959 -0.199733
C26   C     C_2   0.575699 0.428184 0.881758 -0.201438
C27   C     C_2   0.869244 0.967909 0.059845 -0.182710
C28   C     C_R   0.951930 0.717218 0.315954 -0.136110
C29   C     C_2   0.846535 0.048939 0.159363 -0.151485
C30   C     C_R   0.678267 0.414978 0.986091 0.272593
C31   C     C_R   0.040838 0.819123 0.222127 -0.135256
C32   C     C_R   0.804012 0.489188 0.303857 -0.122670
C33   C     C_R   0.916655 0.751587 0.942423 0.230116
C34   C     C_R   0.972277 0.825202 0.323999 0.038836
C35   C     C_R   0.933434 0.856284 0.013622 0.086094
C36   C     C_3   0.989964 0.354323 0.628889 -0.403552
C37   C     C_3   0.076643 0.287145 0.509418 -0.918044
C38   C     C_3   0.629364 0.314429 0.008886 -0.372139
C39   C     C_3   0.514293 0.350543 0.113912 -0.939058
C40   C     C_3   0.871573 0.738793 0.864318 -0.387599
C41   C     C_3   0.738775 0.764092 0.918854 -0.898324
C42   C     C_R   0.340736 0.525402 0.958546 -0.107397
C43   C     C_R   0.907594 0.198213 0.793859 -0.239894
C44   C     C_R   0.221242 0.440144 0.685327 -0.166238
C45   C     C_R   0.066803 0.250271 0.072263 -0.124747
C46   C     C_R   0.974130 0.166927 0.970877 -0.110164
H1    H     H_    0.053799 0.897926 0.085712 0.112145
H2    H     H_    0.029506 0.998532 0.622302 0.125709
H3    H     H_    0.661546 0.330079 0.176645 0.119772
H4    H     H_    0.052820 0.834669 0.455491 0.122043
H5    H     H_    0.723250 0.464627 0.489501 0.106809
H6    H     H_    0.556106 0.479802 0.653056 0.104238
H7    H     H_    0.358939 0.315509 0.471360 0.111389
H8    H     H_    0.524739 0.299281 0.308951 0.111090
H9    H     H_    0.483354 0.306919 0.936702 0.152514
H10   H     H_    0.572205 0.486659 0.850719 0.128163
H11   H     H_    0.833126 0.983306 0.015352 0.135570
H12   H     H_    0.858125 0.138566 0.824339 0.113673
H13   H     H_    0.876684 0.037899 0.210055 0.128997
H14   H     H_    0.784984 0.528100 0.819357 0.130719
H15   H     H_    0.909521 0.691449 0.380654 0.100661
H16   H     H_    0.085869 0.887272 0.203749 0.093690
H17   H     H_    0.844324 0.509809 0.356706 0.081902
H18   H     H_    0.401107 0.574840 0.921753 0.080958
H19   H     H_    0.149126 0.239307 0.499804 0.253082
H20   H     H_    0.032459 0.225181 0.463507 0.266323
H21   H     H_    0.114015 0.347165 0.472372 0.247587
H22   H     H_    0.902245 0.363806 0.635512 0.179009
H23   H     H_    0.197900 0.385844 0.622459 0.135792
H24   H     H_    0.015370 0.442568 0.661031 0.180092
H25   H     H_    0.522687 0.426202 0.181163 0.264349
H26   H     H_    0.441271 0.375167 0.106502 0.257927
H27   H     H_    0.489819 0.278519 0.136595 0.245985
H28   H     H_    0.620850 0.244026 0.938896 0.171683
H29   H     H_    0.694929 0.274216 0.014289 0.172046
H30   H     H_    0.694740 0.732021 0.981295 0.272222
H31   H     H_    0.713749 0.857424 0.958575 0.246536
H32   H     H_    0.706275 0.722908 0.856827 0.242106
H33   H     H_    0.912443 0.799300 0.828387 0.177664
H34   H     H_    0.105878 0.264591 0.124846 0.089866
H35   H     H_    0.901579 0.652713 0.795181 0.170214
H36   H     H_    0.933543 0.104946 0.924415 0.085834
H37   H     H_    0.390862 0.580094 0.794643 0.081201
H38   H     H_    0.253839 0.356539 0.076790 0.095914
H39   H     H_    0.846795 0.024070 0.409989 0.123423
H40   H     H_    0.818109 0.189384 0.582596 0.123193
N1    N     N_R   0.037310 0.720000 0.995790 -0.053927
N2    N     N_R   0.824890 0.517960 0.936420 -0.051368
N3    N     N_R   0.003210 0.648190 0.211380 -0.039464
N4    N     N_R   0.774330 0.457010 0.995840 -0.071758
N5    N     N_R   0.053760 0.709140 0.151960 -0.035440
N6    N     N_R   0.853860 0.498840 0.211410 -0.037040
N7    N     N_R   0.974240 0.667310 0.936390 -0.072692
N8    N     N_R   0.225670 0.542990 0.004160 -0.044552
N9    N     N_R   0.946240 0.290860 0.848040 -0.047946
N10   N     N_R   0.146140 0.501160 0.788590 -0.044894
N11   N     N_R   0.025760 0.332690 0.063610 -0.037761
N12   N     N_R   0.962690 0.280000 0.004210 -0.040866
N13   N     N_R   0.209210 0.553840 0.847990 -0.037158
N14   N     N_R   0.175110 0.482040 0.063580 -0.041167
N15   N     N_R   0.996790 0.351810 0.788620 -0.066397
N16   N     N_R   0.790790 0.446160 0.152010 -0.038798
Ni1   Ni    Ni4+2 0.130310 0.630310 0.999970 0.212333
Ni2   Ni    Ni4+2 0.869690 0.369690 0.000030 0.198851
Ni3   Ni    Ni4+2 0.985640 0.509470 0.863740 0.190954
Ni4   Ni    Ni4+2 0.014360 0.490530 0.136260 0.212523

loop_
_geom_bond_atom_site_label_1
_geom_bond_atom_site_label_2
_ccdc_geom_bond_type
C1    N1    A    
N13   Ni1   S    
N10   Ni3   S    
N10   N13   A    
C10   H39   S    
C9    C45   A    
C27   C29   D    
C19   C20   A    
C30   N4    A    
C3    C6    A    
N11   N12   A    
C22   H8    S    
C8    C20   S    
C18   C24   A    
C36   C37   S    
C41   H31   S    
C38   C39   S    
C23   C26   S    
C6    C25   S    
C11   H40   S    
C5    C36   S    
C37   H21   S    
C30   C38   S    
C18   C19   A    
C16   H14   S    
C15   H4    S    
C43   H12   S    
N7    Ni3   S    
C46   H36   S    
C19   H6    S    
C29   H13   S    
C4    N16   A    
N3    Ni4   S    
C43   N9    A    
C39   H26   S    
C28   N3    A    
C7    C43   A    
N3    N5    A    
N6    N16   A    
C28   H15   S    
C46   N12   A    
C28   C34   A    
C9    C46   A    
C13   C14   A    
C12   C32   A    
C31   H16   S    
C2    H37   S    
C3    N14   A    
C36   H24   S    
C18   H5    S    
C38   H29   S    
N15   Ni3   S    
C5    N15   A    
C31   C34   A    
C33   C40   S    
C23   C30   A    
C8    C44   A    
C27   H11   S    
C41   H32   S    
C5    C7    A    
C1    H1    S    
C14   H2    S    
C27   C35   S    
C25   C26   D    
C37   H19   S    
C44   N10   A    
C33   N7    A    
N8    N14   A    
C37   H20   S    
C40   H33   S    
C44   H23   S    
N16   Ni2   S    
N4    Ni2   S    
N1    Ni1   S    
N11   Ni4   S    
N6    Ni4   S    
C40   C41   S    
N2    N4    A    
N8    Ni1   S    
C16   C23   A    
C31   N5    A    
C22   C24   A    
C4    C12   A    
C17   C34   S    
C42   H18   S    
N9    Ni2   S    
C1    C35   A    
C38   H28   S    
C15   C17   A    
C42   N8    A    
C40   H35   S    
C2    C8    A    
C25   H9    S    
C32   H17   S    
N5    Ni1   S    
C26   H10   S    
C2    N13   A    
C36   H22   S    
C12   C24   S    
N14   Ni4   S    
C4    H3    S    
C45   N11   A    
C41   H30   S    
C21   H7    S    
N2    Ni3   S    
C11   C13   A    
C32   N6    A    
N12   Ni2   S    
N1    N7    A    
C33   C35   A    
C45   H34   S    
C39   H27   S    
C10   C11   A    
C7    C13   S    
C20   C21   A    
C6    C42   A    
C3    H38   S    
C16   N2    A    
C39   H25   S    
C14   C15   A    
C10   C17   A    
C21   C22   A    
N9    N15   A    
