data_mof_unit_pretest_1544.cif
_audit_creation_date              2012-12-10T19:01:46-0500
_audit_creation_method            fapswitch 2.2
_symmetry_space_group_name_H-M    P1
_symmetry_Int_Tables_number       1
_space_group_crystal_system       triclinic
_cell_length_a                    43.950072
_cell_length_b                    30.263352
_cell_length_c                    31.792754
_cell_angle_alpha                 89.999939
_cell_angle_beta                  136.349594
_cell_angle_gamma                 90.000086
_cell_volume                      29188.7294705

loop_
_atom_site_label
_atom_site_type_symbol
_atom_type_description
_atom_site_fract_x
_atom_site_fract_y
_atom_site_fract_z
_atom_type_partial_charge
C1    C     C_R   0.586239 0.999939 0.087238 0.874887
C2    C     C_R   0.413761 0.999939 0.912762 0.874889
C3    C     C_R   0.086239 0.499939 0.087238 0.874888
C4    C     C_R   0.913761 0.499939 0.912762 0.874891
C5    C     C_3   0.500119 0.999910 0.291213 0.203789
C6    C     C_3   0.499881 0.999910 0.708787 0.203826
C7    C     C_3   0.000119 0.499910 0.291213 0.203813
C8    C     C_3   0.999881 0.499910 0.708787 0.203804
C9    C     C_3   0.469426 0.028272 0.205425 -0.160470
C10   C     C_3   0.535640 0.021485 0.799647 -0.160032
C11   C     C_3   0.966492 0.524698 0.202488 -0.160209
C12   C     C_3   0.032235 0.526348 0.796238 -0.160322
C13   C     C_3   0.509281 0.040799 0.273260 -0.162084
C14   C     C_3   0.499117 0.041805 0.735149 -0.161965
C15   C     C_3   0.004725 0.541559 0.268699 -0.162008
C16   C     C_3   0.993212 0.541279 0.729236 -0.162040
C17   C     C_1   0.500214 0.999922 0.163627 -0.075920
C18   C     C_1   0.499784 0.999924 0.836371 -0.075930
C19   C     C_1   0.000215 0.499923 0.163628 -0.075926
C20   C     C_1   0.999785 0.499922 0.836372 -0.075924
C21   C     C_1   0.500034 0.999925 0.336637 -0.075925
C22   C     C_1   0.499966 0.999925 0.663363 -0.075929
C23   C     C_1   0.000034 0.499925 0.336637 -0.075928
C24   C     C_1   0.999966 0.499925 0.663363 -0.075926
C25   C     C_R   0.702277 0.039709 0.193992 -0.176097
C26   C     C_R   0.297722 0.039713 0.805999 -0.176073
C27   C     C_R   0.202277 0.539713 0.193999 -0.176081
C28   C     C_R   0.797722 0.539711 0.806004 -0.176088
C29   C     C_R   0.656701 0.038618 0.148044 -0.240590
C30   C     C_R   0.343299 0.038622 0.851945 -0.240545
C31   C     C_R   0.156701 0.538621 0.148053 -0.240559
C32   C     C_R   0.843299 0.538620 0.851951 -0.240569
C33   C     C_R   0.634233 0.000067 0.137343 -0.070025
C34   C     C_R   0.365767 0.000066 0.862658 -0.070011
C35   C     C_R   0.134233 0.500067 0.137342 -0.070019
C36   C     C_R   0.865767 0.500067 0.862657 -0.070019
C37   C     C_R   0.658105 0.962431 0.174542 0.216268
C38   C     C_R   0.341893 0.962426 0.825471 0.216266
C39   C     C_R   0.158106 0.462427 0.174531 0.216261
C40   C     C_R   0.841894 0.462429 0.825464 0.216262
C41   C     C_R   0.703975 0.963562 0.219472 -0.243105
C42   C     C_R   0.296023 0.963558 0.780540 -0.243075
C43   C     C_R   0.203977 0.463559 0.219462 -0.243087
C44   C     C_R   0.796024 0.463560 0.780533 -0.243095
C45   C     C_R   0.500023 0.999963 0.081318 0.900391
C46   C     C_R   0.499977 0.999963 0.918681 0.900376
C47   C     C_R   0.000023 0.499963 0.081318 0.900383
C48   C     C_R   0.999977 0.499963 0.918682 0.900388
C49   C     C_R   0.726080 0.002058 0.229368 0.097737
C50   C     C_R   0.273919 0.002059 0.770633 0.097744
C51   C     C_R   0.226081 0.502059 0.229367 0.097741
C52   C     C_R   0.773919 0.502058 0.770632 0.097740
C53   C     C_R   0.798037 0.983524 0.333333 -0.173200
C54   C     C_R   0.201963 0.983517 0.666667 -0.173245
C55   C     C_R   0.298037 0.483518 0.333333 -0.173244
C56   C     C_R   0.701963 0.483521 0.666667 -0.173225
C57   C     C_R   0.843608 0.983335 0.377596 -0.226053
C58   C     C_R   0.156392 0.983328 0.622408 -0.226033
C59   C     C_R   0.343608 0.483329 0.377592 -0.226031
C60   C     C_R   0.656392 0.483332 0.622405 -0.226044
C61   C     C_R   0.865825 0.002750 0.365882 -0.082853
C62   C     C_R   0.134175 0.002751 0.634118 -0.082850
C63   C     C_R   0.365825 0.502751 0.365882 -0.082848
C64   C     C_R   0.634175 0.502751 0.634118 -0.082848
C65   C     C_R   0.841852 0.023374 0.309304 0.157699
C66   C     C_R   0.158147 0.023383 0.690690 0.157688
C67   C     C_R   0.341853 0.523382 0.309310 0.157688
C68   C     C_R   0.658147 0.523378 0.690693 0.157691
C69   C     C_R   0.796129 0.022712 0.264872 -0.194900
C70   C     C_R   0.203869 0.022721 0.735123 -0.194890
C71   C     C_R   0.296130 0.522721 0.264876 -0.194888
C72   C     C_R   0.703870 0.522716 0.735126 -0.194892
C73   C     C_R   0.774111 0.002806 0.276585 0.089838
C74   C     C_R   0.225888 0.002807 0.723415 0.089834
C75   C     C_R   0.274112 0.502808 0.276585 0.089839
C76   C     C_R   0.725888 0.502807 0.723415 0.089838
C77   C     C_R   0.500000 0.913601 0.500000 0.862321
C78   C     C_R   1.000000 0.413602 0.500000 0.862315
C79   C     C_R   0.499960 0.999940 0.418692 0.911413
C80   C     C_R   0.500040 0.999940 0.581308 0.911414
C81   C     C_R   0.999960 0.499940 0.418692 0.911410
C82   C     C_R   0.000040 0.499940 0.581308 0.911412
C83   C     C_R   0.500000 0.086142 0.500000 0.860865
C84   C     C_R   0.000000 0.586142 0.500000 0.860863
C85   C     C_3   0.530920 0.971540 0.294934 -0.163546
C86   C     C_3   0.464012 0.978331 0.699991 -0.163870
C87   C     C_3   0.033855 0.475116 0.297872 -0.163734
C88   C     C_3   0.967419 0.473465 0.703403 -0.163653
C89   C     C_R   0.000000 0.086368 0.500000 0.884576
C90   C     C_R   0.500000 0.586368 0.500000 0.884571
C91   C     C_R   0.913628 0.001312 0.413557 0.897247
C92   C     C_R   0.086372 0.001313 0.586443 0.897248
C93   C     C_R   0.413628 0.501313 0.413557 0.897247
C94   C     C_R   0.586372 0.501313 0.586443 0.897242
C95   C     C_R   1.000000 0.913520 0.500000 0.864524
C96   C     C_R   0.500000 0.413520 0.500000 0.864523
C97   C     C_R   0.461780 0.796782 0.450339 -0.174720
C98   C     C_R   0.538220 0.796782 0.549662 -0.174747
C99   C     C_R   0.961788 0.296783 0.450323 -0.174729
C100  C     C_R   0.038212 0.296783 0.549678 -0.174726
C101  C     C_R   0.461682 0.842578 0.450471 -0.190257
C102  C     C_R   0.538317 0.842578 0.549530 -0.190325
C103  C     C_R   0.961690 0.342579 0.450455 -0.190298
C104  C     C_R   0.038310 0.342579 0.549545 -0.190284
C105  C     C_R   0.500000 0.865637 0.500000 -0.029656
C106  C     C_R   1.000000 0.365637 0.500000 -0.029645
C107  C     C_R   0.500000 0.773887 0.500000 0.110203
C108  C     C_R   0.000000 0.273888 0.500000 0.110193
C109  C     C_R   0.013554 0.203073 0.549531 -0.172104
C110  C     C_R   0.986446 0.203073 0.450469 -0.172101
C111  C     C_R   0.513582 0.703071 0.549550 -0.172088
C112  C     C_R   0.486418 0.703072 0.450451 -0.172108
C113  C     C_R   0.013307 0.157278 0.549386 -0.173193
C114  C     C_R   0.986693 0.157279 0.450614 -0.173201
C115  C     C_R   0.513335 0.657277 0.549405 -0.173207
C116  C     C_R   0.486665 0.657277 0.450595 -0.173199
C117  C     C_R   0.000000 0.134265 0.500000 -0.038585
C118  C     C_R   0.500000 0.634264 0.500000 -0.038579
C119  C     C_3   0.540081 0.012431 0.276173 -0.164068
C120  C     C_3   0.463250 0.020226 0.727161 -0.164141
C121  C     C_3   0.038460 0.516766 0.274550 -0.164118
C122  C     C_3   0.960751 0.514835 0.724659 -0.164096
C123  C     C_R   0.000000 0.225969 0.500000 0.104376
C124  C     C_R   0.500000 0.725968 0.500000 0.104372
C125  C     C_R   0.462079 0.202979 0.474372 -0.177093
C126  C     C_R   0.537921 0.202979 0.525630 -0.177119
C127  C     C_R   0.962080 0.702979 0.474375 -0.177107
C128  C     C_R   0.037920 0.702979 0.525626 -0.177104
C129  C     C_R   0.461969 0.157174 0.474013 -0.190717
C130  C     C_R   0.538031 0.157174 0.525988 -0.190779
C131  C     C_R   0.961970 0.657174 0.474016 -0.190758
C132  C     C_R   0.038030 0.657174 0.525985 -0.190745
C133  C     C_R   0.500000 0.134113 0.500000 -0.028208
C134  C     C_R   0.000000 0.634113 0.500000 -0.028203
C135  C     C_R   0.500000 0.225880 0.500001 0.110781
C136  C     C_R   0.000000 0.725880 0.500000 0.110783
C137  C     C_R   0.012303 0.796709 0.475934 -0.175910
C138  C     C_R   0.987697 0.796709 0.524066 -0.175906
C139  C     C_R   0.512305 0.296709 0.475937 -0.175897
C140  C     C_R   0.487695 0.296709 0.524065 -0.175917
C141  C     C_R   0.012040 0.842514 0.475571 -0.189916
C142  C     C_R   0.987959 0.842514 0.524429 -0.189917
C143  C     C_R   0.512042 0.342514 0.475573 -0.189921
C144  C     C_R   0.487958 0.342514 0.524427 -0.189916
C145  C     C_R   1.000000 0.865564 0.500000 -0.029213
C146  C     C_R   0.500000 0.365564 0.500000 -0.029212
C147  C     C_R   1.000000 0.773808 0.500000 0.110569
C148  C     C_R   0.500000 0.273809 0.500001 0.110567
C149  C     C_1   0.500142 0.999947 0.125983 -0.186052
C150  C     C_1   0.499857 0.999948 0.874016 -0.186054
C151  C     C_1   0.000142 0.499947 0.125984 -0.186054
C152  C     C_1   0.999858 0.499947 0.874017 -0.186053
C153  C     C_1   0.499977 0.999938 0.374155 -0.184830
C154  C     C_1   0.500023 0.999938 0.625845 -0.184831
C155  C     C_1   0.999977 0.499938 0.374155 -0.184831
C156  C     C_1   0.000023 0.499937 0.625845 -0.184831
C157  C     C_3   0.491065 0.959015 0.227094 -0.162949
C158  C     C_3   0.500535 0.958012 0.764495 -0.163353
C159  C     C_3   0.995621 0.458256 0.231656 -0.163187
C160  C     C_3   0.006442 0.458535 0.770409 -0.163085
C161  C     C_3   0.500224 0.999905 0.209141 0.203737
C162  C     C_3   0.499774 0.999907 0.790857 0.203723
C163  C     C_3   0.000225 0.499906 0.209142 0.203728
C164  C     C_3   0.999775 0.499905 0.790858 0.203732
C165  C     C_3   0.460265 0.987383 0.224179 -0.161368
C166  C     C_3   0.536402 0.979591 0.772484 -0.161206
C167  C     C_3   0.961887 0.483048 0.225803 -0.161277
C168  C     C_3   0.038903 0.484979 0.774988 -0.161320
H1    H     H_    0.572797 0.022691 0.296676 0.134687
H2    H     H_    0.433264 0.036876 0.709390 0.135098
H3    H     H_    0.069847 0.530581 0.293724 0.134906
H4    H     H_    0.928716 0.527066 0.704837 0.134805
H5    H     H_    0.722343 0.934349 0.246864 0.130541
H6    H     H_    0.277655 0.934342 0.753157 0.130536
H7    H     H_    0.222345 0.434343 0.246846 0.130540
H8    H     H_    0.777656 0.434346 0.753146 0.130540
H9    H     H_    0.781509 0.968749 0.343529 0.137157
H10   H     H_    0.218492 0.968735 0.656480 0.137195
H11   H     H_    0.281508 0.468737 0.343521 0.137185
H12   H     H_    0.718491 0.468742 0.656475 0.137171
H13   H     H_    0.861521 0.967671 0.420955 0.161608
H14   H     H_    0.138480 0.967657 0.579053 0.161603
H15   H     H_    0.361520 0.467659 0.420948 0.161604
H16   H     H_    0.638479 0.467664 0.579048 0.161605
H17   H     H_    0.777758 0.037732 0.221023 0.155513
H18   H     H_    0.222241 0.037748 0.778968 0.155536
H19   H     H_    0.277759 0.537747 0.221031 0.155529
H20   H     H_    0.722241 0.537739 0.778973 0.155524
H21   H     H_    0.432024 0.779187 0.411925 0.138096
H22   H     H_    0.567976 0.779187 0.588075 0.138083
H23   H     H_    0.932038 0.279187 0.411896 0.138093
H24   H     H_    0.067962 0.279187 0.588104 0.138094
H25   H     H_    0.431846 0.859882 0.411743 0.156734
H26   H     H_    0.568154 0.859882 0.588258 0.156714
H27   H     H_    0.931860 0.359883 0.411714 0.156713
H28   H     H_    0.068140 0.359883 0.588286 0.156716
H29   H     H_    0.023854 0.220665 0.587841 0.138529
H30   H     H_    0.976146 0.220665 0.412159 0.138530
H31   H     H_    0.523904 0.720664 0.587874 0.138532
H32   H     H_    0.476096 0.720664 0.412126 0.138531
H33   H     H_    0.023865 0.139918 0.587993 0.171542
H34   H     H_    0.976135 0.139919 0.412008 0.171538
H35   H     H_    0.523914 0.639917 0.588025 0.171547
H36   H     H_    0.476086 0.639917 0.411975 0.171548
H37   H     H_    0.432558 0.220581 0.454184 0.134165
H38   H     H_    0.567443 0.220581 0.545818 0.134151
H39   H     H_    0.932559 0.720581 0.454190 0.134157
H40   H     H_    0.067441 0.720581 0.545811 0.134157
H41   H     H_    0.556125 0.948285 0.332425 0.135883
H42   H     H_    0.434653 0.960641 0.658341 0.135950
H43   H     H_    0.061465 0.454792 0.337772 0.135919
H44   H     H_    0.940852 0.451787 0.664548 0.135904
H45   H     H_    0.432368 0.139857 0.453960 0.155322
H46   H     H_    0.567632 0.139857 0.546041 0.155301
H47   H     H_    0.932370 0.639857 0.453966 0.155308
H48   H     H_    0.067630 0.639857 0.546034 0.155310
H49   H     H_    0.021631 0.779108 0.456952 0.133932
H50   H     H_    0.978369 0.779108 0.543049 0.133933
H51   H     H_    0.521634 0.279108 0.456957 0.133937
H52   H     H_    0.478366 0.279108 0.543045 0.133933
H53   H     H_    0.021579 0.859844 0.456723 0.154095
H54   H     H_    0.978420 0.859844 0.543276 0.154095
H55   H     H_    0.521583 0.359844 0.456728 0.154095
H56   H     H_    0.478417 0.359844 0.543272 0.154095
H57   H     H_    0.516743 0.074323 0.292982 0.135114
H58   H     H_    0.498540 0.076151 0.722321 0.135371
H59   H     H_    0.008453 0.575705 0.284681 0.135234
H60   H     H_    0.987793 0.575196 0.711560 0.135174
H61   H     H_    0.444220 0.051527 0.167933 0.137189
H62   H     H_    0.564999 0.039174 0.841298 0.137222
H63   H     H_    0.938882 0.545021 0.162587 0.137207
H64   H     H_    0.058802 0.548025 0.835093 0.137198
H65   H     H_    0.427547 0.977117 0.203665 0.137783
H66   H     H_    0.566388 0.962935 0.790262 0.137425
H67   H     H_    0.930499 0.469229 0.206621 0.137598
H68   H     H_    0.070939 0.472742 0.794820 0.137684
H69   H     H_    0.483604 0.925492 0.207371 0.137073
H70   H     H_    0.501110 0.923667 0.777324 0.136744
H71   H     H_    0.991896 0.424111 0.215673 0.136908
H72   H     H_    0.011859 0.424619 0.788086 0.136987
H73   H     H_    0.718928 0.070000 0.201873 0.144551
H74   H     H_    0.281072 0.070007 0.798109 0.144539
H75   H     H_    0.218928 0.570006 0.201887 0.144542
H76   H     H_    0.781072 0.570003 0.798119 0.144544
H77   H     H_    0.639050 0.067945 0.120484 0.171728
H78   H     H_    0.360950 0.067951 0.879497 0.171708
H79   H     H_    0.139050 0.567950 0.120500 0.171715
H80   H     H_    0.860950 0.567948 0.879508 0.171718
O1    O     O_R   0.565460 0.963010 0.065460 -0.588800
O2    O     O_R   0.434540 0.963010 0.934540 -0.588828
O3    O     O_R   0.065460 0.463010 0.065460 -0.588818
O4    O     O_R   0.934540 0.463010 0.934540 -0.588810
O5    O     O_R   0.934500 0.999950 0.469270 -0.631989
O6    O     O_R   0.065500 0.999950 0.530730 -0.631985
O7    O     O_R   0.434500 0.499950 0.469270 -0.631984
O8    O     O_R   0.565500 0.499950 0.530730 -0.631987
O9    O     O_R   0.934490 0.999950 0.399700 -0.587313
O10   O     O_R   0.065510 0.999950 0.600300 -0.587319
O11   O     O_R   0.434490 0.499950 0.399700 -0.587319
O12   O     O_R   0.565510 0.499950 0.600300 -0.587317
O13   O     O_R   0.000010 0.934490 0.534800 -0.626212
O14   O     O_R   0.999990 0.934490 0.465200 -0.626210
O15   O     O_R   0.500010 0.434490 0.534800 -0.626211
O16   O     O_R   0.499990 0.434490 0.465200 -0.626210
O17   O     O_R   0.565400 0.036920 0.065400 -0.632636
O18   O     O_R   0.434600 0.036920 0.934600 -0.632670
O19   O     O_R   0.065400 0.536920 0.065400 -0.632658
O20   O     O_R   0.934600 0.536920 0.934600 -0.632650
O21   O     O_R   0.499990 0.963010 0.061610 -0.616760
O22   O     O_R   0.500010 0.963010 0.938390 -0.616769
O23   O     O_R   0.999990 0.463010 0.061610 -0.616770
O24   O     O_R   0.000010 0.463010 0.938390 -0.616766
O25   O     O_R   0.499940 0.036920 0.061550 -0.615683
O26   O     O_R   0.500060 0.036920 0.938450 -0.615675
O27   O     O_R   0.999940 0.536920 0.061550 -0.615676
O28   O     O_R   0.000060 0.536920 0.938450 -0.615679
O29   O     O_R   0.536910 0.934410 0.536900 -0.625907
O30   O     O_R   0.463090 0.934410 0.463100 -0.625889
O31   O     O_R   0.036910 0.434410 0.536900 -0.625893
O32   O     O_R   0.963090 0.434410 0.463100 -0.625897
O33   O     O_R   0.536920 0.999880 0.475310 -0.616268
O34   O     O_R   0.463080 0.999880 0.524690 -0.616303
O35   O     O_R   0.036920 0.499880 0.475310 -0.616287
O36   O     O_R   0.963080 0.499880 0.524690 -0.616277
O37   O     O_R   0.463000 0.999950 0.401380 -0.615371
O38   O     O_R   0.537000 0.999950 0.598620 -0.615334
O39   O     O_R   0.963000 0.499950 0.401380 -0.615352
O40   O     O_R   0.037000 0.499950 0.598620 -0.615363
O41   O     O_R   0.536940 0.065340 0.536940 -0.625612
O42   O     O_R   0.463060 0.065340 0.463060 -0.625594
O43   O     O_R   0.036940 0.565340 0.536940 -0.625600
O44   O     O_R   0.963060 0.565340 0.463060 -0.625601
O45   O     O_R   0.999920 0.065420 0.534690 -0.616063
O46   O     O_R   0.000080 0.065420 0.465310 -0.616064
O47   O     O_R   0.499920 0.565420 0.534690 -0.616057
O48   O     O_R   0.500080 0.565420 0.465310 -0.616058
Zn1   Zn    Zn3+2 0.500000 0.950610 0.000000 0.979177
Zn2   Zn    Zn3+2 0.000000 0.450610 0.000000 0.979167
Zn3   Zn    Zn3+2 0.500000 0.049320 0.000000 0.953851
Zn4   Zn    Zn3+2 0.000000 0.549320 0.000000 0.953853
Zn5   Zn    Zn3+2 0.549320 0.999860 0.549320 0.955862
Zn6   Zn    Zn3+2 0.450680 0.999860 0.450680 0.955797
Zn7   Zn    Zn3+2 0.049320 0.499860 0.549320 0.955820
Zn8   Zn    Zn3+2 0.950680 0.499860 0.450680 0.955844
Zn9   Zn    Zn3+2 0.999970 0.999950 0.546410 0.990152
Zn10  Zn    Zn3+2 0.000030 0.999950 0.453590 0.990160
Zn11  Zn    Zn3+2 0.499970 0.499950 0.546410 0.990162
Zn12  Zn    Zn3+2 0.500030 0.499950 0.453590 0.990158
I1    I     I_    0.870744 0.059256 0.287624 -0.388599
I2    I     I_    0.129252 0.059277 0.712359 -0.388591
I3    I     I_    0.370748 0.559275 0.287640 -0.388612
I4    I     I_    0.629254 0.559266 0.712368 -0.388620
N1    N     N_2   0.636500 0.923726 0.167887 -0.288141
H81   H     H_    0.653263 0.894831 0.178245 0.217811
C169  C     C_3   0.622949 0.926253 0.197911 -0.750679
H82   H     H_    0.652315 0.928673 0.248070 0.221925
H83   H     H_    0.604145 0.896049 0.187531 0.236622
H84   H     H_    0.601323 0.955355 0.181572 0.239665
N2    N     N_2   0.363498 0.923714 0.832139 -0.288174
H85   H     H_    0.346734 0.894822 0.821793 0.217786
C170  C     C_3   0.377045 0.926222 0.802109 -0.750603
H86   H     H_    0.347677 0.928632 0.751949 0.222025
H87   H     H_    0.395848 0.896015 0.812499 0.236456
H88   H     H_    0.398669 0.955322 0.818433 0.239749
N3    N     N_2   0.136502 0.423716 0.167866 -0.288167
H89   H     H_    0.153265 0.394824 0.178214 0.217795
C171  C     C_3   0.122955 0.426228 0.197896 -0.750610
H90   H     H_    0.152322 0.428640 0.248055 0.221983
H91   H     H_    0.104151 0.396022 0.187507 0.236531
H92   H     H_    0.101330 0.455328 0.181569 0.239713
N4    N     N_2   0.863499 0.423721 0.832124 -0.288157
H93   H     H_    0.846736 0.394827 0.821772 0.217800
C172  C     C_3   0.877048 0.426239 0.802097 -0.750634
H94   H     H_    0.847681 0.428654 0.751938 0.221957
H95   H     H_    0.895852 0.396035 0.812482 0.236573
H96   H     H_    0.898672 0.455341 0.818429 0.239691

loop_
_geom_bond_atom_site_label_1
_geom_bond_atom_site_label_2
_ccdc_geom_bond_type
C60   H16   S    
C99   C103  A    
C4    C36   S    
C165  H65   S    
C23   C155  T    
C109  H29   S    
C98   H22   S    
C119  C161  S    
C39   N3    S    
C172  H94   S    
C167  H67   S    
C46   O26   A    
C32   H80   S    
C112  C124  A    
C55   C59   A    
C26   C50   A    
C13   H57   S    
C29   C33   A    
C100  C104  A    
C127  H39   S    
C8    C168  S    
N3    C171  S    
C54   C74   A    
C43   H7    S    
C140  H52   S    
C12   C16   S    
C115  H35   S    
C70   C74   A    
C132  H48   S    
C113  H33   S    
O9    Zn10  S    
C5    C13   S    
C141  C145  A    
O7    Zn11  S    
C125  C135  A    
C7    C15   S    
C8    C16   S    
C11   C167  S    
C78   O32   A    
C107  C124  S    
C102  H26   S    
C41   C49   A    
C116  H36   S    
C25   C29   A    
O17   Zn3   S    
C27   C31   A    
C86   H42   S    
C28   C32   A    
C16   C122  S    
C127  C136  A    
C4    O4    A    
C88   C122  S    
C62   C66   A    
C98   C102  A    
C54   H10   S    
C15   H59   S    
C110  C123  A    
C68   C72   A    
C115  C118  A    
C158  H70   S    
C129  C133  A    
O5    Zn9   S    
C49   C73   S    
C90   C118  S    
C172  H96   S    
C16   H60   S    
C11   H63   S    
C30   H78   S    
C111  C124  A    
C80   O38   A    
C71   H19   S    
C53   H9    S    
C57   C61   A    
O46   Zn10  S    
C79   O33   A    
C59   C63   A    
C60   C64   A    
C78   C106  S    
C64   C94   S    
C65   I1    S    
O26   Zn3   S    
C66   C70   A    
C77   C105  S    
C87   C159  S    
C130  H46   S    
C88   C160  S    
C127  C131  A    
O34   Zn6   S    
C97   C107  A    
C125  C129  A    
C95   O13   A    
C5    C21   S    
C132  C134  A    
C170  H86   S    
C88   H44   S    
C137  H49   S    
C21   C153  T    
C28   H76   S    
C18   C150  T    
C112  H32   S    
C24   C156  T    
C141  H53   S    
C6    C22   S    
C69   H17   S    
N2    C170  S    
O38   Zn5   S    
C81   O35   A    
C82   O36   A    
C83   O41   A    
C99   C108  A    
C64   C68   A    
C3    O3    A    
C94   O8    A    
C79   O37   A    
C50   C74   S    
C1    O1    A    
C89   O46   A    
N1    C169  S    
C6    C14   S    
C2    O18   A    
C10   H62   S    
C122  C164  S    
C38   N2    S    
C125  H37   S    
C85   C119  S    
C9    C13   S    
C93   O11   A    
C139  C143  A    
C94   O12   A    
C159  C167  S    
C19   C151  T    
C110  C114  A    
C40   N4    S    
C120  C162  S    
C5    C85   S    
C44   C52   A    
C97   H21   S    
C96   O16   A    
O13   Zn9   S    
C100  H24   S    
C11   C15   S    
C27   C51   A    
C139  C148  A    
C100  C108  A    
O3    Zn2   S    
C30   C34   A    
C42   H6    S    
C157  C165  S    
C171  H91   S    
C109  C123  A    
C91   O5    A    
C8    C88   S    
C77   O30   A    
C59   H15   S    
O10   Zn9   S    
C61   C65   A    
C79   C153  S    
N4    C172  S    
C84   O44   A    
C3    C35   S    
C10   C166  S    
C170  H88   S    
C11   C163  S    
C19   C163  S    
C9    C161  S    
C17   C161  S    
C42   C50   A    
C113  C117  A    
C48   O28   A    
C89   C117  S    
C26   C30   A    
O39   Zn8   S    
O40   Zn7   S    
O24   Zn2   S    
C112  C116  A    
C56   H12   S    
C46   C150  S    
C41   H5    S    
C169  H84   S    
O30   Zn6   S    
O18   Zn3   S    
C87   H43   S    
C44   H8    S    
O23   Zn2   S    
C52   C76   S    
C27   H75   S    
C32   C36   A    
C25   H73   S    
C90   O47   A    
C96   C146  S    
C6    C86   S    
O20   Zn4   S    
C2    C34   S    
C45   O25   A    
C8    C24   S    
O6    Zn10  S    
C47   O27   A    
C37   C41   A    
C114  C117  A    
C70   H18   S    
C47   O23   A    
C40   C44   A    
C55   H11   S    
C48   O24   A    
C10   C162  S    
C86   C120  S    
C10   C14   S    
C92   O6    A    
C58   C62   A    
C143  C146  A    
O47   Zn11  S    
C6    C166  S    
C80   O34   A    
C110  H30   S    
O41   Zn5   S    
C95   C145  S    
C131  C134  A    
O43   Zn7   S    
C104  C106  A    
C66   I2    S    
C160  C168  S    
C84   C134  S    
C85   C157  S    
C89   O45   A    
C160  C164  S    
C78   O31   A    
C14   H58   S    
C128  C136  A    
C54   C58   A    
C126  C130  A    
C20   C164  S    
C102  C105  A    
C7    C167  S    
C7    C87   S    
C114  H34   S    
C69   C73   A    
C81   O39   A    
C82   O40   A    
C169  H82   S    
C142  C145  A    
C128  H40   S    
C103  H27   S    
O21   Zn1   S    
O28   Zn4   S    
C101  H25   S    
O29   Zn5   S    
C172  H95   S    
C53   C73   A    
O31   Zn7   S    
O12   Zn11  S    
C3    O19   A    
C144  C146  A    
C138  C142  A    
C87   C121  S    
C53   C57   A    
C131  H47   S    
C33   C37   A    
C98   C107  A    
C56   C60   A    
C35   C39   A    
C166  H66   S    
O25   Zn3   S    
C91   O9    A    
C12   C164  S    
O2    Zn1   S    
C104  H28   S    
O14   Zn10  S    
O22   Zn1   S    
C157  H69   S    
C47   C151  S    
C126  C135  A    
C14   C120  S    
C48   C152  S    
C31   C35   A    
C130  C133  A    
C108  C123  S    
C157  C161  S    
O27   Zn4   S    
C158  C166  S    
C137  C141  A    
C29   H77   S    
C137  C147  A    
C140  C144  A    
C81   C155  S    
C92   O10   A    
O11   Zn12  S    
C93   O7    A    
C80   C154  S    
O8    Zn12  S    
C4    O20   A    
C63   C93   S    
C58   H14   S    
C9    C165  S    
C171  H90   S    
N4    H93   S    
O48   Zn12  S    
C99   H23   S    
C18   C162  S    
C43   C51   A    
N1    H81   S    
C126  H38   S    
C65   C69   A    
C67   C71   A    
N3    H89   S    
C25   C49   A    
O15   Zn11  S    
N2    H85   S    
C20   C152  T    
C159  H71   S    
C68   I4    S    
C120  H2    S    
C121  C163  S    
O1    Zn1   S    
C56   C76   A    
C72   C76   A    
C140  C148  A    
C57   H13   S    
C1    C33   S    
C45   O21   A    
C51   C75   S    
C38   C42   A    
C2    O2    A    
C143  H55   S    
C7    C23   S    
C119  H1    S    
C9    H61   S    
C77   O29   A    
C72   H20   S    
C111  H31   S    
C95   O14   A    
C170  H87   S    
C62   C92   S    
O42   Zn6   S    
C5    C165  S    
O16   Zn12  S    
C109  C113  A    
C168  H68   S    
C82   C156  S    
C129  H45   S    
C31   H79   S    
C128  C132  A    
C13   C119  S    
C83   O42   A    
C12   H64   S    
C101  C105  A    
C63   C67   A    
C169  H83   S    
C83   C133  S    
O32   Zn8   S    
C36   C40   A    
O4    Zn2   S    
C39   C43   A    
C90   O48   A    
C37   N1    S    
C139  H51   S    
O45   Zn9   S    
C138  C147  A    
O19   Zn4   S    
C86   C158  S    
C116  C118  A    
C121  H3    S    
C96   O15   A    
C122  H4    S    
C159  C163  S    
O33   Zn5   S    
C22   C154  T    
O35   Zn7   S    
O36   Zn8   S    
C160  H72   S    
C34   C38   A    
C17   C149  T    
C12   C168  S    
C171  H92   S    
C26   H74   S    
O37   Zn6   S    
C55   C75   A    
C71   C75   A    
C28   C52   A    
C84   O43   A    
C67   I3    S    
O44   Zn8   S    
C103  C106  A    
C45   C149  S    
C15   C121  S    
C144  H56   S    
C136  C147  S    
C158  C162  S    
C1    O17   A    
C85   H41   S    
C138  H50   S    
C46   O22   A    
C135  C148  S    
C111  C115  A    
C142  H54   S    
C97   C101  A    
C61   C91   S    
