data_mof_unit_pretest_1094.cif
_audit_creation_date              2012-10-26T21:19:45-0400
_audit_creation_method            fapswitch 2.2
_symmetry_space_group_name_H-M    P1
_symmetry_Int_Tables_number       1
_space_group_crystal_system       triclinic
_cell_length_a                    10.823081
_cell_length_b                    15.085706
_cell_length_c                    13.854816
_cell_angle_alpha                 90.407966
_cell_angle_beta                  90.076386
_cell_angle_gamma                 90.153041
_cell_volume                      2262.06122405

loop_
_atom_site_label
_atom_site_type_symbol
_atom_type_description
_atom_site_fract_x
_atom_site_fract_y
_atom_site_fract_z
_atom_type_partial_charge
C1    C     C_R   0.500999 0.330120 0.499713 0.539790
C2    C     C_R   0.488554 0.815050 0.417573 -0.151960
C3    C     C_R   0.507451 0.234191 0.499184 0.002353
C4    C     C_R   0.510407 0.767220 0.501811 -0.002676
C5    C     C_R   0.594823 0.191404 0.441237 -0.129998
C6    C     C_R   0.541178 0.812247 0.587501 -0.123915
C7    C     C_R   0.605968 0.098951 0.442469 0.020897
C8    C     C_R   0.550116 0.904905 0.590086 0.022488
C9    C     C_R   0.524285 0.049749 0.501980 0.046639
C10   C     C_R   0.525224 0.952521 0.504224 0.048961
C11   C     C_R   0.594215 0.542911 0.108503 -0.147354
C12   C     C_R   0.502569 0.670349 0.500417 0.543464
C13   C     C_R   0.445209 0.430530 0.891503 -0.147681
C14   C     C_R   0.591483 0.542908 0.209979 0.044221
C15   C     C_R   0.444784 0.432416 0.790049 0.049570
C16   C     C_R   0.262111 0.501862 0.499799 0.547961
C17   C     C_R   0.737661 0.497216 0.500093 0.545337
C18   C     C_R   0.408991 0.456884 0.208902 0.057065
C19   C     C_R   0.556459 0.567033 0.791144 0.049336
C20   C     C_R   0.407035 0.456543 0.107402 -0.144308
C21   C     C_R   0.557143 0.568505 0.892648 -0.146631
C22   C     C_R   0.500825 0.499642 0.054705 0.022195
C23   C     C_R   0.871398 0.494304 0.500002 -0.002351
C24   C     C_R   0.501147 0.499532 0.945320 0.021891
C25   C     C_R   0.223431 0.718890 0.280275 -0.107358
C26   C     C_R   0.743640 0.281668 0.702241 -0.097628
C27   C     C_R   0.174813 0.671404 0.357853 -0.064888
C28   C     C_R   0.807387 0.326995 0.629981 -0.062141
C29   C     C_R   0.119165 0.588421 0.341908 0.055193
C30   C     C_R   0.876876 0.403172 0.652959 0.049787
C31   C     C_R   0.113205 0.553502 0.247776 -0.100354
C32   C     C_R   0.883317 0.432412 0.749283 -0.090549
C33   C     C_R   0.163872 0.600556 0.170723 -0.115278
C34   C     C_R   0.128081 0.502382 0.499285 -0.002774
C35   C     C_R   0.819003 0.387057 0.821291 -0.108557
C36   C     C_R   0.219031 0.683173 0.186971 -0.097848
C37   C     C_R   0.749017 0.311904 0.797753 -0.099904
C38   C     C_R   0.932925 0.535487 0.423902 -0.154949
C39   C     C_R   0.066376 0.460258 0.575190 -0.155618
C40   C     C_3   0.704577 0.056309 0.379638 -0.273546
C41   C     C_3   0.809460 0.016969 0.439073 -0.439811
C42   C     C_3   0.583954 0.949588 0.685286 -0.274062
C43   C     C_3   0.711313 0.993117 0.682689 -0.442115
C44   C     C_R   0.938200 0.454360 0.575580 -0.032911
C45   C     C_R   0.060767 0.540237 0.422570 -0.033757
C46   C     C_R   0.434351 0.093714 0.557061 -0.142094
C47   C     C_R   0.492664 0.906873 0.419463 -0.145510
C48   C     C_R   0.428029 0.185468 0.557629 -0.149242
Cu1   Cu    Cu3+1 0.500000 0.499990 0.596430 0.937262
Cu2   Cu    Cu3+1 0.500000 0.500010 0.403570 0.936324
H1    H     H_    0.257380 0.719851 0.127159 0.102613
H2    H     H_    0.599960 0.624320 0.929026 0.082026
H3    H     H_    0.263171 0.783878 0.292212 0.093017
H4    H     H_    0.689301 0.223545 0.684048 0.107300
H5    H     H_    0.178489 0.699816 0.429825 0.096429
H6    H     H_    0.801342 0.303571 0.556032 0.088861
H7    H     H_    0.069705 0.489860 0.234274 0.094187
H8    H     H_    0.935835 0.491259 0.768142 0.098617
H9    H     H_    0.159885 0.573151 0.098370 0.101767
H10   H     H_    0.822705 0.410528 0.895251 0.103170
H11   H     H_    0.881002 0.566701 0.366400 0.123271
H12   H     H_    0.698799 0.277204 0.853502 0.100542
H13   H     H_    0.118302 0.428993 0.632617 0.123660
H14   H     H_    0.368335 0.056648 0.599569 0.104654
H15   H     H_    0.469362 0.942655 0.354435 0.102744
H16   H     H_    0.359366 0.218415 0.601897 0.108161
H17   H     H_    0.466771 0.781512 0.350406 0.128516
H18   H     H_    0.656304 0.230690 0.396886 0.108662
H19   H     H_    0.559592 0.774923 0.652463 0.112259
H20   H     H_    0.847825 0.067544 0.489571 0.144687
H21   H     H_    0.776898 0.958592 0.480026 0.166519
H22   H     H_    0.884466 0.994683 0.390056 0.133768
H23   H     H_    0.670395 0.575750 0.073025 0.083224
H24   H     H_    0.664105 0.004621 0.331980 0.140114
H25   H     H_    0.745884 0.106219 0.330497 0.130827
H26   H     H_    0.782131 0.944478 0.659048 0.147468
H27   H     H_    0.711587 0.050891 0.633780 0.160927
H28   H     H_    0.736017 0.017303 0.756115 0.129557
H29   H     H_    0.513588 0.999272 0.706168 0.137702
H30   H     H_    0.584869 0.900300 0.744577 0.126972
H31   H     H_    0.403011 0.374487 0.926958 0.082035
H32   H     H_    0.663513 0.577057 0.249752 0.116711
H33   H     H_    0.400371 0.379174 0.750389 0.115482
H34   H     H_    0.336676 0.422892 0.247831 0.123358
H35   H     H_    0.600975 0.620163 0.752296 0.113323
H36   H     H_    0.331031 0.423679 0.071061 0.080219
N1    N     N_R   0.500000 0.500020 0.258690 -0.217537
N2    N     N_R   0.500000 0.499980 0.741310 -0.213784
O1    O     O_R   0.500010 0.371450 0.581430 -0.508109
O2    O     O_R   0.499990 0.628550 0.418570 -0.498957
O3    O     O_R   0.500010 0.371460 0.418560 -0.502764
O4    O     O_R   0.499990 0.628540 0.581440 -0.514944
O5    O     O_R   0.319640 0.500000 0.581430 -0.508205
O6    O     O_R   0.680360 0.500000 0.418570 -0.520746
O7    O     O_R   0.319640 0.500010 0.418560 -0.496013
O8    O     O_R   0.680360 0.499990 0.581440 -0.485256

loop_
_geom_bond_atom_site_label_1
_geom_bond_atom_site_label_2
_ccdc_geom_bond_type
C6    H19   S    
C42   H30   S    
C27   C29   A    
C32   H8    S    
C8    C42   S    
C37   H12   S    
C28   H6    S    
C43   H28   S    
C16   O5    A    
C17   C23   S    
C12   O2    A    
C19   C21   A    
C25   H3    S    
C14   N1    A    
C11   C14   A    
C27   H5    S    
Cu2   O7    S    
C13   H31   S    
C3    C48   A    
C33   C36   A    
C38   C45   A    
C16   C34   S    
Cu2   O2    S    
C20   H36   S    
C18   H34   S    
C7    C40   S    
C31   C33   A    
C4    C12   S    
C9    C10   S    
C41   H21   S    
C38   H11   S    
C9    C46   A    
C33   H9    S    
Cu1   N2    S    
C30   C44   S    
C5    H18   S    
C26   H4    S    
C46   C48   A    
C34   C39   A    
C32   C35   A    
C4    C6    A    
C2    H17   S    
C11   H23   S    
C34   C45   A    
Cu2   O6    S    
C15   H33   S    
C3    C5    A    
C23   C44   A    
C13   C24   A    
C46   H14   S    
C35   H10   S    
C1    C3    S    
C2    C4    A    
C17   O8    A    
C36   H1    S    
Cu2   N1    S    
C41   H22   S    
C8    C10   A    
C40   C41   S    
C20   C22   A    
C19   N2    A    
C13   C15   A    
C22   C24   S    
C25   C27   A    
C42   C43   S    
C14   H32   S    
Cu1   O4    S    
C5    C7    A    
C43   H26   S    
C7    C9    A    
C16   O7    A    
C1    O1    A    
C35   C37   A    
C12   O4    A    
Cu1   O1    S    
C19   H35   S    
C6    C8    A    
C26   C37   A    
C39   C44   A    
C2    C47   A    
C43   H27   S    
C23   C38   A    
C39   H13   S    
C11   C22   A    
C26   C28   A    
C18   N1    A    
C40   H25   S    
C48   H16   S    
C31   H7    S    
C28   C30   A    
C29   C31   A    
C30   C32   A    
C40   H24   S    
C18   C20   A    
Cu1   O8    S    
C25   C36   A    
Cu2   O3    S    
C42   H29   S    
C1    O3    A    
Cu1   Cu2   S    
C21   C24   A    
C29   C45   S    
C10   C47   A    
C41   H20   S    
C17   O6    A    
Cu1   O5    S    
C47   H15   S    
C21   H2    S    
C15   N2    A    
