data_mof_unit_pretest_124.cif
_audit_creation_date              2012-12-10T18:05:11-0500
_audit_creation_method            fapswitch 2.2
_symmetry_space_group_name_H-M    P1
_symmetry_Int_Tables_number       1
_space_group_crystal_system       triclinic
_cell_length_a                    9.572692
_cell_length_b                    10.78698
_cell_length_c                    16.975541
_cell_angle_alpha                 87.893023
_cell_angle_beta                  94.097315
_cell_angle_gamma                 89.25822
_cell_volume                      1747.02627529

loop_
_atom_site_label
_atom_site_type_symbol
_atom_type_description
_atom_site_fract_x
_atom_site_fract_y
_atom_site_fract_z
_atom_type_partial_charge
C1    C     C_R   0.500420 0.262634 0.498066 0.768103
C2    C     C_R   0.499579 0.737366 0.501931 0.768102
C3    C     C_R   0.417718 0.936502 0.554418 -0.012941
C4    C     C_R   0.582268 0.063499 0.445570 -0.012939
C5    C     C_R   0.498976 0.871280 0.503041 -0.146507
C6    C     C_R   0.501021 0.128721 0.496953 -0.146499
C7    C     C_R   0.084248 0.430318 0.554481 0.020669
C8    C     C_R   0.915751 0.569684 0.445520 0.020675
C9    C     C_R   0.935987 0.429054 0.555193 0.091357
C10   C     C_R   0.064013 0.570953 0.444810 0.091363
C11   C     C_R   0.517267 0.501262 0.651117 0.795326
C12   C     C_R   0.482732 0.498738 0.348884 0.795320
C13   C     C_R   0.524607 0.512255 0.737361 -0.098407
C14   C     C_R   0.475388 0.487740 0.262640 -0.098373
C15   C     C_R   0.403072 0.544736 0.774134 -0.178551
C16   C     C_R   0.596907 0.455213 0.225868 -0.178545
C17   C     C_R   0.406428 0.558112 0.855977 0.001046
C18   C     C_R   0.593539 0.441828 0.144024 0.001051
C19   C     C_R   0.533897 0.534019 0.901823 0.275578
C20   C     C_R   0.466080 0.465959 0.098181 0.275584
C21   C     C_R   0.655833 0.506113 0.864725 -0.144764
C22   C     C_R   0.344158 0.493914 0.135277 -0.144748
C23   C     C_R   0.651551 0.495153 0.783054 -0.176157
C24   C     C_R   0.348448 0.504882 0.216948 -0.176166
C25   C     C_R   0.418926 0.065659 0.549915 -0.122250
C26   C     C_R   0.581066 0.934341 0.450076 -0.122218
Cu1   Cu    Cu3+1 0.640660 0.500020 0.500000 0.947541
Cu2   Cu    Cu3+1 0.359340 0.499980 0.500000 0.947547
H1    H     H_    0.694228 0.437371 0.261336 0.204622
H2    H     H_    0.305744 0.562548 0.738665 0.204646
H3    H     H_    0.753964 0.489893 0.899666 0.169628
H4    H     H_    0.246033 0.510166 0.100337 0.169601
H5    H     H_    0.746954 0.471879 0.755904 0.195880
H6    H     H_    0.253057 0.528194 0.244099 0.195830
H7    H     H_    0.358948 0.118074 0.589554 0.186245
H8    H     H_    0.641042 0.881923 0.410437 0.186264
H9    H     H_    0.149289 0.374123 0.597082 0.179789
H10   H     H_    0.850708 0.625879 0.402920 0.179810
N1    N     N_2   0.542545 0.535679 0.985206 -0.271281
N2    N     N_2   0.457432 0.464295 0.014797 -0.271304
N3    N     N_R   0.852070 0.500030 0.499980 -0.230018
N4    N     N_R   0.147930 0.499970 0.500020 -0.230012
O1    O     O_R   0.618740 0.319660 0.500000 -0.618720
O2    O     O_R   0.381260 0.680340 0.500000 -0.618701
O3    O     O_R   0.381170 0.319630 0.500010 -0.561003
O4    O     O_R   0.618830 0.680370 0.499990 -0.561006
O5    O     O_R   0.631780 0.498870 0.613920 -0.598086
O6    O     O_R   0.368220 0.501130 0.386080 -0.598109
O7    O     O_R   0.394210 0.498840 0.613930 -0.588510
O8    O     O_R   0.605790 0.501160 0.386070 -0.588514
C27   C     C_2   0.721273 0.398172 0.107805 0.420072
H11   H     H_    0.715796 0.370329 0.046948 0.098790
O9    O     O_2   0.834498 0.391363 0.145862 -0.523478
C28   C     C_2   0.278669 0.601719 0.892193 0.420065
H12   H     H_    0.284130 0.629560 0.953049 0.098778
O10   O     O_2   0.165445 0.608490 0.854134 -0.523485
C29   C     C_2   0.337847 0.872253 0.615521 0.392646
H13   H     H_    0.353880 0.774047 0.629551 0.080556
O11   O     O_2   0.253722 0.928972 0.651961 -0.510716
C30   C     C_2   0.662118 0.127747 0.384457 0.392597
H14   H     H_    0.646159 0.225972 0.370465 0.080589
O12   O     O_2   0.746141 0.071005 0.347960 -0.510696
C31   C     C_2   0.877054 0.347768 0.616582 0.363542
H15   H     H_    0.770874 0.316860 0.611421 0.139370
O13   O     O_2   0.949528 0.311708 0.675325 -0.549392
C32   C     C_2   0.122945 0.652259 0.383430 0.363516
H16   H     H_    0.229142 0.683123 0.388576 0.139394
O14   O     O_2   0.050452 0.688388 0.324710 -0.549394

loop_
_geom_bond_atom_site_label_1
_geom_bond_atom_site_label_2
_ccdc_geom_bond_type
C12   O8    A    
C31   O13   D    
C15   C17   A    
C19   C21   A    
C11   O7    A    
C14   C16   A    
C5    C26   A    
C10   N4    A    
C21   H3    S    
Cu2   O7    S    
Cu1   N3    S    
C9    N3    A    
C15   H2    S    
Cu1   O8    S    
C12   C14   S    
C12   O6    A    
C4    C30   S    
C13   C15   A    
C32   H16   S    
C7    H9    S    
C3    C5    A    
Cu2   O3    S    
C31   H15   S    
C2    O4    A    
C30   O12   D    
C11   C13   S    
C1    O3    A    
C29   H13   S    
C19   N1    S    
C8    H10   S    
C25   H7    S    
C3    C29   S    
Cu1   O4    S    
C4    C6    A    
C17   C19   A    
C20   C22   A    
C18   C27   S    
C22   C24   A    
C10   C32   S    
C21   C23   A    
C20   N2    S    
C28   O10   D    
C4    C26   A    
C29   O11   D    
C6    C25   A    
C32   O14   D    
N1    N2    D    
Cu1   O5    S    
C27   H11   S    
C2    C5    S    
Cu1   O1    S    
C3    C25   A    
C22   H4    S    
C8    N3    A    
C13   C23   A    
C18   C20   A    
C16   C18   A    
C7    N4    A    
C14   C24   A    
Cu1   Cu2   S    
C7    C9    A    
C26   H8    S    
C28   H12   S    
Cu2   O6    S    
Cu2   N4    S    
C27   O9    D    
C16   H1    S    
C9    C31   S    
C11   O5    A    
C17   C28   S    
C1    O1    A    
C8    C10   A    
C24   H6    S    
C1    C6    S    
C2    O2    A    
C30   H14   S    
C23   H5    S    
Cu2   O2    S    
