data_mof_unit_pretest_195.cif
_audit_creation_date              2012-12-11T15:45:08-0500
_audit_creation_method            fapswitch 2.2
_symmetry_space_group_name_H-M    P1
_symmetry_Int_Tables_number       1
_space_group_crystal_system       triclinic
_cell_length_a                    19.244109
_cell_length_b                    11.056013
_cell_length_c                    18.718612
_cell_angle_alpha                 89.966777
_cell_angle_beta                  90.376548
_cell_angle_gamma                 89.767432
_cell_volume                      3982.5107297

loop_
_atom_site_label
_atom_site_type_symbol
_atom_type_description
_atom_site_fract_x
_atom_site_fract_y
_atom_site_fract_z
_atom_type_partial_charge
C1    C     C_R   0.759965 0.536789 0.648012 0.554674
C2    C     C_R   0.225580 0.482391 0.361632 0.568696
C3    C     C_R   0.259965 0.036793 0.648013 0.542550
C4    C     C_R   0.725580 0.982391 0.361632 0.570479
C5    C     C_R   0.777230 0.964927 0.555630 -0.100006
C6    C     C_R   0.180665 0.198893 0.489191 -0.097109
C7    C     C_R   0.277227 0.464922 0.555632 -0.101159
C8    C     C_R   0.680663 0.698880 0.489185 -0.097261
C9    C     C_R   0.771802 0.935577 0.482978 0.207424
C10   C     C_R   0.196165 0.174801 0.561524 0.203811
C11   C     C_R   0.271801 0.435575 0.482980 0.208465
C12   C     C_R   0.696161 0.674788 0.561517 0.203792
C13   C     C_3   0.702764 0.237489 0.441114 0.573949
C14   C     C_3   0.357071 0.015880 0.509374 0.603997
C15   C     C_3   0.202768 0.737490 0.441116 0.573458
C16   C     C_3   0.857074 0.515876 0.509368 0.603553
C17   C     C_3   0.709683 0.271332 0.519352 0.181940
C18   C     C_3   0.342230 0.047351 0.431169 0.186341
C19   C     C_3   0.209685 0.771331 0.519355 0.182332
C20   C     C_3   0.842234 0.547352 0.431164 0.186767
C21   C     C_R   0.747146 0.071400 0.581284 -0.008097
C22   C     C_R   0.219339 0.143347 0.434650 -0.007387
C23   C     C_R   0.247144 0.571396 0.581287 -0.008049
C24   C     C_R   0.719341 0.643342 0.434646 -0.007010
C25   C     C_R   0.007896 0.346994 0.431328 0.080419
C26   C     C_R   0.014997 0.327339 0.581768 0.088315
C27   C     C_R   0.507890 0.846995 0.431324 0.080536
C28   C     C_R   0.514992 0.827339 0.581764 0.088666
C29   C     C_R   0.963246 0.138084 0.426032 0.208993
C30   C     C_R   0.000075 0.103577 0.570507 0.221985
C31   C     C_R   0.463239 0.638087 0.426026 0.208962
C32   C     C_R   0.500063 0.603576 0.570501 0.221905
C33   C     C_R   0.957161 0.022766 0.457946 0.256770
C34   C     C_R   0.972273 0.007412 0.530389 0.315881
C35   C     C_R   0.457152 0.522768 0.457938 0.257076
C36   C     C_R   0.472261 0.507413 0.530382 0.316267
C37   C     C_R   0.004434 0.221447 0.539666 -0.083421
C38   C     C_R   0.993512 0.234611 0.464866 -0.043312
C39   C     C_R   0.504425 0.721447 0.539661 -0.083486
C40   C     C_R   0.493504 0.734613 0.464861 -0.043416
C41   C     C_R   0.036448 0.434015 0.548450 0.004093
C42   C     C_R   0.021469 0.451328 0.475157 -0.035435
C43   C     C_R   0.536442 0.934017 0.548445 0.003993
C44   C     C_R   0.521462 0.951330 0.475152 -0.035077
C45   C     C_R   0.772599 0.123919 0.647065 0.571108
C46   C     C_R   0.207640 0.172209 0.360617 0.523841
C47   C     C_R   0.272597 0.623915 0.647067 0.566378
C48   C     C_R   0.707641 0.672207 0.360616 0.524008
C49   C     C_R   0.060766 0.531250 0.590328 0.382975
C50   C     C_R   0.015601 0.574020 0.451167 0.411964
C51   C     C_R   0.560761 0.031253 0.590321 0.383226
C52   C     C_R   0.515594 0.074022 0.451162 0.412189
C53   C     C_R   0.052266 0.648588 0.566472 -0.036989
C54   C     C_R   0.030417 0.669809 0.496937 0.001412
C55   C     C_R   0.552260 0.148591 0.566465 -0.037367
C56   C     C_R   0.530410 0.169811 0.496930 0.001418
C57   C     C_R   0.752618 0.069531 0.075325 -0.021143
C58   C     C_R   0.260278 0.048453 0.931553 0.011523
C59   C     C_R   0.253308 0.571774 0.076249 -0.011788
C60   C     C_R   0.767494 0.515499 0.935854 -0.004711
C61   C     C_R   0.778007 0.978495 0.030383 0.026203
C62   C     C_R   0.196426 0.033794 0.962650 0.077807
C63   C     C_R   0.276514 0.480384 0.030670 0.023769
C64   C     C_R   0.701908 0.515427 0.965175 0.089520
C65   C     C_R   0.779427 0.991446 0.957576 0.002800
C66   C     C_R   0.188370 0.043049 0.034466 0.082094
C67   C     C_R   0.277182 0.493708 0.957894 -0.060000
C68   C     C_R   0.691651 0.537927 0.035438 0.070080
C69   C     C_R   0.716595 0.179892 0.969732 0.230024
C70   C     C_R   0.311435 0.052910 0.052864 0.278330
C71   C     C_R   0.222287 0.689006 0.971753 0.240856
C72   C     C_R   0.814181 0.540974 0.058286 0.276342
C73   C     C_R   0.723391 0.174005 0.044334 0.288316
C74   C     C_R   0.319571 0.049196 0.977966 0.274073
C75   C     C_R   0.227831 0.679867 0.046402 0.290455
C76   C     C_R   0.824765 0.520878 0.984565 0.228873
C77   C     C_3   0.846170 0.912683 0.031211 0.607285
C78   C     C_3   0.127444 0.085803 0.944624 0.568848
C79   C     C_3   0.344283 0.413807 0.030152 0.641683
C80   C     C_3   0.633978 0.568661 0.942533 0.590082
C81   C     C_3   0.845598 0.920521 0.950187 0.607974
C82   C     C_3   0.118406 0.098763 0.025081 0.590799
C83   C     C_3   0.341268 0.417989 0.949250 0.621564
C84   C     C_3   0.621821 0.591838 0.022004 0.591577
C85   C     C_R   0.752061 0.094505 0.925367 -0.083868
C86   C     C_R   0.244165 0.069213 0.079939 -0.006719
C87   C     C_R   0.253564 0.599792 0.926644 -0.079260
C88   C     C_R   0.746217 0.565881 0.081731 -0.008958
C89   C     C_R   0.974039 0.343780 0.648897 0.641187
C90   C     C_R   0.031436 0.348094 0.355374 0.603547
C91   C     C_R   0.474037 0.843780 0.648895 0.641569
C92   C     C_R   0.531434 0.848094 0.355372 0.605419
C93   C     C_R   0.002888 0.350741 0.075146 0.088819
C94   C     C_R   0.995236 0.333408 0.925462 0.098585
C95   C     C_R   0.496445 0.849648 0.077481 0.067887
C96   C     C_R   0.492496 0.834952 0.926799 0.065677
C97   C     C_R   0.037092 0.431063 0.029879 0.132631
C98   C     C_R   0.039092 0.418280 0.957241 0.095464
C99   C     C_R   0.506590 0.949988 0.033139 0.116987
C100  C     C_R   0.515813 0.936157 0.962247 0.084645
C101  C     C_R   0.960455 0.249555 0.970170 -0.127047
C102  C     C_R   0.965813 0.256289 0.044624 -0.113953
C103  C     C_R   0.468248 0.738219 0.969697 -0.129929
C104  C     C_R   0.471956 0.744418 0.044849 -0.104169
C105  C     C_3   0.038957 0.565459 0.026909 0.163079
C106  C     C_3   0.055749 0.550968 0.948228 0.131444
C107  C     C_3   0.533681 0.076849 0.030511 0.198106
C108  C     C_3   0.549303 0.055798 0.951472 0.164952
C109  C     C_R   0.773438 0.485840 0.859858 0.581534
C110  C     C_R   0.240673 0.533913 0.149107 0.568252
C111  C     C_R   0.263990 0.021820 0.855646 0.592672
C112  C     C_R   0.740466 0.033092 0.148655 0.574697
C113  C     C_R   0.772794 0.128329 0.853567 0.563309
C114  C     C_R   0.227845 0.122089 0.148961 0.580874
C115  C     C_R   0.273312 0.629937 0.854108 0.561838
C116  C     C_R   0.728006 0.622032 0.149176 0.579917
C117  C     C_R   0.970051 0.346114 0.853259 0.579426
C118  C     C_R   0.027697 0.348363 0.148092 0.601124
C119  C     C_R   0.469840 0.845880 0.853539 0.578874
C120  C     C_R   0.528034 0.848458 0.147891 0.610107
C121  C     C_R   0.731015 0.008958 0.437204 0.030462
C122  C     C_R   0.248903 0.089340 0.578022 0.018749
C123  C     C_R   0.231016 0.508958 0.437204 0.030560
C124  C     C_R   0.748903 0.589333 0.578018 0.017131
C125  C     C_R   0.696195 0.108626 0.464874 -0.033341
C126  C     C_R   0.281768 0.029664 0.522536 -0.028452
C127  C     C_R   0.196197 0.608626 0.464875 -0.033785
C128  C     C_R   0.781771 0.529659 0.522532 -0.030704
C129  C     C_R   0.704312 0.139748 0.536028 -0.018042
C130  C     C_R   0.267720 0.055556 0.452122 -0.009696
C131  C     C_R   0.204313 0.639747 0.536029 -0.017394
C132  C     C_R   0.767724 0.555554 0.452118 -0.009323
Cr1   Cr    Cr6+3 0.885860 0.491680 0.749630 1.123134
Cr2   Cr    Cr6+3 0.114140 0.491680 0.250370 1.111873
Cr3   Cr    Cr6+3 0.385860 0.991680 0.749630 1.122020
Cr4   Cr    Cr6+3 0.614140 0.991680 0.250370 1.088545
Cr5   Cr    Cr6+3 0.730490 0.332970 0.748720 1.116818
Cr6   Cr    Cr6+3 0.269510 0.332970 0.251280 1.112132
Cr7   Cr    Cr6+3 0.230490 0.832970 0.748720 1.116415
Cr8   Cr    Cr6+3 0.769510 0.832970 0.251280 1.118230
Cr9   Cr    Cr6+3 0.887570 0.179310 0.750150 1.114962
Cr10  Cr    Cr6+3 0.112430 0.179310 0.249850 1.120183
Cr11  Cr    Cr6+3 0.387570 0.679310 0.750150 1.111370
Cr12  Cr    Cr6+3 0.612430 0.679310 0.249850 1.115039
H1    H     H_    0.810479 0.911206 0.590313 0.169101
H2    H     H_    0.142466 0.267243 0.475732 0.094605
H3    H     H_    0.310474 0.411198 0.590317 0.165904
H4    H     H_    0.642462 0.767226 0.475726 0.094728
H5    H     H_    0.062521 0.722839 0.602480 0.214752
H6    H     H_    0.024090 0.761409 0.478083 0.257434
H7    H     H_    0.562516 0.222842 0.602473 0.214806
H8    H     H_    0.524083 0.261412 0.478077 0.257374
H9    H     H_    0.924376 0.185373 0.948054 0.204994
H10   H     H_    0.940053 0.190787 0.078059 0.191939
H11   H     H_    0.445872 0.659382 0.945518 0.216000
H12   H     H_    0.458625 0.667413 0.077275 0.214202
H13   H     H_    0.987456 0.607357 0.038305 0.210355
H14   H     H_    0.111468 0.562589 0.935251 0.123417
H15   H     H_    0.492338 0.145922 0.040140 0.194040
H16   H     H_    0.605150 0.045192 0.938096 0.126901
H17   H     H_    0.760122 0.306492 0.537325 0.124471
H18   H     H_    0.363871 0.135385 0.413621 0.221767
H19   H     H_    0.260123 0.806491 0.537330 0.125202
H20   H     H_    0.863873 0.635388 0.413618 0.221820
O1    O     O_R   0.957020 0.451640 0.669920 -0.414701
O2    O     O_R   0.042980 0.451640 0.330080 -0.451929
O3    O     O_R   0.457020 0.951640 0.669920 -0.415557
O4    O     O_R   0.542980 0.951640 0.330080 -0.452536
O5    O     O_R   0.736470 0.210100 0.823360 -0.522801
O6    O     O_R   0.263530 0.210100 0.176640 -0.457338
O7    O     O_R   0.236470 0.710100 0.823360 -0.507082
O8    O     O_R   0.763530 0.710100 0.176640 -0.456570
O9    O     O_R   0.831960 0.093290 0.830130 -0.432213
O10   O     O_R   0.168040 0.093290 0.169870 -0.445320
O11   O     O_R   0.331960 0.593290 0.830130 -0.452357
O12   O     O_R   0.668040 0.593290 0.169870 -0.449833
O13   O     O_R   0.945600 0.250580 0.824860 -0.505132
O14   O     O_R   0.054400 0.250580 0.175140 -0.429460
O15   O     O_R   0.445600 0.750580 0.824860 -0.500897
O16   O     O_R   0.554400 0.750580 0.175140 -0.437226
O17   O     O_3   0.834640 0.334650 0.749500 -0.328843
O18   O     O_3   0.165360 0.334650 0.250500 -0.346562
O19   O     O_3   0.334640 0.834650 0.749500 -0.306790
O20   O     O_3   0.665360 0.834650 0.250500 -0.343231
O21   O     O_R   0.821450 0.543440 0.674610 -0.446330
O22   O     O_R   0.178550 0.543440 0.325390 -0.515747
O23   O     O_R   0.321450 0.043440 0.674610 -0.454048
O24   O     O_R   0.678550 0.043440 0.325390 -0.515737
O25   O     O_R   0.715320 0.458650 0.668100 -0.470656
O26   O     O_R   0.284680 0.458650 0.331900 -0.449554
O27   O     O_R   0.215320 0.958650 0.668100 -0.472772
O28   O     O_R   0.784680 0.958650 0.331900 -0.448621
O29   O     O_R   0.737170 0.209590 0.674530 -0.460626
O30   O     O_R   0.262830 0.209590 0.325470 -0.499895
O31   O     O_R   0.237170 0.709590 0.674530 -0.460454
O32   O     O_R   0.762830 0.709590 0.325470 -0.500322
O33   O     O_R   0.832710 0.092740 0.669580 -0.510101
O34   O     O_R   0.167290 0.092740 0.330420 -0.486769
O35   O     O_R   0.332710 0.592740 0.669580 -0.515549
O36   O     O_R   0.667290 0.592740 0.330420 -0.487707
O37   O     O_R   0.946290 0.250060 0.676040 -0.488932
O38   O     O_R   0.053710 0.250060 0.323960 -0.499295
O39   O     O_R   0.446290 0.750060 0.676040 -0.489499
O40   O     O_R   0.553710 0.750060 0.323960 -0.498501
O41   O     O_R   0.956270 0.452200 0.830470 -0.485928
O42   O     O_R   0.043730 0.452200 0.169530 -0.471767
O43   O     O_R   0.456270 0.952200 0.830470 -0.477099
O44   O     O_R   0.543730 0.952200 0.169530 -0.489005
O45   O     O_R   0.820760 0.543950 0.823440 -0.502421
O46   O     O_R   0.179240 0.543950 0.176560 -0.448498
O47   O     O_R   0.320760 0.043950 0.823440 -0.519236
O48   O     O_R   0.679240 0.043950 0.176560 -0.467871
O49   O     O_R   0.714570 0.459210 0.828640 -0.431002
O50   O     O_R   0.285430 0.459210 0.171360 -0.454907
O51   O     O_R   0.214570 0.959210 0.828640 -0.451290
O52   O     O_R   0.785430 0.959210 0.171360 -0.447449
O53   O     O_3   0.675921 0.271417 0.942441 -0.611458
H21   H     H_    0.647432 0.237371 0.903203 0.355955
O54   O     O_3   0.369701 0.049899 0.096253 -0.693543
H22   H     H_    0.355044 0.040453 0.146574 0.325058
O55   O     O_3   0.186824 0.786972 0.944943 -0.629867
H23   H     H_    0.153544 0.756645 0.908662 0.354578
O56   O     O_3   0.871104 0.542552 0.103579 -0.684281
H24   H     H_    0.854908 0.543213 0.153673 0.328019
O57   O     O_3   0.697935 0.268859 0.084577 -0.641677
H25   H     H_    0.714898 0.260544 0.134414 0.317114
O58   O     O_3   0.385626 0.049585 0.952287 -0.654270
H26   H     H_    0.387670 0.114244 0.916076 0.409468
O59   O     O_3   0.205616 0.775960 0.087645 -0.650618
H27   H     H_    0.220393 0.762805 0.137839 0.322898
O60   O     O_3   0.891441 0.512205 0.961883 -0.696245
H28   H     H_    0.894307 0.566425 0.920442 0.384468
O61   O     O_3   0.840882 0.795399 0.057688 -0.637023
H29   H     H_    0.888693 0.761789 0.055755 0.363465
O62   O     O_3   0.083728 0.000589 0.912162 -0.631980
H30   H     H_    0.040869 0.045184 0.898425 0.367190
O63   O     O_3   0.339687 0.298498 0.059046 -0.628173
H31   H     H_    0.388034 0.267237 0.059585 0.373978
O64   O     O_3   0.589844 0.482484 0.911558 -0.620312
H32   H     H_    0.548463 0.527763 0.894201 0.357608
F1    F     F_    0.898594 0.978305 0.063986 -0.639865
F2    F     F_    0.131944 0.194090 0.907497 -0.633690
F3    F     F_    0.397771 0.480623 0.059985 -0.651045
F4    F     F_    0.641242 0.672760 0.901822 -0.600917
F5    F     F_    0.902136 0.982363 0.923592 -0.634122
F6    F     F_    0.118533 0.216790 0.048168 -0.634921
F7    F     F_    0.399007 0.472171 0.920067 -0.618288
F8    F     F_    0.619432 0.712940 0.040063 -0.619771
O65   O     O_3   0.834064 0.809747 0.915859 -0.647009
H33   H     H_    0.880639 0.773154 0.909025 0.359444
O66   O     O_3   0.067054 0.026180 0.056031 -0.605083
H34   H     H_    0.023499 0.041144 0.029140 0.368891
O67   O     O_3   0.325737 0.306943 0.917453 -0.687361
H35   H     H_    0.320272 0.323435 0.865606 0.346143
O68   O     O_3   0.570365 0.521150 0.054426 -0.609267
H36   H     H_    0.528704 0.523796 0.023269 0.361902
O69   O     O_3   0.093069 0.613213 0.067084 -0.671717
H37   H     H_    0.080692 0.699369 0.074954 0.378949
O70   O     O_3   0.010905 0.619111 0.904978 -0.694667
H38   H     H_    0.037011 0.638737 0.860951 0.347774
O71   O     O_3   0.593415 0.091883 0.071071 -0.666839
H39   H     H_    0.582246 0.155109 0.106897 0.368514
O72   O     O_3   0.512236 0.135267 0.907047 -0.656030
H40   H     H_    0.536986 0.136285 0.860731 0.342210
O73   O     O_3   0.809728 0.841209 0.454996 -0.659183
H41   H     H_    0.836649 0.801711 0.493904 0.376791
O74   O     O_3   0.163177 0.242613 0.613027 -0.703241
H42   H     H_    0.183686 0.223936 0.660435 0.336356
O75   O     O_3   0.309729 0.341209 0.454997 -0.659089
H43   H     H_    0.336649 0.301709 0.493906 0.376621
O76   O     O_3   0.663167 0.742595 0.613018 -0.701045
H44   H     H_    0.683672 0.723918 0.660426 0.343749
O77   O     O_3   0.142351 0.782692 0.408190 -0.665202
H45   H     H_    0.146638 0.764964 0.356510 0.373401
O78   O     O_3   0.880119 0.397978 0.524508 -0.691489
H46   H     H_    0.860730 0.340760 0.489067 0.361365
O79   O     O_3   0.642346 0.282689 0.408189 -0.665699
H47   H     H_    0.646630 0.264955 0.356509 0.372283
O80   O     O_3   0.380115 0.897984 0.524518 -0.690968
H48   H     H_    0.360730 0.840763 0.489076 0.361312
F9    F     F_    0.762519 0.259350 0.402271 -0.618330
F10   F     F_    0.395060 0.102549 0.545505 -0.626411
F11   F     F_    0.262524 0.759349 0.402275 -0.618295
F12   F     F_    0.895064 0.602542 0.545501 -0.625887
O81   O     O_3   0.653088 0.337284 0.545583 -0.685737
H49   H     H_    0.653636 0.416749 0.521120 0.352231
O82   O     O_3   0.354312 0.952480 0.383137 -0.612878
H50   H     H_    0.341423 0.984083 0.335220 0.357728
O83   O     O_3   0.153090 0.837283 0.545584 -0.685572
H51   H     H_    0.153638 0.916749 0.521123 0.352316
O84   O     O_3   0.854315 0.452485 0.383127 -0.612678
H52   H     H_    0.841445 0.484105 0.335208 0.357512
O85   O     O_3   0.938181 0.921965 0.419135 -0.616436
H53   H     H_    0.949664 0.935288 0.368228 0.343992
O86   O     O_3   0.959412 0.895631 0.560446 -0.667916
H54   H     H_    0.964985 0.899798 0.612989 0.369322
O87   O     O_3   0.438175 0.421967 0.419125 -0.616765
H55   H     H_    0.449661 0.435291 0.368219 0.342947
O88   O     O_3   0.459398 0.395631 0.560438 -0.668510
H56   H     H_    0.464965 0.399799 0.612981 0.368310
O89   O     O_3   0.933256 0.162113 0.360139 -0.641901
H57   H     H_    0.894935 0.104414 0.351384 0.369826
O90   O     O_3   0.026781 0.076351 0.637454 -0.670696
H58   H     H_    0.057383 0.142428 0.653753 0.367014
O91   O     O_3   0.433252 0.662117 0.360131 -0.642771
H59   H     H_    0.394932 0.604417 0.351373 0.369583
O92   O     O_3   0.526769 0.576344 0.637447 -0.670685
H60   H     H_    0.557374 0.642416 0.653745 0.367912
F13   F     F_    0.984371 0.606078 0.388865 -0.600694
F14   F     F_    0.087069 0.512651 0.657056 -0.617091
F15   F     F_    0.484365 0.106078 0.388858 -0.602167
F16   F     F_    0.587066 0.012657 0.657048 -0.615532

loop_
_geom_bond_atom_site_label_1
_geom_bond_atom_site_label_2
_ccdc_geom_bond_type
Cr12  O20   S    
Cr2   O46   S    
O84   H52   S    
Cr11  O11   S    
C2    C123  S    
C71   O55   S    
C47   O31   A    
C118  O42   A    
C111  O51   A    
C6    H2    S    
C94   C117  S    
C95   C99   A    
C46   O34   A    
O76   H44   S    
C29   C33   A    
C75   O59   S    
Cr12  O40   S    
O56   H24   S    
C70   C74   A    
C9    C121  A    
Cr7   O7    S    
C79   F3    S    
C87   C115  S    
C97   C105  S    
C15   C127  S    
C22   C130  A    
C119  O15   A    
C20   C132  S    
C16   O78   S    
C109  O45   A    
C41   C49   A    
Cr7   O31   S    
Cr5   O29   S    
C120  O44   A    
O72   H40   S    
C23   C47   S    
C82   F6    S    
C36   O88   S    
O89   H57   S    
C9    O73   S    
C60   C76   A    
C35   C36   A    
C16   F12   S    
C43   C44   A    
C37   C38   A    
C66   C82   S    
C78   C82   S    
O90   H58   S    
Cr12  O36   S    
C16   C20   S    
C107  O71   S    
C50   C54   A    
C55   H7    S    
Cr10  O18   S    
Cr9   O13   S    
C18   C130  S    
C51   F16   S    
C2    O26   A    
C10   C122  A    
C3    O23   A    
C57   C61   A    
C1    O21   A    
C59   C63   A    
C14   C126  S    
C60   C64   A    
C4    O24   A    
C1    C124  S    
C31   O91   S    
C49   C53   A    
C51   C55   A    
Cr6   O18   S    
C127  C131  A    
C61   C65   A    
C114  O10   A    
C5    C21   A    
C83   F7    S    
C126  C130  A    
C90   O38   A    
C20   H20   S    
Cr11  O39   S    
C32   O92   S    
C67   C83   S    
Cr1   O45   S    
Cr2   O22   S    
C12   O76   S    
Cr3   O19   S    
C30   C34   A    
C97   C98   A    
C54   H6    S    
C53   C54   A    
C5    C9    A    
C25   C90   S    
O55   H23   S    
C77   F1    S    
C64   C68   A    
C91   O3    A    
C110  O50   A    
O67   H35   S    
Cr5   O17   S    
C45   O33   A    
O69   H37   S    
C57   C73   A    
C15   O77   S    
C115  O11   A    
C60   C109  S    
Cr4   O48   S    
C27   C44   A    
Cr12  O16   S    
C61   C77   S    
C29   C38   A    
C107  C108  S    
Cr11  O15   S    
O61   H29   S    
Cr9   O17   S    
Cr1   O21   S    
C44   C52   A    
O79   H47   S    
Cr4   O24   S    
C53   H5    S    
C47   O35   A    
Cr2   O18   S    
Cr3   O23   S    
C46   O30   A    
C7    H3    S    
C100  C108  S    
C5    H1    S    
C62   C66   A    
C24   C48   S    
C88   C116  S    
Cr7   O51   S    
C39   C40   A    
O53   H21   S    
C121  C125  A    
O85   H53   S    
C125  C129  A    
C25   C38   A    
C16   C128  S    
C123  C127  A    
C27   C40   A    
C8    C12   A    
Cr12  O12   S    
O83   H51   S    
C23   C131  A    
C19   H19   S    
C21   C129  A    
C17   H17   S    
C42   C50   A    
C118  O14   A    
Cr1   O17   S    
C106  O70   S    
C49   F14   S    
C93   C97   A    
C69   C85   A    
C58   C74   A    
Cr3   O43   S    
C62   C78   S    
C66   C86   A    
O74   H42   S    
C70   O54   S    
C13   C17   S    
C84   F8    S    
C85   C113  S    
C13   C125  S    
C13   F9    S    
Cr10  O14   S    
C7    C23   A    
C96   C100  A    
C8    C24   A    
C28   C91   S    
C112  O52   A    
C50   F13   S    
C30   O90   S    
Cr3   O3    S    
O70   H38   S    
C1    O25   A    
C14   O80   S    
C58   C62   A    
Cr3   O47   S    
C55   C56   A    
C101  C102  A    
C11   O75   S    
C41   C42   A    
C4    O28   A    
C96   C119  S    
O64   H32   S    
C80   C84   S    
O66   H34   S    
C8    H4    S    
C15   C19   S    
Cr8   O20   S    
Cr9   O33   S    
C48   O36   A    
C69   O53   S    
Cr10  O38   S    
C80   O64   S    
O57   H25   S    
Cr7   O27   S    
Cr2   O42   S    
C94   C98   A    
C6    C22   A    
C31   C40   A    
C116  O8    A    
C32   C39   A    
C105  H13   S    
C117  O13   A    
O62   H30   S    
Cr2   O2    S    
C69   C73   A    
C56   H8    S    
C102  H10   S    
C92   O40   A    
C124  C128  A    
C71   C75   A    
O75   H43   S    
C90   O2    A    
C64   C80   S    
C110  O46   A    
C25   C42   A    
Cr6   O30   S    
C45   O29   A    
C58   C111  S    
C68   C84   S    
C115  O7    A    
O86   H54   S    
Cr4   O44   S    
C113  O5    A    
C18   O82   S    
C28   C39   A    
C72   O56   S    
O92   H60   S    
C30   C37   A    
Cr11  O19   S    
O88   H56   S    
O81   H49   S    
Cr1   O1    S    
C24   C132  A    
C65   C81   S    
O82   H50   S    
C77   C81   S    
Cr4   O20   S    
C84   O68   S    
O65   H33   S    
C78   F2    S    
C71   C87   A    
C103  H11   S    
C22   C46   S    
C31   C35   A    
Cr8   O28   S    
C32   C36   A    
O54   H22   S    
Cr6   O50   S    
C105  O69   S    
C11   C123  A    
C93   C102  A    
C6    C10   A    
C26   C37   A    
C95   C120  S    
C99   C107  S    
C105  C106  S    
C28   C43   A    
C120  O16   A    
O80   H48   S    
C79   C83   S    
C18   H18   S    
C43   C51   A    
O71   H39   S    
C4    C121  S    
C111  O47   A    
C34   O86   S    
O91   H59   S    
C19   O83   S    
C96   C103  A    
C103  C104  A    
C91   O39   A    
C29   O89   S    
C89   O37   A    
Cr6   O6    S    
O87   H55   S    
C14   C18   S    
C15   F11   S    
C72   C76   A    
C13   O79   S    
Cr10  O10   S    
C63   C79   S    
C14   F10   S    
C26   C89   S    
C7    C11   A    
O59   H27   S    
C83   O67   S    
C112  O48   A    
Cr9   O37   S    
C109  O49   A    
C57   C112  S    
Cr1   O41   S    
C59   C110  S    
C108  O72   S    
C92   O4    A    
O58   H26   S    
C94   C101  A    
C78   O62   S    
C98   C106  S    
O73   H41   S    
Cr5   O5    S    
C3    C122  S    
Cr8   O8    S    
C48   O32   A    
Cr9   O9    S    
Cr10  O34   S    
Cr6   O26   S    
C128  C132  A    
C72   C88   A    
C19   C131  S    
C35   O87   S    
C63   C67   A    
C10   O74   S    
C116  O12   A    
C17   C129  S    
C81   F5    S    
C82   O66   S    
Cr4   O4    S    
C106  H14   S    
C80   F4    S    
C21   C45   S    
C122  C126  A    
C2    O22   A    
C74   O58   S    
C3    O27   A    
C17   O81   S    
C99   C100  A    
C12   C124  A    
C101  H9    S    
C76   O60   S    
C77   O61   S    
C33   C34   A    
C27   C92   S    
C104  H12   S    
Cr8   O32   S    
C89   O1    A    
Cr5   O25   S    
O78   H46   S    
C68   C88   A    
C119  O43   A    
C93   C118  S    
C79   O63   S    
O68   H36   S    
C70   C86   A    
C59   C75   A    
Cr7   O19   S    
C95   C104  A    
C113  O9    A    
C114  O6    A    
Cr5   O49   S    
C20   O84   S    
C81   O65   S    
C117  O41   A    
C107  H15   S    
C65   C85   A    
C108  H16   S    
Cr11  O35   S    
C67   C87   A    
C52   F15   S    
C86   C114  S    
C73   O57   S    
Cr8   O52   S    
O60   H28   S    
O63   H31   S    
C33   O85   S    
C52   C56   A    
C26   C41   A    
O77   H45   S    
