data_mof_unit_pretest_449.cif
_audit_creation_date              2012-12-10T16:57:55-0500
_audit_creation_method            fapswitch 2.2
_symmetry_space_group_name_H-M    P1
_symmetry_Int_Tables_number       1
_space_group_crystal_system       triclinic
_cell_length_a                    12.974846
_cell_length_b                    13.234762
_cell_length_c                    15.158964
_cell_angle_alpha                 88.421641
_cell_angle_beta                  100.794247
_cell_angle_gamma                 90.862785
_cell_volume                      2555.92328582

loop_
_atom_site_label
_atom_site_type_symbol
_atom_type_description
_atom_site_fract_x
_atom_site_fract_y
_atom_site_fract_z
_atom_type_partial_charge
C1    C     C_R   0.464613 0.773633 0.468403 0.515088
C2    C     C_2   0.479472 0.053843 0.531657 -0.156860
C3    C     C_2   0.449973 0.884716 0.464299 0.005191
C4    C     C_R   0.536861 0.228750 0.531730 0.499238
C5    C     C_2   0.505709 0.946160 0.528846 -0.011357
C6    C     C_2   0.108212 0.464778 0.471117 -0.000563
C7    C     C_2   0.057894 0.553769 0.477336 0.028692
C8    C     C_2   0.893510 0.550607 0.538871 -0.035478
C9    C     C_2   0.941376 0.556173 0.465712 0.012557
C10   C     C_R   0.778194 0.536620 0.526777 0.564194
C11   C     C_R   0.222843 0.465331 0.474258 0.559308
C12   C     C_R   0.458392 0.386986 0.121286 -0.114951
C13   C     C_R   0.514038 0.520397 0.741597 0.511098
C14   C     C_R   0.485625 0.481082 0.259190 0.493524
C15   C     C_R   0.514448 0.537341 0.838011 0.003811
C16   C     C_R   0.483758 0.478729 0.163071 0.033322
C17   C     C_R   0.454075 0.377589 0.029115 0.001242
C18   C     C_2   0.883526 0.570194 0.371410 0.593923
C19   C     C_2   0.114177 0.652372 0.496506 0.578262
C20   C     C_3   0.960241 0.551169 0.633522 -0.286058
C21   C     C_3   0.899428 0.537175 0.710977 -0.296233
C22   C     C_3   0.974130 0.528906 0.801465 -0.447262
C23   C     C_R   0.503873 0.566765 0.113989 -0.011701
C24   C     C_3   0.046026 0.365480 0.459664 -0.281224
C25   C     C_3   0.111148 0.271599 0.450140 -0.299129
C26   C     C_3   0.041185 0.177945 0.431409 -0.449533
C27   C     C_3   0.589648 0.717403 0.831884 -0.246639
C28   C     C_3   0.636480 0.807283 0.889078 -0.299571
C29   C     C_3   0.726319 0.859426 0.853070 -0.480858
C30   C     C_3   0.422190 0.277373 0.983102 -0.254092
C31   C     C_3   0.380914 0.193464 0.039972 -0.310686
C32   C     C_3   0.341998 0.102520 0.982589 -0.447486
C33   C     C_2   0.446706 0.738593 0.973774 0.554997
C34   C     C_R   0.495976 0.560269 0.019114 0.014202
C35   C     C_3   0.544558 0.662157 0.165219 -0.231872
C36   C     C_3   0.658410 0.687401 0.157703 -0.274689
C37   C     C_3   0.696210 0.784729 0.205887 -0.415812
C38   C     C_3   0.599664 0.911800 0.600438 -0.214628
C39   C     C_3   0.696904 0.888438 0.559263 -0.266133
C40   C     C_3   0.782455 0.836656 0.627629 -0.428950
C41   C     C_3   0.374895 0.926922 0.382736 -0.257431
C42   C     C_3   0.427852 0.927084 0.300293 -0.294642
C43   C     C_3   0.355426 0.968005 0.216493 -0.448838
C44   C     C_R   0.478633 0.463925 0.978792 0.011464
C45   C     C_R   0.484337 0.455855 0.887931 -0.145347
C46   C     C_R   0.535613 0.633127 0.878665 -0.027815
C47   C     C_R   0.506784 0.646479 0.963171 0.061010
C48   C     C_2   0.556592 0.122149 0.539480 -0.101510
H1    H     H_    0.470305 0.384071 0.855327 0.126553
H2    H     H_    0.847989 0.603137 0.712648 0.180496
H3    H     H_    0.850416 0.467267 0.701694 0.158792
H4    H     H_    0.018288 0.489230 0.639445 0.145751
H5    H     H_    0.004113 0.624111 0.642237 0.170269
H6    H     H_    0.997712 0.163084 0.487056 0.158132
H7    H     H_    0.984247 0.188422 0.367388 0.161412
H8    H     H_    0.090347 0.111329 0.425715 0.149920
H9    H     H_    0.154334 0.283818 0.393875 0.159186
H10   H     H_    0.168519 0.257160 0.513270 0.187520
H11   H     H_    0.007013 0.353053 0.518461 0.135188
H12   H     H_    0.636331 0.099689 0.538544 0.104132
H13   H     H_    0.983919 0.372702 0.398535 0.184149
H14   H     H_    0.790227 0.805351 0.850270 0.152301
H15   H     H_    0.697042 0.892143 0.785384 0.145942
H16   H     H_    0.758852 0.921738 0.897906 0.154808
H17   H     H_    0.574920 0.864765 0.887964 0.211805
H18   H     H_    0.668212 0.781660 0.958791 0.193583
H19   H     H_    0.657370 0.682100 0.809799 0.170832
H20   H     H_    0.534420 0.746392 0.771813 0.160998
H21   H     H_    0.279727 0.125540 0.925110 0.159612
H22   H     H_    0.407887 0.068656 0.956620 0.157822
H23   H     H_    0.442239 0.322825 0.162495 0.103312
H24   H     H_    0.308253 0.044574 0.023468 0.145531
H25   H     H_    0.444509 0.168095 0.095553 0.159914
H26   H     H_    0.314446 0.222262 0.068582 0.163992
H27   H     H_    0.358265 0.293479 0.924683 0.150752
H28   H     H_    0.490718 0.247757 0.957876 0.141399
H29   H     H_    0.445408 0.881057 0.017568 0.326614
H30   H     H_    0.648257 0.849591 0.174435 0.171007
H31   H     H_    0.690410 0.777978 0.278006 0.175555
H32   H     H_    0.779416 0.799632 0.200981 0.159676
H33   H     H_    0.709300 0.624049 0.187791 0.192535
H34   H     H_    0.398334 0.077265 0.524450 0.126520
H35   H     H_    0.667290 0.695873 0.086948 0.163875
H36   H     H_    0.490967 0.725868 0.144759 0.186774
H37   H     H_    0.544900 0.654730 0.238068 0.158568
H38   H     H_    0.815967 0.889954 0.681015 0.134358
H39   H     H_    0.750329 0.768975 0.658446 0.174747
H40   H     H_    0.846485 0.812367 0.593772 0.168188
H41   H     H_    0.676454 0.839834 0.499971 0.192885
H42   H     H_    0.730146 0.959363 0.535033 0.137169
H43   H     H_    0.623136 0.972128 0.649991 0.119030
H44   H     H_    0.577136 0.848579 0.642632 0.167954
H45   H     H_    0.888239 0.562803 0.239277 0.326205
H46   H     H_    0.282841 0.921109 0.201530 0.170630
H47   H     H_    0.334408 0.047594 0.225677 0.147416
H48   H     H_    0.396654 0.965414 0.158772 0.143835
H49   H     H_    0.500104 0.974857 0.313096 0.160245
H50   H     H_    0.450798 0.849042 0.287358 0.172733
H51   H     H_    0.302373 0.879535 0.370451 0.174833
H52   H     H_    0.349169 0.004706 0.391935 0.132307
H53   H     H_    0.243989 0.727449 0.556644 0.328371
H54   H     H_    0.025433 0.462089 0.803638 0.160948
H55   H     H_    0.023649 0.598225 0.813098 0.174033
H56   H     H_    0.928129 0.520125 0.856093 0.144147
O1    O     O_3   0.500000 0.500000 0.500000 -0.432773
O2    O     O_R   0.563230 0.581310 0.697440 -0.576372
O3    O     O_R   0.421030 0.536630 0.288090 -0.548242
O4    O     O_R   0.459330 0.447650 0.700640 -0.529494
O5    O     O_R   0.556410 0.434400 0.313840 -0.529217
O6    O     O_2   0.794610 0.603904 0.355598 -0.541288
O7    O     O_R   0.933953 0.549118 0.300220 -0.703333
O8    O     O_2   0.069583 0.731198 0.469574 -0.522057
O9    O     O_R   0.215370 0.655927 0.548376 -0.698233
O10   O     O_2   0.351777 0.738256 0.947008 -0.511078
O11   O     O_R   0.496291 0.824481 0.014472 -0.769098
O12   O     O_R   0.733070 0.467190 0.476550 -0.515334
O13   O     O_R   0.261010 0.525210 0.419080 -0.501394
O14   O     O_R   0.532760 0.736590 0.530220 -0.558670
O15   O     O_R   0.473150 0.271000 0.574150 -0.542546
O16   O     O_R   0.407210 0.713280 0.414580 -0.526384
O17   O     O_R   0.586880 0.279120 0.481060 -0.553215
O18   O     O_R   0.723250 0.592730 0.566440 -0.557735
O19   O     O_R   0.282660 0.414860 0.537920 -0.541932
Zn1   Zn    Zn3+2 0.592480 0.421540 0.443840 0.948241
Zn2   Zn    Zn3+2 0.578450 0.600910 0.572270 0.909052
Zn3   Zn    Zn3+2 0.430000 0.409940 0.576840 0.938521
Zn4   Zn    Zn3+2 0.399070 0.567610 0.407050 0.973549

loop_
_geom_bond_atom_site_label_1
_geom_bond_atom_site_label_2
_ccdc_geom_bond_type
C14   O5    A    
C29   H15   S    
C24   H13   S    
H53   O9    S    
C41   C42   S    
C35   C36   S    
C21   H3    S    
C26   H7    S    
O16   Zn4   S    
C32   H24   S    
C19   O8    D    
C37   H31   S    
O2    Zn2   S    
C33   O10   D    
C8    C20   S    
O1    Zn3   S    
C40   H39   S    
C21   C22   S    
C36   C37   S    
C42   H50   S    
C30   C31   S    
C31   H25   S    
C19   O9    S    
C36   H35   S    
C38   H44   S    
C43   H46   S    
C22   H56   S    
C40   H38   S    
O17   Zn1   S    
C27   H20   S    
C46   C47   A    
C3    C41   S    
C12   C16   A    
C8    C9    D    
C12   C17   A    
C43   H47   S    
C41   H51   S    
C4    O15   A    
O14   Zn2   S    
C39   H42   S    
C29   H16   S    
C5    C38   S    
C17   C30   S    
C25   H9    S    
C13   O4    A    
C26   H6    S    
C21   H2    S    
C48   H12   S    
C37   H32   S    
C33   O11   S    
O1    Zn4   S    
C34   C44   A    
C24   C25   S    
C42   H49   S    
C39   C40   S    
C20   H5    S    
O19   Zn3   S    
C32   H22   S    
C10   O18   A    
C25   C26   S    
C38   H43   S    
C22   H55   S    
O1    Zn1   S    
C1    C3    S    
C1    O16   A    
C28   H18   S    
C30   H28   S    
C31   C32   S    
C45   H1    S    
C36   H33   S    
C23   C34   A    
C6    C24   S    
C43   H48   S    
C41   H52   S    
C18   O7    S    
O13   Zn4   S    
C6    C7    D    
H45   O7    S    
C27   C46   S    
C14   O3    A    
C12   H23   S    
C16   C23   A    
C23   C35   S    
C13   C15   S    
C33   C47   S    
C14   C16   S    
C2    H34   S    
C2    C5    S    
C42   C43   S    
C15   C45   A    
C11   O13   A    
C6    C11   S    
C10   O12   A    
C44   C45   A    
C4    C48   S    
C7    C9    S    
C29   H14   S    
C28   C29   S    
O12   Zn1   S    
C11   O19   A    
C18   O6    D    
C13   O2    A    
C3    C5    D    
C26   H8    S    
C35   H36   S    
O5    Zn1   S    
C32   H21   S    
C37   H30   S    
C7    C19   S    
C22   H54   S    
O1    Zn2   S    
C2    C48   D    
C40   H40   S    
O18   Zn2   S    
C28   H17   S    
C17   C44   A    
O3    Zn4   S    
C20   H4    S    
C30   H27   S    
C35   H37   S    
C38   C39   S    
C24   H11   S    
C4    O17   A    
C1    O14   A    
C31   H26   S    
C27   H19   S    
O15   Zn3   S    
C9    C18   S    
C20   C21   S    
C8    C10   S    
C25   H10   S    
C27   C28   S    
C34   C47   A    
C15   C46   A    
O4    Zn3   S    
H29   O11   S    
C39   H41   S    
