data_mof_unit_pretest_666.cif
_audit_creation_date              2013-03-05T15:50:30-0500
_audit_creation_method            fapswitch 2.2
_symmetry_space_group_name_H-M    P1
_symmetry_Int_Tables_number       1
_space_group_crystal_system       triclinic
_cell_length_a                    18.626541
_cell_length_b                    7.210474
_cell_length_c                    18.38164
_cell_angle_alpha                 90.00078
_cell_angle_beta                  108.532464
_cell_angle_gamma                 90.000175
_cell_volume                      2340.74689308

loop_
_atom_site_label
_atom_site_type_symbol
_atom_site_description
_atom_site_fract_x
_atom_site_fract_y
_atom_site_fract_z
_atom_type_partial_charge
O1    O     O_R   0.562310 0.505770 0.439670 -0.581093
O2    O     O_R   0.437690 0.005770 0.560330 -0.581061
O3    O     O_R   0.411650 0.169150 0.405330 -0.532210
O4    O     O_R   0.588350 0.669150 0.594670 -0.532234
C1    C     C_R   0.385233 0.346398 0.381972 1.124310
C2    C     C_R   0.614768 0.846397 0.618027 1.124270
O5    O     O_R   0.560140 0.175610 0.430010 -0.557490
O6    O     O_R   0.439860 0.675610 0.569990 -0.557525
O7    O     O_R   0.587240 0.012100 0.585200 -0.564918
O8    O     O_R   0.412760 0.512100 0.414800 -0.564906
C3    C     C_R   0.579445 0.344665 0.413327 1.021609
C4    C     C_R   0.420563 0.844663 0.586679 1.021747
O9    O     O_3   0.508720 0.341420 0.550890 -0.247182
O10   O     O_3   0.491280 0.841420 0.449110 -0.247152
V1    V     V_3+5 0.498380 0.063930 0.490560 1.427455
V2    V     V_3+5 0.501620 0.563930 0.509440 1.427423
C5    C     C_R   0.187894 0.778620 0.880563 -0.034445
C6    C     C_R   0.812084 0.278634 0.119417 -0.034419
C7    C     C_R   0.133802 0.921264 0.868389 -0.335739
C8    C     C_R   0.866180 0.421279 0.131596 -0.335729
C9    C     C_R   0.133229 0.063418 0.814777 0.384569
C10   C     C_R   0.866738 0.563468 0.185193 0.384579
C11   C     C_R   0.185620 0.059103 0.773017 -0.252631
C12   C     C_R   0.814316 0.559210 0.226920 -0.252611
C13   C     C_R   0.237593 0.909902 0.784259 -0.000483
C14   C     C_R   0.762356 0.409980 0.215692 -0.000478
C15   C     C_R   0.239866 0.772775 0.839437 0.156550
C16   C     C_R   0.760102 0.272811 0.160532 0.156672
C17   C     C_R   0.188076 0.200950 0.720712 0.685930
C18   C     C_R   0.811803 0.701168 0.279162 0.685895
C19   C     C_R   0.235311 0.185604 0.674771 0.194746
C20   C     C_R   0.764531 0.685901 0.325075 0.194808
C21   C     C_R   0.278423 0.022077 0.678587 -0.164010
C22   C     C_R   0.721489 0.522265 0.321326 -0.164118
C23   C     C_R   0.286040 0.894981 0.738768 0.016234
C24   C     C_R   0.713904 0.395077 0.261179 0.016336
C25   C     C_R   0.340025 0.749465 0.751126 0.026257
C26   C     C_R   0.659937 0.249515 0.248838 0.026401
C27   C     C_R   0.344755 0.618377 0.810144 0.300989
C28   C     C_R   0.655200 0.118428 0.189813 0.300838
C29   C     C_R   0.294019 0.630792 0.852696 -0.206074
C30   C     C_R   0.705944 0.130830 0.147268 -0.205970
C31   C     C_R   0.309329 0.972931 0.620423 0.381242
C32   C     C_R   0.690604 0.473134 0.379508 0.381550
C33   C     C_R   0.373324 0.856024 0.639044 -0.288071
C34   C     C_R   0.626661 0.356054 0.360939 -0.288143
C35   C     C_R   0.388377 0.743978 0.705000 -0.015139
C36   C     C_R   0.611605 0.243988 0.294987 -0.015071
H1    H     H_    0.190142 0.672484 0.923026 0.182652
H2    H     H_    0.809845 0.172478 0.076962 0.182632
H3    H     H_    0.435829 0.649536 0.717855 0.212555
H4    H     H_    0.564169 0.149498 0.282153 0.212591
H5    H     H_    0.296208 0.526512 0.895837 0.194631
H6    H     H_    0.703754 0.026548 0.104125 0.194596
C37   C     C_3   0.762565 0.727438 0.821371 0.834043
C38   C     C_3   0.237433 0.227436 0.178628 0.834044
C39   C     C_3   0.693817 0.702351 0.746493 0.533684
C40   C     C_3   0.306179 0.202351 0.253506 0.533676
H7    H     H_    0.701455 0.573652 0.718329 0.133689
H8    H     H_    0.298540 0.073659 0.281673 0.133685
H9    H     H_    0.881516 0.814252 0.751175 0.284535
H10   H     H_    0.118482 0.314279 0.248821 0.284537
C41   C     C_3   0.832982 0.909779 0.743194 -0.690718
C42   C     C_3   0.167018 0.409804 0.256802 -0.690715
C43   C     C_3   0.755184 0.074913 0.808738 0.561011
C44   C     C_3   0.244820 0.574915 0.191260 0.561029
C45   C     C_3   0.809555 0.908914 0.816688 -0.614062
C46   C     C_3   0.190446 0.408921 0.183310 -0.614066
H11   H     H_    0.784712 0.201188 0.799561 0.117485
H12   H     H_    0.215296 0.701196 0.200437 0.117465
C47   C     C_3   0.687206 0.867708 0.689742 -0.801335
C48   C     C_3   0.312794 0.367715 0.310255 -0.801339
C49   C     C_3   0.764956 0.865744 0.668145 0.428807
C50   C     C_3   0.235042 0.365771 0.331849 0.428815
C51   C     C_3   0.681420 0.046549 0.739454 0.796360
C52   C     C_3   0.318585 0.546550 0.260543 0.796340
H13   H     H_    0.857769 0.048274 0.739703 0.277869
H14   H     H_    0.142232 0.548302 0.260291 0.277855
O11   O     O_R   0.087220 0.271820 0.085230 -0.579189
O12   O     O_R   0.912780 0.771820 0.914770 -0.579191
O13   O     O_R   0.939860 0.595540 0.069990 -0.567388
O14   O     O_R   0.060140 0.095540 0.930010 -0.567361
C53   C     C_R   0.918504 0.427063 0.084547 1.013402
C54   C     C_R   0.081493 0.927062 0.915450 1.013443
O15   O     O_R   0.088340 0.601930 0.094680 -0.560504
O16   O     O_R   0.911660 0.101930 0.905320 -0.560487
O17   O     O_R   0.062310 0.765410 0.939660 -0.580966
O18   O     O_R   0.937690 0.265410 0.060340 -0.580948
C55   C     C_R   0.118369 0.431572 0.114008 1.108300
C56   C     C_R   0.881632 0.931569 0.885990 1.108300
O19   O     O_3   0.991270 0.429630 0.949130 -0.241415
O20   O     O_3   0.008730 0.929630 0.050870 -0.241413
V3    V     V_3+5 0.001620 0.707150 0.009440 1.381995
V4    V     V_3+5 0.998380 0.207150 0.990560 1.382013
F1    F     F_    0.734416 0.748943 0.882483 -0.544144
F2    F     F_    0.265581 0.248928 0.117516 -0.544129
F3    F     F_    0.627191 0.677068 0.763899 -0.538594
F4    F     F_    0.372805 0.177055 0.236099 -0.538579
N1    N     N_R   0.777994 0.682248 0.639541 0.266512
O21   O     O_R   0.721298 0.597859 0.591392 -0.312456
O22   O     O_R   0.845586 0.635701 0.639591 -0.201817
N2    N     N_R   0.222001 0.182290 0.360456 0.266471
O23   O     O_R   0.278695 0.097950 0.408622 -0.312496
O24   O     O_R   0.154409 0.135766 0.360415 -0.201820
F5    F     F_    0.738220 0.103506 0.876149 -0.548480
F6    F     F_    0.261784 0.603498 0.123847 -0.548466
F7    F     F_    0.621965 0.019195 0.768850 -0.532393
F8    F     F_    0.378038 0.519181 0.231145 -0.532386
N3    N     N_R   0.665160 0.218056 0.694790 0.195521
O25   O     O_R   0.711877 0.281314 0.661380 -0.377061
O26   O     O_R   0.606564 0.317222 0.694009 -0.262957
N4    N     N_R   0.334851 0.718062 0.305207 0.195528
O27   O     O_R   0.288139 0.781334 0.338620 -0.377010
O28   O     O_R   0.393446 0.817222 0.305981 -0.262924
N5    N     N_R   0.076593 0.205678 0.799676 0.282213
O29   O     O_R   0.092641 0.366108 0.833395 -0.320929
O30   O     O_R   0.007048 0.167787 0.759366 -0.310976
N6    N     N_R   0.923406 0.705663 0.200333 0.282173
O31   O     O_R   0.907422 0.866090 0.166596 -0.320794
O32   O     O_R   0.992919 0.667722 0.240736 -0.310886
N7    N     N_R   0.763487 0.997616 0.606294 0.294874
O33   O     O_R   0.711467 0.979761 0.539948 -0.295126
O34   O     O_R   0.824384 0.088912 0.608094 -0.197875
N8    N     N_R   0.236519 0.497642 0.393702 0.294882
O35   O     O_R   0.288527 0.479719 0.460052 -0.295150
O36   O     O_R   0.175629 0.588967 0.391900 -0.197843
F9    F     F_    0.146238 0.357549 0.715058 -0.596484
F10   F     F_    0.853610 0.857801 0.284759 -0.596480
N9    N     N_R   0.243721 0.341675 0.628844 0.277815
O37   O     O_R   0.307416 0.369552 0.615487 -0.333754
O38   O     O_R   0.188670 0.459156 0.601441 -0.208236
N10   N     N_R   0.755982 0.842146 0.370863 0.277860
O39   O     O_R   0.692354 0.869496 0.384417 -0.333686
O40   O     O_R   0.810806 0.960388 0.397902 -0.208944
N11   N     N_R   0.261025 0.977787 0.541775 0.269908
O41   O     O_R   0.263663 0.838387 0.497897 -0.236151
O42   O     O_R   0.200428 0.080292 0.521014 -0.241395
N12   N     N_R   0.738908 0.478214 0.458150 0.269810
O43   O     O_R   0.736554 0.338534 0.501998 -0.235930
O44   O     O_R   0.799270 0.581518 0.478942 -0.241428
N13   N     N_R   0.398747 0.469051 0.826829 0.248330
O45   O     O_R   0.406274 0.364824 0.771962 -0.345955
O46   O     O_R   0.430652 0.416906 0.897548 -0.270474
N14   N     N_R   0.601177 0.969159 0.173088 0.248330
O47   O     O_R   0.593611 0.864898 0.227926 -0.345930
O48   O     O_R   0.569272 0.917103 0.102357 -0.270445
N15   N     N_R   0.808857 0.557889 0.835473 0.194284
O49   O     O_R   0.844619 0.505649 0.788619 -0.396949
O50   O     O_R   0.816811 0.461323 0.897394 -0.323374
N16   N     N_R   0.191138 0.057891 0.164528 0.194281
O51   O     O_R   0.155378 0.005657 0.211385 -0.396957
O52   O     O_R   0.183180 0.961317 0.102607 -0.323375

loop_
_geom_bond_atom_site_label_1
_geom_bond_atom_site_label_2
_geom_bond_distance
_ccdc_geom_bond_type
C44   C46   1.544543 S    
C51   F7    1.392014 S    
O14   V4    2.005916 S    
C50   N8    1.475676 S    
N15   O49   1.300797 A    
O1    C3    1.335657 A    
C54   O17   1.336182 A    
C48   C52   1.603777 S    
O2    C4    1.335676 A    
C2    O7    1.363048 A    
N4    O28   1.301057 A    
N11   O41   1.299393 A    
C27   C29   1.408125 A    
C14   C16   1.407465 A    
O5    C3    1.333909 A    
C11   C17   1.414413 A    
C10   C12   1.420836 A    
C7    C9    1.419585 A    
C12   C14   1.417785 A    
C1    C48   1.565665 S    
N3    O26   1.301057 A    
C39   H7    1.093716 S    
C12   C18   1.414434 A    
C40   H8    1.093719 S    
N5    O29   1.301479 A    
C49   N1    1.472118 S    
C38   F2    1.391123 S    
O1    V2    2.005030 S    
H9    C41   1.108568 S    
N6    O31   1.301528 A    
O20   V3    1.762601 S    
H10   C42   1.108571 S    
O16   V4    2.007709 S    
C5    C7    1.407048 A    
O15   V3    2.007728 S    
C18   F10   1.357053 S    
C27   N13   1.438299 S    
N10   O39   1.301277 A    
C43   C45   1.544533 S    
C40   F4    1.388580 S    
C19   C21   1.415716 A    
C25   C35   1.420218 A    
C26   C36   1.420229 A    
C9    N5    1.433873 S    
C50   N2    1.472076 S    
C28   C30   1.408133 A    
C53   O18   1.336191 A    
C44   C52   1.561807 S    
C52   F8    1.392012 S    
C47   C51   1.603770 S    
O12   C56   1.322186 A    
C52   N4    1.461867 S    
C44   F6    1.388059 S    
C19   N9    1.444888 S    
C43   F5    1.388058 S    
N4    O27   1.296975 A    
O13   C53   1.331631 A    
C32   C34   1.410421 A    
C34   C36   1.408959 A    
C33   C35   1.408933 A    
C2    C47   1.565643 S    
C41   C45   1.546021 S    
C51   N3    1.461855 S    
N7    O34   1.302759 A    
C5    C15   1.405555 A    
C6    C16   1.405577 A    
O11   V4    2.037999 S    
C48   C50   1.618830 S    
O16   C56   1.349687 A    
C5    H1    1.084384 S    
C47   C49   1.618824 S    
O15   C55   1.349685 A    
N14   O47   1.300556 A    
C35   H3    1.080756 S    
O5    V1    2.006128 S    
C41   C49   1.580578 S    
N5    O30   1.300594 A    
C38   C46   1.591754 S    
C45   C56   1.537770 S    
C21   C31   1.411136 A    
O4    V2    2.007717 S    
N2    O24   1.302695 A    
C18   C20   1.404298 A    
O13   V3    2.005921 S    
C15   C29   1.403102 A    
C37   N15   1.470778 S    
N1    O21   1.294073 A    
O10   V1    1.762960 S    
C36   H4    1.080764 S    
O6    C4    1.333880 A    
C39   F3    1.388580 S    
C46   C55   1.537761 S    
C22   C32   1.411157 A    
C37   C39   1.564131 S    
C39   C47   1.563124 S    
C31   N11   1.440109 S    
O2    V1    2.005030 S    
C31   C33   1.410415 A    
C29   H5    1.084130 S    
N7    O33   1.300595 A    
N12   O44   1.300722 A    
C13   C23   1.415919 A    
N10   O40   1.301571 A    
N14   O48   1.301256 A    
N1    O22   1.302699 A    
C8    C10   1.419613 A    
O14   C54   1.331626 A    
C9    C11   1.420812 A    
N16   O52   1.301971 A    
C8    C53   1.495115 S    
O4    C2    1.387633 A    
C38   N16   1.470779 S    
C7    C54   1.495078 S    
C42   C46   1.546005 S    
C20   N10   1.445041 S    
O3    V1    2.007735 S    
C6    H2    1.084401 S    
N8    O36   1.302761 A    
N9    O37   1.301332 A    
C41   H13   1.110563 S    
C14   C24   1.415921 A    
N11   O42   1.300798 A    
C10   N6    1.433911 S    
C32   N12   1.440046 S    
N15   O50   1.301971 A    
C17   C19   1.404195 A    
C42   H14   1.110565 S    
C4    C33   1.498617 S    
O3    C1    1.387653 A    
C37   C45   1.591745 S    
C13   C15   1.407437 A    
C49   N7    1.475714 S    
C43   C51   1.561799 S    
C28   N14   1.438346 S    
N13   O46   1.301259 A    
C17   F9    1.357056 S    
C23   C25   1.420716 A    
C25   C27   1.420330 A    
O8    V2    2.018701 S    
N3    O25   1.296973 A    
C30   H6    1.084151 S    
C24   C26   1.420766 A    
C26   C28   1.420390 A    
C40   C48   1.563108 S    
C44   H12   1.104058 S    
C43   H11   1.104058 S    
O17   V3    2.005336 S    
C16   C30   1.403125 A    
C37   F1    1.391124 S    
C21   C23   1.408520 A    
C22   C24   1.408563 A    
C38   C40   1.564128 S    
C6    C8    1.407079 A    
C11   C13   1.417780 A    
O7    V1    2.018711 S    
N2    O23   1.294044 A    
N6    O32   1.300620 A    
O11   C55   1.322184 A    
N12   O43   1.299387 A    
C1    O8    1.363034 A    
O6    V2    2.006113 S    
O9    V2    1.762979 S    
O18   V4    2.005327 S    
C42   C50   1.580559 S    
N16   O51   1.300797 A    
C3    C34   1.498644 S    
N9    O38   1.301702 A    
O12   V3    2.038011 S    
N13   O45   1.300567 A    
C20   C22   1.415817 A    
N8    O35   1.300598 A    
O19   V4    1.762621 S    
