data_mof_unit_pretest_1115.cif
_audit_creation_date              2012-12-10T19:05:54-0500
_audit_creation_method            fapswitch 2.2
_symmetry_space_group_name_H-M    P1
_symmetry_Int_Tables_number       1
_space_group_crystal_system       triclinic
_cell_length_a                    19.284607
_cell_length_b                    10.851573
_cell_length_c                    9.566362
_cell_angle_alpha                 91.042638
_cell_angle_beta                  90.365712
_cell_angle_gamma                 90.888859
_cell_volume                      2001.31971361

loop_
_atom_site_label
_atom_site_type_symbol
_atom_type_description
_atom_site_fract_x
_atom_site_fract_y
_atom_site_fract_z
_atom_type_partial_charge
C1    C     C_R   0.498345 0.262602 0.498872 0.791650
C2    C     C_R   0.291132 0.494369 0.497723 -0.028612
C3    C     C_R   0.928445 0.469926 0.483799 0.409945
C4    C     C_R   0.069074 0.474622 0.487952 0.408498
C5    C     C_R   0.813713 0.392995 0.569478 -0.175642
C6    C     C_R   0.741590 0.401164 0.575099 -0.187884
C7    C     C_R   0.707501 0.489998 0.496897 -0.001750
C8    C     C_R   0.745398 0.567244 0.408972 -0.207749
C9    C     C_R   0.817260 0.559082 0.403046 -0.159570
C10   C     C_R   0.852187 0.473009 0.484604 0.057563
C11   C     C_R   0.498573 0.067275 0.622729 0.028801
C12   C     C_R   0.367375 0.498917 0.499549 0.777906
C13   C     C_R   0.491833 0.129754 0.497906 -0.073168
C14   C     C_R   0.477000 0.061750 0.374546 -0.216580
C15   C     C_R   0.477197 0.932781 0.375960 -0.217125
C16   C     C_R   0.493042 0.870917 0.500332 -0.110332
C17   C     C_R   0.500839 0.940630 0.623285 0.011014
C18   C     C_3   0.554455 0.945159 0.738457 0.285554
C19   C     C_3   0.550429 0.084987 0.738236 -0.486785
C20   C     C_R   0.522484 0.600985 0.076965 0.195668
C21   C     C_R   0.469983 0.406187 0.071977 -0.066731
C22   C     C_R   0.469526 0.406612 0.923222 -0.067134
C23   C     C_R   0.498821 0.737667 0.500625 0.797101
C24   C     C_R   0.525012 0.599509 0.930389 0.175736
C25   C     C_3   0.596102 0.660007 0.936516 0.246283
C26   C     C_3   0.590479 0.663477 0.095405 -0.587150
C27   C     C_R   0.632200 0.497785 0.499830 0.790462
C28   C     C_R   0.254167 0.464083 0.618627 -0.187052
C29   C     C_R   0.181901 0.456353 0.615271 -0.156802
C30   C     C_R   0.145417 0.480203 0.491382 0.058707
C31   C     C_R   0.182483 0.511337 0.370857 -0.157457
C32   C     C_R   0.254667 0.517703 0.373802 -0.186813
Cu1   Cu    Cu3+1 0.500000 0.499980 0.640670 0.977966
Cu2   Cu    Cu3+1 0.500000 0.500020 0.359330 0.941516
H1    H     H_    0.281069 0.445038 0.715406 0.148048
H2    H     H_    0.467821 0.882229 0.278839 0.161017
H3    H     H_    0.532513 0.908221 0.836427 0.074955
H4    H     H_    0.526388 0.123854 0.834369 0.164492
H5    H     H_    0.598567 0.133983 0.705775 0.199309
H6    H     H_    0.446795 0.329083 0.125507 0.128148
H7    H     H_    0.445635 0.330113 0.866064 0.133239
H8    H     H_    0.595904 0.751992 0.890803 0.123405
H9    H     H_    0.628041 0.604655 0.150454 0.234278
H10   H     H_    0.154646 0.432804 0.709973 0.151526
H11   H     H_    0.585479 0.758275 0.139794 0.155200
H12   H     H_    0.155777 0.529926 0.273755 0.151983
H13   H     H_    0.281873 0.541358 0.279046 0.151296
H14   H     H_    0.839304 0.324980 0.632242 0.155157
H15   H     H_    0.712507 0.339076 0.640994 0.145685
H16   H     H_    0.719430 0.635250 0.346686 0.125877
H17   H     H_    0.845492 0.621822 0.336604 0.151479
H18   H     H_    0.467906 0.107608 0.276651 0.153170
N1    N     N_R   0.033555 0.526705 0.381965 -0.240230
N2    N     N_R   0.964616 0.524753 0.380167 -0.240926
N3    N     N_R   0.963908 0.416757 0.589239 -0.238871
N4    N     N_R   0.032930 0.419264 0.591406 -0.239445
N5    N     N_R   0.500440 0.500930 0.147930 -0.165303
N6    N     N_R   0.500440 0.500890 0.852020 -0.167033
O1    O     O_R   0.500000 0.319640 0.618810 -0.583974
O2    O     O_R   0.500010 0.319680 0.381230 -0.590492
O3    O     O_R   0.400140 0.499970 0.618830 -0.587532
O4    O     O_R   0.400150 0.500010 0.381250 -0.583699
O5    O     O_R   0.499990 0.680320 0.618770 -0.577439
O6    O     O_R   0.500000 0.680360 0.381190 -0.587602
O7    O     O_R   0.599850 0.499990 0.618750 -0.518845
O8    O     O_R   0.599860 0.500030 0.381170 -0.585382
O9    O     O_3   0.621975 0.898244 0.710708 -0.586258
C33   C     C_3   0.647579 0.917350 0.574123 0.117373
H19   H     H_    0.630921 0.005419 0.528126 0.144742
H20   H     H_    0.630815 0.839594 0.504328 0.139239
C34   C     C_3   0.726398 0.918179 0.579127 -0.819974
H21   H     H_    0.745124 0.829344 0.619881 0.251161
H22   H     H_    0.747313 0.930905 0.472375 0.203499
H23   H     H_    0.745632 0.994867 0.648166 0.249220
O10   O     O_3   0.650794 0.585055 0.888621 -0.517816
C35   C     C_3   0.714544 0.648790 0.915949 0.084223
H24   H     H_    0.726175 0.651438 0.029956 0.136895
H25   H     H_    0.713908 0.745146 0.877400 0.165060
C36   C     C_3   0.774011 0.583808 0.844448 -0.763121
H26   H     H_    0.772578 0.603276 0.731298 0.251206
H27   H     H_    0.824186 0.619826 0.887167 0.201755
H28   H     H_    0.770670 0.483033 0.862050 0.261270

loop_
_geom_bond_atom_site_label_1
_geom_bond_atom_site_label_2
_ccdc_geom_bond_type
C8    C9    A    
N3    N4    A    
Cu1   N6    S    
C4    N1    A    
C9    H17   S    
C35   C36   S    
C2    C12   S    
Cu2   O8    S    
Cu1   O7    S    
C7    C8    A    
N1    N2    A    
C11   C19   S    
C28   C29   A    
C18   H3    S    
C35   H25   S    
C1    O1    A    
C5    C6    A    
C3    N2    A    
C22   H7    S    
C15   C16   A    
Cu2   O4    S    
C7    C27   S    
C2    C32   A    
C18   C19   S    
C26   H11   S    
C3    N3    A    
C14   H18   S    
C20   C24   A    
C28   H1    S    
C16   C17   A    
C31   H12   S    
Cu2   N5    S    
C9    C10   A    
C23   O5    A    
Cu1   O1    S    
C13   C14   A    
C4    N4    A    
Cu2   O2    S    
C26   H9    S    
C17   C18   S    
C5    H14   S    
O9    C33   S    
C35   H24   S    
C1    O2    A    
C36   H27   S    
C33   H19   S    
C25   C26   S    
C25   O10   S    
O10   C35   S    
C21   N5    A    
C29   C30   A    
C27   O7    A    
C19   H4    S    
C36   H28   S    
C12   O4    A    
C31   C32   A    
Cu1   O5    S    
Cu2   O6    S    
Cu1   Cu2   S    
C24   C25   S    
C19   H5    S    
Cu1   O3    S    
C23   O6    A    
C16   C23   S    
C29   H10   S    
C32   H13   S    
C1    C13   S    
C8    H16   S    
C15   H2    S    
C34   H22   S    
C11   C17   A    
C25   H8    S    
C22   N6    A    
C34   H23   S    
C6    C7    A    
C18   O9    S    
C34   H21   S    
C27   O8    A    
C12   O3    A    
C11   C13   A    
C30   C31   A    
C21   H6    S    
C20   C26   S    
C33   C34   S    
C6    H15   S    
C36   H26   S    
C5    C10   A    
C24   N6    A    
C3    C10   S    
C33   H20   S    
C14   C15   A    
C2    C28   A    
C20   N5    A    
C21   C22   A    
C4    C30   S    
