data_mof_unit_pretest_1410.cif
_audit_creation_date              2013-03-05T16:44:17-0500
_audit_creation_method            fapswitch 2.2
_symmetry_space_group_name_H-M    P1
_symmetry_Int_Tables_number       1
_space_group_crystal_system       triclinic
_cell_length_a                    23.402081
_cell_length_b                    10.759762
_cell_length_c                    9.92591
_cell_angle_alpha                 89.050001
_cell_angle_beta                  92.503368
_cell_angle_gamma                 89.85374
_cell_volume                      2496.61039858

loop_
_atom_site_label
_atom_site_type_symbol
_atom_site_description
_atom_site_fract_x
_atom_site_fract_y
_atom_site_fract_z
_atom_type_partial_charge
O1    O     O_R   0.500010 0.316790 0.614690 -0.625554
O2    O     O_R   0.500000 0.316760 0.385350 -0.567046
C1    C     C_R   0.502797 0.260335 0.501261 0.900010
O3    O     O_R   0.416160 0.499980 0.614700 -0.610216
O4    O     O_R   0.416150 0.499940 0.385360 -0.613319
C2    C     C_R   0.389675 0.496451 0.498606 0.895516
Zn1   Zn    Zn3+2 0.500000 0.500020 0.653130 0.995084
Zn2   Zn    Zn3+2 0.500000 0.499980 0.346870 0.993451
O5    O     O_R   0.500000 0.683240 0.614650 -0.582183
O6    O     O_R   0.499990 0.683210 0.385310 -0.625230
O7    O     O_R   0.583850 0.500060 0.614640 -0.595750
O8    O     O_R   0.583840 0.500020 0.385300 -0.636540
C3    C     C_R   0.498596 0.739918 0.498208 0.872180
C4    C     C_R   0.610641 0.499158 0.502497 0.880262
C5    C     C_R   0.881372 0.593608 0.485330 0.504793
N1    N     N_R   0.852965 0.486820 0.516706 -0.357784
C6    C     C_R   0.881111 0.376894 0.542632 0.536146
C7    C     C_R   0.940610 0.371153 0.535935 -0.095188
C8    C     C_R   0.970494 0.479546 0.501379 -0.019691
C9    C     C_R   0.940684 0.591910 0.475710 0.005024
C10   C     C_R   0.970370 0.258979 0.557535 -0.239825
C11   C     C_R   0.029425 0.253161 0.543762 0.517910
C12   C     C_R   0.060336 0.363866 0.519931 -0.161955
C13   C     C_R   0.030270 0.475816 0.492495 -0.074292
C14   C     C_R   0.059808 0.584352 0.456005 0.016758
C15   C     C_R   0.029634 0.695516 0.429914 -0.160059
C16   C     C_R   0.970568 0.699291 0.439836 -0.155681
C17   C     C_R   0.120318 0.367071 0.523300 0.554687
N2    N     N_R   0.148072 0.472080 0.482443 -0.344114
C18   C     C_R   0.119091 0.579032 0.447149 0.525421
O9    O     O_2   0.852111 0.700874 0.463321 -0.544198
O10   O     O_2   0.851429 0.273267 0.572106 -0.548134
H1    H     H_    0.947738 0.173794 0.579532 0.212684
O11   O     O_2   0.150849 0.267622 0.570038 -0.491119
O12   O     O_2   0.147806 0.680198 0.405133 -0.566860
H2    H     H_    0.051714 0.779961 0.403385 0.186716
H3    H     H_    0.948243 0.786063 0.418831 0.187439
C19   C     C_R   0.237699 0.552077 0.578478 -0.125365
H4    H     H_    0.213822 0.609806 0.644623 0.169646
C20   C     C_R   0.296818 0.558144 0.583096 -0.293022
H5    H     H_    0.318370 0.618915 0.654326 0.169219
C21   C     C_R   0.327911 0.484455 0.497782 -0.112440
C22   C     C_R   0.300165 0.391944 0.422668 0.093661
C23   C     C_R   0.240497 0.393251 0.406869 0.192972
C24   C     C_R   0.209168 0.473611 0.486899 0.227203
C25   C     C_R   0.763206 0.467833 0.632907 -0.084756
H6    H     H_    0.786860 0.449200 0.727320 0.151909
C26   C     C_R   0.703784 0.470673 0.629466 -0.185811
H7    H     H_    0.682069 0.452062 0.721667 0.180707
C27   C     C_R   0.673019 0.496020 0.507462 -0.040505
C28   C     C_R   0.702313 0.516490 0.388763 -0.203539
H8    H     H_    0.679581 0.535803 0.293289 0.165028
C29   C     C_R   0.761549 0.512573 0.392269 -0.094939
H9    H     H_    0.783921 0.528123 0.300270 0.148220
C30   C     C_R   0.792055 0.488996 0.514286 0.298437
C31   C     C_R   0.497759 0.060259 0.620182 0.055951
C32   C     C_R   0.509689 0.128326 0.504207 -0.063082
C33   C     C_R   0.524558 0.065860 0.387471 -0.185277
H10   H     H_    0.537388 0.116090 0.298292 0.187947
C34   C     C_R   0.520117 0.937260 0.383596 -0.207235
H11   H     H_    0.532367 0.889433 0.294078 0.184653
C35   C     C_R   0.498178 0.872581 0.493849 -0.115588
C36   C     C_R   0.485855 0.936651 0.609073 0.060769
C37   C     C_3   0.432740 0.946918 0.689298 0.528460
C38   C     C_3   0.452142 0.078912 0.717819 -0.478362
H12   H     H_    0.420613 0.152046 0.684700 0.233850
H13   H     H_    0.472036 0.091530 0.819904 0.168872
C39   C     C_R   0.451052 0.475927 0.064901 0.143731
N3    N     N_R   0.499610 0.499140 0.142800 -0.107094
C40   C     C_R   0.544988 0.545390 0.077032 -0.139605
H14   H     H_    0.581020 0.582667 0.134897 0.165172
C41   C     C_R   0.544439 0.549572 0.933773 0.209663
N4    N     N_R   0.499610 0.499180 0.857150 -0.111082
C42   C     C_R   0.451229 0.477210 0.923971 0.155287
C43   C     C_3   0.412031 0.371139 0.909361 -0.597057
C44   C     C_3   0.410397 0.367819 0.063632 0.326501
H15   H     H_    0.370529 0.398767 0.858729 0.196505
H16   H     H_    0.433582 0.290635 0.865674 0.218836
H17   H     H_    0.369062 0.396361 0.104952 0.106012
O13   O     O_3   0.380120 0.957875 0.613136 -0.610485
C45   C     C_3   0.362236 0.848169 0.548739 0.124428
H18   H     H_    0.321262 0.820243 0.592094 0.176723
H19   H     H_    0.392507 0.769162 0.562993 0.113873
C46   C     C_3   0.350490 0.878569 0.398881 -0.345178
H20   H     H_    0.315562 0.948589 0.389144 0.266089
H21   H     H_    0.389382 0.919144 0.355638 0.235951
C47   C     C_3   0.332434 0.765252 0.317833 -0.926167
H22   H     H_    0.368117 0.697887 0.317538 0.278775
H23   H     H_    0.321833 0.793300 0.211661 0.273980
H24   H     H_    0.294043 0.721551 0.359848 0.293200
I1    I     I_    0.431754 0.828856 0.865982 -0.460389
O14   O     O_3   0.055485 0.137390 0.550678 -0.598322
C48   C     C_3   0.067073 0.098355 0.418680 0.164646
H25   H     H_    0.098888 0.021574 0.428848 0.203413
H26   H     H_    0.086888 0.172822 0.357384 0.160880
C49   C     C_3   0.013173 0.050096 0.343271 -0.467827
H27   H     H_    0.993268 0.977102 0.405564 0.236482
H28   H     H_    0.981736 0.126762 0.325728 0.234638
C50   C     C_3   0.027168 0.997754 0.206491 -0.862488
H29   H     H_    0.043939 0.072509 0.140689 0.280117
H30   H     H_    0.987775 0.959277 0.156888 0.274556
H31   H     H_    0.059602 0.922480 0.218428 0.269933
I2    I     I_    0.609488 0.660142 0.852496 -0.331654
O15   O     O_3   0.434528 0.258944 0.124769 -0.592319
C51   C     C_3   0.405385 0.146572 0.088705 0.133742
H32   H     H_    0.407677 0.084489 0.179159 0.190561
H33   H     H_    0.430351 0.097928 0.013829 0.147959
C52   C     C_3   0.341939 0.155976 0.034956 -0.412788
H34   H     H_    0.317549 0.224773 0.091265 0.258786
H35   H     H_    0.340211 0.184130 0.926800 0.232707
C53   C     C_3   0.310833 0.032322 0.046595 -0.820509
H36   H     H_    0.334607 0.957519 0.997815 0.277535
H37   H     H_    0.267587 0.040388 0.996502 0.284851
H38   H     H_    0.305731 0.007974 0.154193 0.272095
I3    I     I_    0.346155 0.227344 0.386932 -0.356266
I4    I     I_    0.199214 0.281098 0.256837 -0.365323

loop_
_geom_bond_atom_site_label_1
_geom_bond_atom_site_label_2
_geom_bond_distance
_ccdc_geom_bond_type
C44   O15   1.415132 S    
C47   H22   1.104493 S    
C48   H25   1.111106 S    
C7    C10   1.400664 A    
N4    C42   1.356281 A    
C8    C9    1.408278 A    
C46   C47   1.522436 S    
C43   C44   1.533258 S    
C45   H18   1.108214 S    
Zn1   N4    2.025374 S    
C4    C27   1.458746 S    
C29   H9    1.083120 S    
C31   C32   1.393086 A    
Zn1   O7    2.015423 S    
C51   H33   1.103157 S    
Zn2   N3    2.025372 S    
N2    C18   1.367075 A    
C18   O12   1.350388 S    
C17   N2    1.369121 A    
C46   H21   1.110474 S    
O4    C2    1.307043 A    
O7    C4    1.301349 A    
C10   H1    1.083614 S    
C39   C42   1.398875 A    
C31   C38   1.488240 S    
C49   C50   1.526745 S    
C52   H34   1.107060 S    
C34   C35   1.404002 A    
C7    C8    1.406695 A    
O5    C3    1.296938 A    
C19   C24   1.400071 A    
C22   I3    2.113111 S    
C3    C35   1.427357 S    
C53   H36   1.107229 S    
C39   N3    1.372095 A    
C38   H13   1.107067 S    
C49   H28   1.110390 S    
C25   C30   1.398315 A    
C12   C13   1.410045 A    
C44   H17   1.111557 S    
C40   H14   1.081145 S    
C26   C27   1.403968 A    
C17   O11   1.349601 S    
C48   H26   1.112459 S    
C10   C11   1.396032 A    
C37   O13   1.420148 S    
O3    Zn1   1.982347 S    
O15   C51   1.432632 S    
C45   H19   1.108462 S    
C6    C7    1.398143 A    
C29   C30   1.397930 A    
C5    C9    1.395551 A    
C51   C52   1.558071 S    
C25   C26   1.389781 A    
C42   C43   1.471142 S    
C28   H8    1.083117 S    
C13   C14   1.408822 A    
O3    C2    1.285559 A    
C41   N4    1.385600 A    
C14   C15   1.402062 A    
N2    C24   1.428664 S    
C34   H11   1.083135 S    
C28   C29   1.385676 A    
C22   C23   1.398319 A    
C35   C36   1.385783 A    
C50   H29   1.110936 S    
Zn2   O8    1.982345 S    
C49   H27   1.107737 S    
C9    C16   1.401092 A    
C27   C28   1.403328 A    
C15   C16   1.390608 A    
C31   C36   1.364809 A    
C53   H37   1.110487 S    
C12   C17   1.403178 A    
C46   H20   1.110232 S    
C43   H15   1.111380 S    
C1    C32   1.428774 S    
C15   H2    1.080863 S    
C26   H7    1.082103 S    
C50   H30   1.110287 S    
O8    C4    1.297140 A    
C48   C49   1.534507 S    
C47   H23   1.108813 S    
C21   C22   1.397823 A    
C45   C46   1.530632 S    
C23   C24   1.409470 A    
C14   C18   1.395036 A    
Zn1   O5    2.001837 S    
C25   H6    1.082924 S    
C20   H5    1.080604 S    
O1    Zn1   2.014296 S    
O2    Zn2   2.001835 S    
O13   C45   1.407579 S    
O6    C3    1.286434 A    
O4    Zn2   2.015424 S    
C5    O9    1.350271 S    
C41   I2    2.113837 S    
C39   C44   1.504493 S    
C51   H32   1.109483 S    
C52   C53   1.523370 S    
C37   C38   1.519448 S    
O2    C1    1.290981 A    
C33   H10   1.083502 S    
N1    C30   1.424700 S    
C19   C20   1.384000 A    
C32   C33   1.405451 A    
C19   H4    1.083011 S    
C16   H3    1.081510 S    
C20   C21   1.395836 A    
O14   C48   1.419607 S    
C52   H35   1.109626 S    
C8    C13   1.406017 A    
C53   H38   1.107040 S    
N3    C40   1.361617 A    
C43   H16   1.105457 S    
C36   C37   1.509970 S    
C50   H31   1.109946 S    
C23   I4    2.132416 S    
Zn2   O6    2.014297 S    
C38   H12   1.113086 S    
C2    C21   1.451175 S    
C47   H24   1.109305 S    
C6    O10   1.349890 S    
C11   O14   1.384902 S    
C11   C12   1.417071 A    
C40   C41   1.421437 A    
C37   I1    2.149343 S    
O1    C1    1.292192 A    
C33   C34   1.388912 A    
C5    N1    1.367221 A    
N1    C6    1.367534 A    
