data_mof_unit_pretest_1644.cif
_audit_creation_date              2012-12-10T17:54:08-0500
_audit_creation_method            fapswitch 2.2
_symmetry_space_group_name_H-M    P1
_symmetry_Int_Tables_number       1
_space_group_crystal_system       triclinic
_cell_length_a                    18.944187
_cell_length_b                    18.775196
_cell_length_c                    18.755859
_cell_angle_alpha                 109.207548
_cell_angle_beta                  109.088923
_cell_angle_gamma                 109.736722
_cell_volume                      5159.24649931

loop_
_atom_site_label
_atom_site_type_symbol
_atom_type_description
_atom_site_fract_x
_atom_site_fract_y
_atom_site_fract_z
_atom_type_partial_charge
C1    C     C_R   0.881616 0.381078 0.000369 0.793403
C2    C     C_R   0.185773 0.502347 0.183925 -0.089259
C3    C     C_R   0.257249 0.502165 0.175863 -0.209760
C4    C     C_R   0.884459 0.502086 0.881181 0.823407
C5    C     C_R   0.322265 0.503107 0.240787 -0.210831
C6    C     C_R   0.314645 0.501165 0.312596 -0.088779
C7    C     C_R   0.242911 0.500508 0.317175 0.126881
C8    C     C_3   0.198790 0.498585 0.369785 -0.476672
C9    C     C_3   0.129176 0.500482 0.300274 -0.475045
C10   C     C_R   0.262439 0.748441 0.076117 0.098988
C11   C     C_R   0.186011 0.683958 0.999182 -0.074383
C12   C     C_R   0.813792 0.313107 0.997965 -0.084681
C13   C     C_R   0.179415 0.677355 0.920150 -0.204790
C14   C     C_R   0.243810 0.741924 0.920122 -0.213783
C15   C     C_R   0.316430 0.811639 0.999040 -0.078711
C16   C     C_R   0.118449 0.618672 0.999545 0.795506
C17   C     C_R   0.327202 0.810716 0.075940 0.133283
C18   C     C_3   0.348125 0.880884 0.159470 -0.476027
C19   C     C_3   0.276696 0.812352 0.159440 -0.461599
C20   C     C_R   0.497380 0.381077 0.378478 0.809434
C21   C     C_R   0.614052 0.502957 0.618375 0.839672
C22   C     C_R   0.495940 0.618569 0.614780 0.796926
C23   C     C_R   0.816886 0.237468 0.991186 -0.205893
C24   C     C_R   0.379281 0.500374 0.378915 0.801517
C25   C     C_R   0.500612 0.881527 0.881846 0.790494
C26   C     C_R   0.618347 0.118734 0.999526 0.789330
C27   C     C_R   0.498849 0.118024 0.117994 0.843275
C28   C     C_R   0.118159 0.500463 0.118029 0.797713
C29   C     C_R   0.381599 0.881127 0.000384 0.804212
C30   C     C_R   0.565492 0.332471 0.295161 0.034502
C31   C     C_R   0.495122 0.314594 0.309224 -0.116997
C32   C     C_R   0.420755 0.231975 0.252750 -0.233559
C33   C     C_R   0.420522 0.166174 0.188657 0.132898
C34   C     C_R   0.752531 0.173065 0.991415 -0.217814
C35   C     C_R   0.496636 0.183464 0.183177 -0.064207
C36   C     C_R   0.566419 0.268088 0.233809 -0.036940
C37   C     C_3   0.661453 0.304377 0.287220 -0.025777
C38   C     C_3   0.660622 0.376406 0.355799 -0.062721
C39   C     C_R   0.570719 0.761783 0.746141 0.072266
C40   C     C_2   0.757240 0.575206 0.745276 -0.187676
C41   C     C_R   0.495554 0.684404 0.681390 -0.077852
C42   C     C_R   0.418845 0.671615 0.684220 -0.207210
C43   C     C_R   0.420070 0.736715 0.750065 -0.199769
C44   C     C_R   0.498420 0.813777 0.815174 -0.082187
C45   C     C_R   0.683356 0.182731 0.995387 -0.077331
C46   C     C_R   0.572400 0.822686 0.811087 0.057739
C47   C     C_3   0.666755 0.883058 0.851511 -0.058847
C48   C     C_3   0.664768 0.812547 0.778004 -0.434698
C49   C     C_2   0.676381 0.508402 0.693186 -0.291737
C50   C     C_2   0.818118 0.575995 0.819548 0.163365
C51   C     C_2   0.823021 0.503382 0.810041 -0.002191
C52   C     C_R   0.740375 0.317366 0.993119 0.105754
C53   C     C_R   0.675483 0.252479 0.990554 0.136995
C54   C     C_3   0.660414 0.316040 0.047236 -0.495390
C55   C     C_3   0.732040 0.387396 0.050322 -0.453317
C56   C     C_R   0.182434 0.502983 0.256805 0.124251
Cu1   Cu    Cu3+1 0.999590 0.561790 0.061400 0.951140
Cu2   Cu    Cu3+1 0.000410 0.438210 0.938600 0.942794
Cu3   Cu    Cu3+1 0.558560 0.561730 0.496790 0.935590
Cu4   Cu    Cu3+1 0.434970 0.438120 0.496790 0.942120
Cu5   Cu    Cu3+1 0.438600 0.999980 0.938570 0.945099
Cu6   Cu    Cu3+1 0.561400 0.999920 0.061330 0.955512
H1    H     H_    0.778242 0.631161 0.735795 0.156287
H2    H     H_    0.236142 0.738429 0.859029 0.151790
H3    H     H_    0.413409 0.906081 0.212637 0.203768
H4    H     H_    0.653160 0.457410 0.708855 0.172212
H5    H     H_    0.334095 0.931649 0.151796 0.217104
H6    H     H_    0.300821 0.798116 0.212638 0.198352
H7    H     H_    0.221105 0.823275 0.151533 0.213722
H8    H     H_    0.363700 0.218148 0.259521 0.159157
H9    H     H_    0.698158 0.328435 0.256648 0.127827
H10   H     H_    0.697174 0.441904 0.364461 0.143577
H11   H     H_    0.358229 0.612496 0.635154 0.153576
H12   H     H_    0.790034 0.431369 0.115903 0.208079
H13   H     H_    0.360487 0.726644 0.750553 0.144402
H14   H     H_    0.682122 0.944799 0.849510 0.151965
H15   H     H_    0.677528 0.832954 0.732152 0.182505
H16   H     H_    0.699777 0.780000 0.799516 0.195325
H17   H     H_    0.870932 0.230246 0.990019 0.156521
H18   H     H_    0.757584 0.116951 0.990261 0.151234
H19   H     H_    0.595915 0.308119 0.012105 0.203871
H20   H     H_    0.676664 0.318696 0.110981 0.186118
H21   H     H_    0.708832 0.420728 0.017138 0.196725
H22   H     H_    0.318006 0.073589 0.070889 0.233482
H23   H     H_    0.263194 0.502176 0.120356 0.155887
H24   H     H_    0.299290 0.075880 0.152685 0.212851
H25   H     H_    0.640935 0.216717 0.333630 0.242897
H26   H     H_    0.745208 0.281647 0.365626 0.241533
H27   H     H_    0.685465 0.431212 0.481469 0.238128
H28   H     H_    0.633294 0.322214 0.430845 0.225214
H29   H     H_    0.912105 0.701965 0.886736 0.208303
H30   H     H_    0.839266 0.679038 0.920711 0.220702
H31   H     H_    0.710249 0.939594 0.981921 0.236653
H32   H     H_    0.693319 0.837407 0.938095 0.236325
H33   H     H_    0.818687 0.417250 0.706384 0.239689
H34   H     H_    0.377042 0.503567 0.234050 0.155134
H35   H     H_    0.741093 0.373652 0.729876 0.212227
H36   H     H_    0.175553 0.436400 0.371048 0.207271
H37   H     H_    0.236588 0.558709 0.434130 0.192718
H38   H     H_    0.065985 0.439150 0.261091 0.195440
H39   H     H_    0.126332 0.561447 0.324589 0.206283
H40   H     H_    0.122799 0.624888 0.859045 0.151311
N1    N     N_3   0.345499 0.080917 0.132876 -0.613172
N2    N     N_3   0.682338 0.245319 0.313334 -0.539775
N3    N     N_3   0.682214 0.376371 0.438474 -0.576017
N4    N     N_3   0.876260 0.656746 0.899625 -0.582769
N5    N     N_3   0.717551 0.895993 0.937241 -0.569280
N6    N     N_3   0.775199 0.427348 0.725324 -0.603473
O1    O     O_R   0.909480 0.462010 0.051860 -0.589626
O2    O     O_R   0.552410 0.909770 0.962140 -0.595369
O3    O     O_R   0.538310 0.090150 0.948110 -0.584753
O4    O     O_R   0.910180 0.357650 0.948150 -0.585515
O5    O     O_R   0.642020 0.090090 0.051780 -0.585497
O6    O     O_R   0.447590 0.090130 0.037760 -0.595636
O7    O     O_R   0.551300 0.090080 0.141420 -0.563534
O8    O     O_R   0.357980 0.909810 0.948120 -0.587414
O9    O     O_R   0.461690 0.909750 0.051790 -0.584163
O10   O     O_R   0.910060 0.552180 0.962250 -0.557253
O11   O     O_R   0.910760 0.447820 0.858550 -0.601582
O12   O     O_R   0.445180 0.357580 0.407200 -0.587959
O13   O     O_R   0.089820 0.642350 0.051850 -0.582474
O14   O     O_R   0.090520 0.537990 0.948140 -0.589790
O15   O     O_R   0.089240 0.552180 0.141450 -0.587175
O16   O     O_R   0.089940 0.447820 0.037750 -0.586679
O17   O     O_R   0.549550 0.461960 0.407200 -0.590192
O18   O     O_R   0.638540 0.552110 0.586390 -0.589339
O19   O     O_R   0.534170 0.447730 0.586390 -0.587140
O20   O     O_R   0.548350 0.642270 0.586380 -0.587333
O21   O     O_R   0.443970 0.537890 0.586380 -0.590780
O22   O     O_R   0.459360 0.552110 0.407190 -0.586341
O23   O     O_R   0.354990 0.447740 0.407190 -0.587378
O24   O     O_R   0.448700 0.909820 0.858480 -0.586392

loop_
_geom_bond_atom_site_label_1
_geom_bond_atom_site_label_2
_ccdc_geom_bond_type
H26   N2    S    
Cu3   O22   S    
C3    H23   S    
C41   C42   A    
C35   C36   A    
C54   H20   S    
C43   C44   A    
C21   C49   S    
C28   O15   A    
C7    C8    S    
C39   C41   A    
C53   C54   S    
Cu3   O18   S    
C12   C23   A    
C40   H1    S    
Cu2   O4    S    
C36   C37   S    
C8    H37   S    
C47   H14   S    
C1    O4    A    
C30   C31   A    
C22   C41   S    
C10   C17   A    
C40   C49   D    
C30   C38   S    
C18   C19   S    
C48   H16   S    
C8    H36   S    
Cu6   O9    S    
C16   O14   A    
Cu5   O24   S    
C34   H18   S    
C54   C55   S    
H35   N6    S    
Cu1   O1    S    
C31   C32   A    
C8    C9    S    
C4    O11   A    
C15   C29   S    
C21   O19   A    
C26   C45   S    
C52   C55   S    
C1    O1    A    
C45   C53   A    
Cu3   Cu4   S    
C13   C14   A    
C55   H12   S    
H29   N4    S    
C4    O10   A    
C1    C12   S    
C7    C56   A    
H24   N1    S    
C25   C44   S    
C12   C52   A    
C44   C46   A    
C17   C18   S    
C43   H13   S    
C38   H10   S    
H32   N5    S    
Cu2   O14   S    
C49   H4    S    
C4    C51   S    
Cu6   O5    S    
H33   N6    S    
C9    C56   S    
C51   N6    S    
C32   H8    S    
C27   C35   S    
C18   H5    S    
C29   O9    A    
C18   H3    S    
C48   H15   S    
C16   O13   A    
C37   C38   S    
Cu1   O15   S    
C11   C16   S    
C22   O20   A    
C47   C48   S    
Cu6   O2    S    
C10   C19   S    
C23   C34   A    
C14   H2    S    
Cu5   O8    S    
C50   C51   D    
C19   H6    S    
C34   C45   A    
C25   O2    A    
C21   O18   A    
C39   C46   A    
H30   N4    S    
C29   O8    A    
C9    H38   S    
C47   N5    S    
C37   H9    S    
C22   O21   A    
C19   H7    S    
C42   C43   A    
C55   H21   S    
Cu5   O3    S    
C20   O12   A    
C5    H34   S    
C52   C53   A    
C15   C17   A    
C46   C47   S    
C42   H11   S    
C33   N1    S    
Cu4   O19   S    
H28   N3    S    
C3    C5    A    
Cu4   O21   S    
C37   N2    S    
C28   O16   A    
C6    C7    A    
Cu3   O17   S    
Cu2   O16   S    
C30   C36   A    
C32   C33   A    
C38   N3    S    
C2    C3    A    
Cu3   O20   S    
C26   O5    A    
Cu6   O7    S    
C2    C56   A    
H31   N5    S    
C11   C13   A    
C24   O23   A    
Cu1   Cu2   S    
C5    C6    A    
C40   C50   S    
C6    C24   S    
Cu2   O11   S    
C33   C35   A    
Cu4   O12   S    
Cu5   Cu6   S    
C10   C11   A    
Cu1   O13   S    
H25   N2    S    
C27   O6    A    
C24   O22   A    
C20   O17   A    
C9    H39   S    
H27   N3    S    
Cu5   O6    S    
C50   N4    S    
H22   N1    S    
C14   C15   A    
Cu1   O10   S    
C2    C28   S    
C23   H17   S    
C13   H40   S    
C25   O24   A    
C26   O3    A    
C54   H19   S    
Cu4   O23   S    
C39   C48   S    
C20   C31   S    
C27   O7    A    
