data_mof_unit_pretest_1528.cif
_audit_creation_date              2012-12-10T19:52:15-0500
_audit_creation_method            fapswitch 2.2
_symmetry_space_group_name_H-M    P1
_symmetry_Int_Tables_number       1
_space_group_crystal_system       triclinic
_cell_length_a                    18.277172
_cell_length_b                    18.277269
_cell_length_c                    31.866686
_cell_angle_alpha                 89.999982
_cell_angle_beta                  89.999976
_cell_angle_gamma                 89.998949
_cell_volume                      10645.2828059

loop_
_atom_site_label
_atom_site_type_symbol
_atom_type_description
_atom_site_fract_x
_atom_site_fract_y
_atom_site_fract_z
_atom_type_partial_charge
C1    C     C_R   0.641225 0.500019 0.000000 0.932633
C2    C     C_1   0.500002 0.500101 0.163383 -0.027057
C3    C     C_3   0.230469 0.864924 0.768222 -0.801465
C4    C     C_3   0.833061 0.907041 0.251126 0.109274
C5    C     C_3   0.766149 0.870872 0.231789 -0.801387
C6    C     C_3   0.833232 0.906732 0.748875 0.109274
C7    C     C_3   0.766401 0.870416 0.768213 -0.801391
C8    C     C_1   0.000004 0.000101 0.336617 -0.027057
C9    C     C_1   0.000002 0.000101 0.663383 -0.027057
C10   C     C_1   0.500005 0.500718 0.663380 0.045451
C11   C     C_1   0.500005 0.500717 0.336620 0.045451
C12   C     C_1   0.000006 0.000717 0.163380 0.045451
C13   C     C_1   0.000005 0.000717 0.836620 0.045451
C14   C     C_1   0.717645 0.500052 0.000000 -0.190953
C15   C     C_1   0.282355 0.500056 1.000000 -0.191016
C16   C     C_1   0.217645 0.000052 0.500000 -0.190952
C17   C     C_R   0.358775 0.500020 1.000000 0.932588
C18   C     C_1   0.782355 0.000056 0.500000 -0.191016
C19   C     C_1   0.782386 0.500043 0.000000 -0.187418
C20   C     C_1   0.217614 0.500046 1.000000 -0.187485
C21   C     C_1   0.282386 0.000044 0.500000 -0.187418
C22   C     C_1   0.717614 0.000046 0.500000 -0.187486
C23   C     C_R   0.500000 0.358653 0.500000 0.938455
C24   C     C_R   0.000000 0.858653 0.000000 0.938455
C25   C     C_R   0.500000 0.499889 0.581399 0.900067
C26   C     C_R   0.500000 0.499890 0.418601 0.900067
C27   C     C_R   0.000000 0.999889 0.081399 0.900067
C28   C     C_R   0.141225 0.000019 0.500000 0.932633
C29   C     C_R   0.000000 0.999889 0.918601 0.900067
C30   C     C_R   0.499999 0.641067 0.500000 0.928026
C31   C     C_R   0.999999 0.141067 0.000000 0.928026
C32   C     C_R   0.000000 0.641160 0.000000 0.933340
C33   C     C_R   0.500000 0.141160 0.500000 0.933340
C34   C     C_R   0.858806 0.500015 0.000000 0.932897
C35   C     C_R   0.141194 0.500016 0.000000 0.932881
C36   C     C_R   0.358806 0.000015 0.500000 0.932897
C37   C     C_R   0.641194 0.000016 0.500000 0.932881
C38   C     C_R   0.500000 0.500001 0.918601 0.905154
C39   C     C_R   0.858775 0.000021 0.500000 0.932587
C40   C     C_R   0.500000 0.500001 0.081399 0.905156
C41   C     C_R   0.000000 0.000001 0.418601 0.905154
C42   C     C_R   0.000000 0.000001 0.581399 0.905156
C43   C     C_R   1.000000 0.358787 0.000000 0.931579
C44   C     C_R   0.500000 0.858787 0.500000 0.931579
C45   C     C_1   0.500001 0.282268 0.500000 -0.180786
C46   C     C_1   0.000002 0.782268 1.000000 -0.180786
C47   C     C_1   0.000001 0.717546 1.000000 -0.181396
C48   C     C_1   0.500001 0.217546 0.500000 -0.181396
C49   C     C_1   0.499998 0.717540 0.500000 -0.188557
C50   C     C_3   0.500902 0.570580 0.736282 -0.270879
C51   C     C_1   0.999999 0.217540 0.000000 -0.188557
C52   C     C_1   0.999999 0.282313 0.000000 -0.188080
C53   C     C_1   0.499999 0.782313 0.500000 -0.188080
C54   C     C_3   0.558569 0.466002 0.736473 0.498711
C55   C     C_3   0.558602 0.466062 0.263527 0.498708
C56   C     C_3   0.440578 0.467514 0.736475 0.498701
C57   C     C_3   0.440610 0.467454 0.263525 0.498704
C58   C     C_3   0.058537 0.965947 0.236473 0.498712
C59   C     C_3   0.058601 0.966059 0.763527 0.498708
C60   C     C_3   0.940547 0.967570 0.236475 0.498700
C61   C     C_3   0.500829 0.570581 0.263718 -0.270879
C62   C     C_3   0.940609 0.967457 0.763525 0.498703
C63   C     C_3   0.560911 0.535068 0.764202 -0.226252
C64   C     C_3   0.560874 0.535130 0.235798 -0.226237
C65   C     C_3   0.440007 0.536617 0.764204 -0.226306
C66   C     C_3   0.439968 0.536556 0.235796 -0.226321
C67   C     C_3   0.060944 0.035010 0.264202 -0.226250
C68   C     C_3   0.060876 0.035126 0.735798 -0.226238
C69   C     C_3   0.940042 0.036674 0.264204 -0.226307
C70   C     C_3   0.939970 0.036559 0.735796 -0.226319
C71   C     C_1   0.500002 0.500022 0.874119 -0.191070
C72   C     C_3   0.000968 0.070579 0.236282 -0.270879
C73   C     C_1   0.500001 0.500022 0.125881 -0.191070
C74   C     C_1   0.000002 0.000022 0.374119 -0.191070
C75   C     C_1   0.000001 0.000022 0.625881 -0.191070
C76   C     C_1   0.500001 0.500285 0.625879 -0.159246
C77   C     C_1   0.500001 0.500285 0.374121 -0.159246
C78   C     C_1   0.000001 0.000285 0.125879 -0.159246
C79   C     C_1   0.000001 0.000285 0.874121 -0.159246
C80   C     C_3   0.499105 0.430083 0.763909 -0.384035
C81   C     C_3   0.499175 0.430082 0.236091 -0.384033
C82   C     C_3   0.999040 0.930083 0.263909 -0.384035
C83   C     C_3   0.000833 0.070581 0.763718 -0.270879
C84   C     C_3   0.999172 0.930082 0.736091 -0.384034
C85   C     C_3   0.500005 0.500220 0.791197 0.075779
C86   C     C_3   0.500002 0.500220 0.208803 0.075779
C87   C     C_3   0.000005 0.000220 0.291197 0.075779
C88   C     C_3   0.000003 0.000220 0.708803 0.075778
C89   C     C_3   0.500012 0.501221 0.708841 0.072300
C90   C     C_3   0.500011 0.501221 0.291159 0.072300
C91   C     C_3   0.000014 0.001221 0.208841 0.072299
C92   C     C_3   0.000011 0.001221 0.791159 0.072300
C93   C     C_3   0.664421 0.402650 0.751117 0.109356
C94   C     C_1   0.500004 0.500101 0.836617 -0.027057
C95   C     C_3   0.730334 0.364693 0.731775 -0.801468
C96   C     C_3   0.664513 0.402808 0.248881 0.109358
C97   C     C_3   0.730475 0.364935 0.268222 -0.801466
C98   C     C_3   0.333148 0.406884 0.751126 0.109275
C99   C     C_3   0.266271 0.370652 0.731789 -0.801388
C100  C     C_3   0.333236 0.406724 0.248875 0.109273
C101  C     C_3   0.266406 0.370405 0.268214 -0.801390
C102  C     C_3   0.164330 0.902495 0.251117 0.109355
C103  C     C_3   0.230206 0.864476 0.231775 -0.801470
C104  C     C_3   0.164509 0.902800 0.748881 0.109355
H1    H     H_    0.610658 0.562574 0.776467 0.143938
H2    H     H_    0.501499 0.627525 0.275824 0.168112
H3    H     H_    0.001750 0.127522 0.224176 0.168112
H4    H     H_    0.001506 0.127525 0.775824 0.168111
H5    H     H_    0.498376 0.372992 0.775781 0.144035
H6    H     H_    0.498503 0.372990 0.224219 0.144035
H7    H     H_    0.998257 0.872993 0.275781 0.144035
H8    H     H_    0.998497 0.872990 0.724219 0.144035
H9    H     H_    0.634237 0.361809 0.770402 0.140724
H10   H     H_    0.684699 0.447528 0.771676 0.134724
H11   H     H_    0.762303 0.404222 0.712679 0.258319
H12   H     H_    0.610592 0.562686 0.223532 0.143944
H13   H     H_    0.766002 0.342529 0.756962 0.201970
H14   H     H_    0.712036 0.318904 0.711402 0.259386
H15   H     H_    0.684734 0.447699 0.228313 0.134721
H16   H     H_    0.634369 0.361924 0.229606 0.140729
H17   H     H_    0.712235 0.319135 0.288604 0.259387
H18   H     H_    0.766160 0.342799 0.243035 0.201972
H19   H     H_    0.762405 0.404509 0.287309 0.258316
H20   H     H_    0.314043 0.452258 0.771698 0.134692
H21   H     H_    0.362282 0.365268 0.770397 0.140718
H22   H     H_    0.283373 0.324418 0.711404 0.259438
H23   H     H_    0.390982 0.565389 0.776471 0.143933
H24   H     H_    0.230058 0.349399 0.756978 0.201911
H25   H     H_    0.235319 0.411002 0.712706 0.258287
H26   H     H_    0.362410 0.365151 0.229593 0.140714
H27   H     H_    0.314073 0.452087 0.228314 0.134695
H28   H     H_    0.235415 0.410710 0.287307 0.258289
H29   H     H_    0.230209 0.349123 0.243025 0.201908
H30   H     H_    0.283569 0.324180 0.288589 0.259438
H31   H     H_    0.134108 0.861683 0.270402 0.140725
H32   H     H_    0.184650 0.947355 0.271676 0.134725
H33   H     H_    0.262212 0.903974 0.212678 0.258319
H34   H     H_    0.390914 0.565279 0.223530 0.143927
H35   H     H_    0.265854 0.842278 0.256961 0.201971
H36   H     H_    0.211865 0.818704 0.211402 0.259386
H37   H     H_    0.184732 0.947690 0.728313 0.134721
H38   H     H_    0.134363 0.861917 0.729607 0.140729
H39   H     H_    0.212227 0.819125 0.788605 0.259387
H40   H     H_    0.266153 0.842786 0.743036 0.201971
H41   H     H_    0.262401 0.904496 0.787309 0.258316
H42   H     H_    0.813999 0.952432 0.271699 0.134692
H43   H     H_    0.862155 0.865397 0.270397 0.140718
H44   H     H_    0.783207 0.824622 0.211404 0.259439
H45   H     H_    0.110717 0.062470 0.276467 0.143937
H46   H     H_    0.729916 0.849653 0.256978 0.201910
H47   H     H_    0.735235 0.911252 0.212707 0.258286
H48   H     H_    0.862404 0.865157 0.729594 0.140714
H49   H     H_    0.814071 0.952096 0.728314 0.134696
H50   H     H_    0.735411 0.910723 0.787306 0.258290
H51   H     H_    0.730203 0.849136 0.743025 0.201910
H52   H     H_    0.783560 0.824190 0.788589 0.259437
H53   H     H_    0.110596 0.062681 0.723532 0.143943
H54   H     H_    0.891044 0.065492 0.276471 0.143934
H55   H     H_    0.890917 0.065284 0.723530 0.143928
H56   H     H_    0.501630 0.627524 0.724176 0.168112
O1    O     O_R   0.607370 0.439420 0.000000 -0.620334
O2    O     O_R   0.392710 0.560580 0.000000 -0.618118
O3    O     O_R   0.107290 0.060580 0.500000 -0.618084
O4    O     O_R   0.892710 0.060580 0.500000 -0.618119
O5    O     O_R   0.500000 0.439420 0.938390 -0.619764
O6    O     O_R   0.500000 0.439420 0.061610 -0.619764
O7    O     O_R   1.000000 0.939420 0.438390 -0.619764
O8    O     O_R   1.000000 0.939420 0.561610 -0.619764
O9    O     O_R   0.500000 0.560580 0.938390 -0.615250
O10   O     O_R   0.500000 0.560580 0.061610 -0.615251
O11   O     O_R   1.000000 0.060580 0.438390 -0.615250
O12   O     O_R   0.392630 0.439420 0.000000 -0.620332
O13   O     O_R   0.000000 0.060580 0.561610 -0.615251
O14   O     O_R   0.560550 0.392540 0.500000 -0.617123
O15   O     O_R   0.439450 0.392540 0.500000 -0.617139
O16   O     O_R   0.060550 0.892540 0.000000 -0.617122
O17   O     O_R   0.939450 0.892540 0.000000 -0.617140
O18   O     O_R   0.560580 0.499860 0.561610 -0.613563
O19   O     O_R   0.560580 0.499860 0.438390 -0.613555
O20   O     O_R   0.439420 0.499860 0.561610 -0.613399
O21   O     O_R   0.439420 0.499860 0.438390 -0.613407
O22   O     O_R   0.060580 0.999860 0.061610 -0.613569
O23   O     O_R   0.107370 0.939420 0.500000 -0.620335
O24   O     O_R   0.060580 0.999860 0.938390 -0.613556
O25   O     O_R   0.939420 0.999860 0.061610 -0.613393
O26   O     O_R   0.939420 0.999860 0.938390 -0.613406
O27   O     O_R   0.560630 0.607160 0.500000 -0.620145
O28   O     O_R   0.439370 0.607160 0.500000 -0.620089
O29   O     O_R   0.060630 0.107160 0.000000 -0.620147
O30   O     O_R   0.939370 0.107160 0.000000 -0.620087
O31   O     O_R   1.000000 0.607310 0.965210 -0.619050
O32   O     O_R   1.000000 0.607310 0.034790 -0.619051
O33   O     O_R   0.500000 0.107310 0.465210 -0.619050
O34   O     O_R   0.892630 0.939420 0.500000 -0.620331
O35   O     O_R   0.500000 0.107310 0.534790 -0.619051
O36   O     O_R   0.892680 0.500000 0.965220 -0.621163
O37   O     O_R   0.892680 0.500000 0.034780 -0.621163
O38   O     O_R   0.107320 0.500000 0.965220 -0.621201
O39   O     O_R   0.107320 0.500000 0.034780 -0.621202
O40   O     O_R   0.392680 0.000000 0.465220 -0.621162
O41   O     O_R   0.392680 0.000000 0.534780 -0.621164
O42   O     O_R   0.607320 0.000000 0.465220 -0.621203
O43   O     O_R   0.607320 0.000000 0.534780 -0.621200
O44   O     O_3   0.619696 0.430404 0.718769 -0.600770
O45   O     O_R   0.000000 0.392690 0.965220 -0.621559
O46   O     O_3   0.619767 0.430527 0.281230 -0.600769
O47   O     O_3   0.378556 0.433496 0.718775 -0.600736
O48   O     O_3   0.378624 0.433371 0.281226 -0.600738
O49   O     O_3   0.119630 0.930292 0.218768 -0.600771
O50   O     O_3   0.119764 0.930522 0.781230 -0.600768
O51   O     O_3   0.878493 0.933611 0.218775 -0.600735
O52   O     O_3   0.878621 0.933377 0.781227 -0.600737
O53   O     O_R   0.000000 0.392690 0.034780 -0.621560
O54   O     O_R   0.500000 0.892690 0.465220 -0.621559
O55   O     O_R   0.500000 0.892690 0.534780 -0.621560
O56   O     O_R   0.607290 0.560580 0.000000 -0.618084
Zn1   Zn    Zn3+2 0.500000 0.419100 0.000000 0.965945
Zn2   Zn    Zn3+2 1.000000 0.500000 0.046450 0.967421
Zn3   Zn    Zn3+2 0.500000 0.000000 0.453550 0.967422
Zn4   Zn    Zn3+2 0.500000 0.000000 0.546450 0.967421
Zn5   Zn    Zn3+2 0.000000 0.919100 0.500000 0.965945
Zn6   Zn    Zn3+2 0.500000 0.580900 0.000000 0.974577
Zn7   Zn    Zn3+2 1.000000 0.080900 0.500000 0.974577
Zn8   Zn    Zn3+2 0.580910 0.499830 0.500000 0.983716
Zn9   Zn    Zn3+2 0.419090 0.499830 0.500000 0.983927
Zn10  Zn    Zn3+2 0.080910 0.999830 0.000000 0.983711
Zn11  Zn    Zn3+2 0.919090 0.999830 0.000000 0.983932
Zn12  Zn    Zn3+2 1.000000 0.500000 0.953550 0.967422

loop_
_geom_bond_atom_site_label_1
_geom_bond_atom_site_label_2
_ccdc_geom_bond_type
C3    C104  S    
C16   C28   S    
C38   O5    A    
O36   Zn12  S    
C16   C21   T    
C23   C45   S    
C29   O24   A    
O1    Zn1   S    
C67   H45   S    
C44   O55   A    
C12   C91   S    
O29   Zn10  S    
C11   C90   S    
C104  O50   S    
O8    Zn5   S    
C27   C78   S    
C70   C88   S    
C40   O10   A    
C100  O48   S    
C25   O20   A    
C35   O39   A    
C21   C36   S    
C101  H30   S    
C95   H13   S    
C23   O15   A    
C98   H20   S    
C83   C92   S    
C41   O11   A    
C57   O48   S    
C32   O32   A    
C42   C75   S    
C84   H8    S    
C4    O51   S    
O43   Zn4   S    
C44   O54   A    
C65   H23   S    
C28   O23   A    
C67   C72   S    
C55   C90   S    
O24   Zn10  S    
O54   Zn3   S    
C58   C82   S    
C9    C88   S    
C100  H26   S    
C43   C52   S    
C45   C48   T    
C6    O52   S    
O27   Zn8   S    
C56   C65   S    
O25   Zn11  S    
O20   Zn9   S    
C29   O26   A    
C62   C70   S    
O45   Zn12  S    
O33   Zn3   S    
C70   H55   S    
C27   O25   A    
C93   O44   S    
C102  H31   S    
O7    Zn5   S    
C97   H17   S    
C11   C77   T    
C41   C74   S    
O10   Zn6   S    
C20   C35   S    
C60   C82   S    
C44   C53   S    
C98   H21   S    
O26   Zn11  S    
O2    Zn6   S    
C10   C89   S    
C95   H11   S    
C60   C91   S    
C62   C92   S    
C80   H5    S    
C37   O42   A    
C24   O16   A    
O32   Zn2   S    
C55   C81   S    
C58   C91   S    
C57   C66   S    
C40   O6    A    
C81   C86   S    
C69   C87   S    
C59   O50   S    
O5    Zn1   S    
C93   H10   S    
C6    H48   S    
C1    O1    A    
C93   C95   S    
C5    H44   S    
C55   C64   S    
C50   C63   S    
C9    C75   T    
C97   H18   S    
O18   Zn8   S    
C38   C71   S    
O39   Zn2   S    
C10   C76   T    
C61   C66   S    
C64   C86   S    
O35   Zn4   S    
C60   O51   S    
O38   Zn12  S    
C99   H22   S    
C54   C80   S    
C95   H14   S    
C15   C20   T    
C39   O34   A    
C100  H27   S    
C26   C77   S    
C57   C90   S    
C99   H25   S    
C51   C52   T    
C6    H49   S    
O31   Zn12  S    
C36   O40   A    
O56   Zn6   S    
C56   O47   S    
O14   Zn8   S    
C59   C84   S    
C54   C89   S    
O28   Zn9   S    
C23   O14   A    
C72   C91   S    
C34   O37   A    
C25   O18   A    
O22   Zn10  S    
O37   Zn2   S    
O21   Zn9   S    
C26   O19   A    
C4    H43   S    
C64   H12   S    
C19   C34   S    
C5    H46   S    
O30   Zn11  S    
C32   O31   A    
C12   C78   T    
C30   O28   A    
O42   Zn3   S    
C61   C64   S    
C18   C39   S    
C26   O21   A    
C80   C85   S    
C61   H2    S    
C103  H35   S    
C59   C68   S    
O17   Zn11  S    
C85   C94   S    
C50   C89   S    
C96   O46   S    
O9    Zn6   S    
C66   H34   S    
C72   H3    S    
O23   Zn5   S    
C4    H42   S    
C96   C97   S    
C1    O56   A    
C8    C74   T    
C69   H54   S    
C37   O43   A    
C3    H39   S    
C29   C79   S    
C93   H9    S    
C7    H52   S    
C70   C83   S    
O6    Zn1   S    
C83   H4    S    
C6    C7    S    
C2    C73   T    
O34   Zn5   S    
C56   C89   S    
C30   C49   S    
C3    H41   S    
C96   H15   S    
O3    Zn7   S    
C13   C92   S    
C68   C88   S    
C32   C47   S    
C104  H38   S    
C98   O47   S    
C42   O8    A    
C63   H1    S    
C36   O41   A    
C68   H53   S    
O13   Zn7   S    
C69   C72   S    
C13   C79   T    
C61   C90   S    
C38   O9    A    
C58   O49   S    
C34   O36   A    
C15   C17   S    
C55   O46   S    
C62   C84   S    
C46   C47   T    
C71   C94   T    
C18   C22   T    
C68   C83   S    
C14   C19   T    
C96   H16   S    
C3    H40   S    
C84   C88   S    
O41   Zn4   S    
C31   C51   S    
C4    C5    S    
C42   O13   A    
C56   C80   S    
C66   C86   S    
O11   Zn7   S    
O53   Zn2   S    
C102  O49   S    
C65   C85   S    
C99   H24   S    
C101  H29   S    
O16   Zn10  S    
C31   O29   A    
C67   C87   S    
C5    H47   S    
O19   Zn8   S    
C25   C76   S    
C50   H56   S    
C82   H7    S    
C8    C87   S    
C103  H33   S    
C39   O4    A    
C27   O22   A    
C24   C46   S    
C97   H19   S    
O55   Zn4   S    
C30   O27   A    
C22   C37   S    
O4    Zn7   S    
O15   Zn9   S    
C7    H50   S    
C60   C69   S    
C54   O44   S    
C41   O7    A    
C31   O30   A    
C43   O45   A    
C2    C86   S    
C57   C81   S    
C59   C92   S    
C102  C103  S    
C50   C65   S    
C102  H32   S    
C49   C53   T    
C17   O2    A    
C35   O38   A    
C33   O33   A    
C101  H28   S    
C58   C67   S    
C7    H51   S    
C81   H6    S    
C33   O35   A    
C98   C99   S    
C54   C63   S    
C17   O12   A    
C24   O17   A    
C33   C48   S    
C62   O52   S    
C104  H37   S    
C100  C101  S    
C1    C14   S    
O40   Zn3   S    
C40   C73   S    
C103  H36   S    
C63   C85   S    
O12   Zn1   S    
C82   C87   S    
C28   O3    A    
C43   O53   A    
