data_mof_unit_pretest_201.cif
_audit_creation_date              2012-10-26T19:51:33-0400
_audit_creation_method            fapswitch 2.2
_symmetry_space_group_name_H-M    P1
_symmetry_Int_Tables_number       1
_space_group_crystal_system       triclinic
_cell_length_a                    19.392691
_cell_length_b                    18.145129
_cell_length_c                    9.070363
_cell_angle_alpha                 89.744261
_cell_angle_beta                  89.77699
_cell_angle_gamma                 90.011674
_cell_volume                      3191.64940565

loop_
_atom_site_label
_atom_site_type_symbol
_atom_type_description
_atom_site_fract_x
_atom_site_fract_y
_atom_site_fract_z
_atom_type_partial_charge
C1    C     C_R   0.367715 0.499981 0.499803 0.541787
C2    C     C_R   0.538433 0.201578 0.396008 -0.159596
C3    C     C_R   0.499759 0.838250 0.500240 0.016133
C4    C     C_R   0.499846 0.161738 0.500663 0.016054
C5    C     C_R   0.546543 0.960330 0.591850 0.004614
C6    C     C_R   0.453099 0.039658 0.408982 0.004170
C7    C     C_R   0.452695 0.960808 0.409725 0.004544
C8    C     C_R   0.546100 0.039172 0.593011 0.004139
C9    C     C_R   0.499685 0.078730 0.500884 0.011987
C10   C     C_R   0.499682 0.921242 0.500558 0.012687
C11   C     C_R   0.500042 0.500100 0.220410 0.555947
C12   C     C_R   0.632366 0.499989 0.499673 0.542463
C13   C     C_R   0.499966 0.499901 0.779590 0.556324
C14   C     C_1   0.500022 0.500139 0.065499 -0.068467
C15   C     C_1   0.499993 0.499863 0.934501 -0.068464
C16   C     C_R   0.743554 0.444569 0.422467 -0.134464
C17   C     C_R   0.257104 0.450192 0.408299 -0.134563
C18   C     C_R   0.255811 0.549289 0.587298 -0.136113
C19   C     C_R   0.744218 0.554849 0.573054 -0.137263
C20   C     C_R   0.815339 0.444869 0.419616 -0.138047
C21   C     C_R   0.185328 0.450864 0.405055 -0.135168
C22   C     C_R   0.183998 0.548045 0.588035 -0.134398
C23   C     C_R   0.454917 0.720770 0.588439 0.047057
C24   C     C_R   0.816023 0.553873 0.573703 -0.139777
C25   C     C_R   0.851814 0.499159 0.496209 0.034101
C26   C     C_R   0.148619 0.499284 0.495962 0.028968
C27   C     C_R   0.707690 0.499847 0.498393 0.020292
C28   C     C_R   0.292553 0.499851 0.498485 0.021236
C29   C     C_R   0.963929 0.547747 0.399833 0.002720
C30   C     C_R   0.036733 0.450683 0.592232 0.002714
C31   C     C_R   0.037041 0.546514 0.397411 0.002638
C32   C     C_R   0.963624 0.449435 0.589992 0.002715
C33   C     C_R   0.072675 0.498784 0.495113 0.008331
C34   C     C_R   0.461850 0.278813 0.602295 0.045576
C35   C     C_R   0.927879 0.498743 0.495272 0.009913
C36   C     C_3   0.923831 0.600707 0.300100 -0.249768
C37   C     C_3   0.902726 0.563937 0.155259 -0.293033
C38   C     C_3   0.865407 0.618308 0.054472 -0.459100
C39   C     C_3   0.076916 0.401849 0.699725 -0.247445
C40   C     C_3   0.093193 0.326068 0.633100 -0.294267
C41   C     C_3   0.128184 0.275891 0.745586 -0.460801
C42   C     C_3   0.077550 0.594873 0.288946 -0.247429
C43   C     C_3   0.093649 0.670982 0.353993 -0.294310
C44   C     C_3   0.127948 0.720991 0.239624 -0.460684
C45   C     C_R   0.544937 0.721393 0.411586 0.044430
C46   C     C_3   0.923217 0.396185 0.689259 -0.249664
C47   C     C_3   0.901788 0.432488 0.834688 -0.292937
C48   C     C_3   0.864649 0.377693 0.935509 -0.459031
C49   C     C_3   0.596629 0.917135 0.689030 -0.248927
C50   C     C_3   0.564719 0.899677 0.840327 -0.293164
C51   C     C_3   0.616249 0.860234 0.939915 -0.458218
C52   C     C_3   0.403183 0.082975 0.311635 -0.248545
C53   C     C_3   0.335616 0.099533 0.393823 -0.293141
C54   C     C_3   0.285741 0.142653 0.296490 -0.460017
C55   C     C_3   0.402516 0.918134 0.312584 -0.248765
C56   C     C_R   0.538113 0.279000 0.398056 0.044359
C57   C     C_3   0.434137 0.901918 0.160779 -0.293236
C58   C     C_3   0.382464 0.863076 0.061237 -0.458043
C59   C     C_3   0.595570 0.081953 0.691587 -0.248455
C60   C     C_3   0.663425 0.099263 0.610843 -0.293408
C61   C     C_3   0.713037 0.141228 0.710072 -0.460030
C62   C     C_R   0.453886 0.798180 0.589992 -0.159829
C63   C     C_R   0.461354 0.201400 0.604984 -0.159320
C64   C     C_R   0.545727 0.798829 0.410275 -0.160479
Cu1   Cu    Cu3+1 0.500000 0.573360 0.500000 0.929215
Cu2   Cu    Cu3+1 0.500000 0.426640 0.500000 0.927481
H1    H     H_    0.716030 0.401972 0.363544 0.111381
H2    H     H_    0.431685 0.308891 0.682499 0.121647
H3    H     H_    0.580432 0.691457 0.341757 0.120877
H4    H     H_    0.568388 0.309215 0.317684 0.117860
H5    H     H_    0.417528 0.826681 0.660440 0.081145
H6    H     H_    0.431183 0.172590 0.687780 0.082591
H7    H     H_    0.581992 0.827850 0.339924 0.081635
H8    H     H_    0.568560 0.172898 0.313490 0.082505
H9    H     H_    0.818350 0.639740 0.109792 0.153851
H10   H     H_    0.899894 0.665095 0.025405 0.142949
H11   H     H_    0.849796 0.590326 0.951386 0.134936
H12   H     H_    0.284987 0.412064 0.338455 0.115223
H13   H     H_    0.949037 0.542645 0.097124 0.148342
H14   H     H_    0.867897 0.516854 0.178339 0.171921
H15   H     H_    0.877364 0.622103 0.356853 0.145600
H16   H     H_    0.953625 0.651265 0.275322 0.135202
H17   H     H_    0.177213 0.300996 0.783620 0.153128
H18   H     H_    0.093679 0.266476 0.841894 0.143809
H19   H     H_    0.139948 0.221899 0.694117 0.135364
H20   H     H_    0.045416 0.298906 0.593911 0.148463
H21   H     H_    0.127998 0.332411 0.536780 0.165694
H22   H     H_    0.125798 0.428541 0.733517 0.149039
H23   H     H_    0.282689 0.587615 0.658069 0.106303
H24   H     H_    0.048525 0.395221 0.805240 0.133077
H25   H     H_    0.176925 0.696038 0.200146 0.154167
H26   H     H_    0.093000 0.729901 0.144444 0.143374
H27   H     H_    0.139672 0.775222 0.289941 0.135631
H28   H     H_    0.045875 0.697966 0.394431 0.148643
H29   H     H_    0.128861 0.665167 0.449184 0.166224
H30   H     H_    0.126533 0.568036 0.255530 0.148902
H31   H     H_    0.049455 0.600952 0.183414 0.133184
H32   H     H_    0.817850 0.355922 0.880453 0.155444
H33   H     H_    0.899406 0.331166 0.964087 0.142901
H34   H     H_    0.717213 0.597673 0.632809 0.117344
H35   H     H_    0.848655 0.405455 0.038850 0.134487
H36   H     H_    0.947928 0.453968 0.892433 0.148551
H37   H     H_    0.866711 0.479352 0.812379 0.172725
H38   H     H_    0.876872 0.375008 0.632476 0.145949
H39   H     H_    0.952886 0.345517 0.713172 0.134990
H40   H     H_    0.633126 0.807683 0.888809 0.155171
H41   H     H_    0.661955 0.895773 0.959147 0.143333
H42   H     H_    0.591733 0.847601 0.047834 0.132020
H43   H     H_    0.547539 0.951146 0.895131 0.149559
H44   H     H_    0.518956 0.863790 0.826593 0.168500
H45   H     H_    0.842646 0.402534 0.359072 0.094733
H46   H     H_    0.612565 0.865009 0.635481 0.146770
H47   H     H_    0.645937 0.947023 0.702900 0.132857
H48   H     H_    0.309041 0.196066 0.262539 0.154446
H49   H     H_    0.272682 0.110309 0.196717 0.143833
H50   H     H_    0.237529 0.153946 0.358860 0.135888
H51   H     H_    0.310439 0.047455 0.429661 0.148937
H52   H     H_    0.346299 0.132403 0.493950 0.166252
H53   H     H_    0.426671 0.135427 0.273374 0.148244
H54   H     H_    0.392166 0.053558 0.207641 0.132673
H55   H     H_    0.365944 0.810008 0.111693 0.156479
H56   H     H_    0.158280 0.413573 0.332442 0.096630
H57   H     H_    0.336557 0.898544 0.043223 0.143587
H58   H     H_    0.406698 0.851514 0.952769 0.131628
H59   H     H_    0.451069 0.953854 0.106442 0.149385
H60   H     H_    0.480027 0.866081 0.173658 0.168592
H61   H     H_    0.386854 0.865543 0.365626 0.147811
H62   H     H_    0.353083 0.947930 0.299622 0.132725
H63   H     H_    0.689709 0.194292 0.745082 0.156079
H64   H     H_    0.725709 0.107767 0.809181 0.143484
H65   H     H_    0.761480 0.153128 0.648781 0.135483
H66   H     H_    0.688629 0.047534 0.574071 0.149034
H67   H     H_    0.155886 0.585130 0.659656 0.096756
H68   H     H_    0.653115 0.133237 0.511419 0.165983
H69   H     H_    0.571837 0.134080 0.729940 0.148076
H70   H     H_    0.606213 0.051846 0.795501 0.132737
H71   H     H_    0.843879 0.595941 0.633424 0.095500
H72   H     H_    0.419474 0.690345 0.658115 0.117621
N1    N     N_R   0.500000 0.683620 0.500000 -0.216341
N2    N     N_R   0.500000 0.316380 0.500000 -0.216651
O1    O     O_R   0.400190 0.561980 0.499980 -0.505237
O2    O     O_R   0.599810 0.438020 0.500020 -0.502456
O3    O     O_R   0.599810 0.561980 0.500020 -0.507898
O4    O     O_R   0.400190 0.438020 0.499980 -0.503369
O5    O     O_R   0.500000 0.561940 0.288400 -0.495234
O6    O     O_R   0.500000 0.438060 0.711600 -0.500289
O7    O     O_R   0.500000 0.561940 0.711600 -0.498836
O8    O     O_R   0.500000 0.438060 0.288400 -0.503781

loop_
_geom_bond_atom_site_label_1
_geom_bond_atom_site_label_2
_ccdc_geom_bond_type
C7    C10   A    
C49   H47   S    
C21   C26   A    
C31   C42   S    
C23   H72   S    
C7    C55   S    
C60   H66   S    
C6    C9    A    
C38   H10   S    
C3    C64   A    
C37   H13   S    
C29   C36   S    
C58   H57   S    
C42   H30   S    
C13   O6    A    
C40   H21   S    
C23   N1    A    
C36   C37   S    
C8    C59   S    
C57   H59   S    
C56   N2    A    
C11   C14   S    
C53   H51   S    
C11   O8    A    
Cu2   O4    S    
C20   C25   A    
C41   H17   S    
C46   H39   S    
C59   H70   S    
C45   N1    A    
C43   H28   S    
C59   H69   S    
C40   H20   S    
C21   H56   S    
C49   C50   S    
C34   C63   A    
C44   H27   S    
C23   C62   A    
C36   H16   S    
C8    C9    A    
C54   H50   S    
C30   C39   S    
C1    C28   S    
C43   H29   S    
C64   H7    S    
C31   C33   A    
Cu1   O7    S    
C19   C27   A    
C39   H24   S    
Cu2   O8    S    
C2    H8    S    
C61   H63   S    
C16   C27   A    
C59   C60   S    
C47   H36   S    
C17   C28   A    
C5    C49   S    
C39   H22   S    
C50   H44   S    
C38   H9    S    
C37   H14   S    
C47   H37   S    
C22   H67   S    
C45   H3    S    
C32   C35   A    
C18   C28   A    
C24   C25   A    
C42   H31   S    
C34   H2    S    
C39   C40   S    
C53   H52   S    
C11   O5    A    
C12   C27   S    
C53   C54   S    
C41   H18   S    
C46   H38   S    
C50   H43   S    
C17   C21   A    
C60   C61   S    
C2    C4    A    
C43   C44   S    
C37   C38   S    
C20   H45   S    
Cu1   O1    S    
C26   C33   S    
C47   C48   S    
C4    C63   A    
C36   H15   S    
C16   C20   A    
C54   H49   S    
C50   C51   S    
C16   H1    S    
C55   H62   S    
C44   H25   S    
C61   H64   S    
C25   C35   S    
C49   H46   S    
C52   H54   S    
C40   C41   S    
C55   H61   S    
C51   H42   S    
C56   H4    S    
C55   C57   S    
C42   C43   S    
C13   O7    A    
Cu1   O5    S    
C60   H68   S    
C57   H60   S    
C48   H32   S    
C52   C53   S    
C3    C62   A    
C48   H33   S    
C46   C47   S    
C58   H55   S    
C30   C33   A    
C18   C22   A    
C18   H23   S    
C32   C46   S    
C44   H26   S    
C5    C8    A    
C19   H34   S    
C6    C7    A    
Cu2   O2    S    
C38   H11   S    
C24   H71   S    
C41   H19   S    
C29   C35   A    
C45   C64   A    
C58   H58   S    
C12   O3    A    
C13   C15   S    
C19   C24   A    
C5    C10   A    
C29   C31   A    
C1    O4    A    
C2    C56   A    
C30   C32   A    
C57   C58   S    
C51   H40   S    
Cu1   O3    S    
C48   H35   S    
C54   H48   S    
C34   N2    A    
C17   H12   S    
C12   O2    A    
C62   H5    S    
Cu2   O6    S    
C1    O1    A    
C61   H65   S    
Cu1   N1    S    
C52   H53   S    
Cu2   N2    S    
C63   H6    S    
C51   H41   S    
Cu1   Cu2   S    
C22   C26   A    
C3    C10   S    
C14   C15   T    
C6    C52   S    
C4    C9    S    
