data_mof_unit_pretest_514.cif
_audit_creation_date              2012-12-11T15:55:52-0500
_audit_creation_method            fapswitch 2.2
_symmetry_space_group_name_H-M    P1
_symmetry_Int_Tables_number       1
_space_group_crystal_system       triclinic
_cell_length_a                    11.007628
_cell_length_b                    11.001527
_cell_length_c                    18.72336
_cell_angle_alpha                 91.027247
_cell_angle_beta                  90.951895
_cell_angle_gamma                 59.342365
_cell_volume                      1950.10798417

loop_
_atom_site_label
_atom_site_type_symbol
_atom_type_description
_atom_site_fract_x
_atom_site_fract_y
_atom_site_fract_z
_atom_type_partial_charge
C1    C     C_R   0.386168 0.709444 0.389488 0.551041
C2    C     C_R   0.224844 0.409497 0.207804 -0.123658
C3    C     C_R   0.223189 0.418234 0.282196 -0.027955
C4    C     C_R   0.381633 0.349444 0.390270 0.525787
C5    C     C_R   0.871159 0.744045 0.401338 -0.172403
C6    C     C_R   0.902675 0.774722 0.334621 -0.071905
C7    C     C_R   0.012422 0.668861 0.294102 0.374857
C8    C     C_R   0.093372 0.529659 0.320269 0.056108
C9    C     C_R   0.347245 0.320293 0.318734 -0.020661
C10   C     C_R   0.924617 0.316336 0.191301 0.027989
C11   C     C_R   0.021309 0.270514 0.247979 -0.017207
C12   C     C_R   0.616295 0.116251 0.176933 0.027552
C13   C     C_R   0.976242 0.284306 0.317717 -0.001551
C14   C     C_R   0.734740 0.410937 0.276604 -0.172970
C15   C     C_R   0.780013 0.396140 0.206193 -0.141535
C16   C     C_R   0.780820 0.376070 0.404235 0.532569
C17   C     C_3   0.149295 0.130501 0.261547 -0.279178
C18   C     C_3   0.098306 0.143491 0.337739 -0.274615
C19   C     C_R   0.833219 0.345447 0.332306 0.026930
C20   C     C_R   0.375901 0.807585 0.168373 -0.008321
C21   C     C_R   0.443843 0.849563 0.219002 -0.006154
C22   C     C_R   0.443276 0.820072 0.291404 0.021393
C23   C     C_R   0.346685 0.310376 0.169919 -0.003775
C24   C     C_R   0.321202 0.696169 0.264134 -0.137042
C25   C     C_R   0.319482 0.725612 0.191801 -0.133542
C26   C     C_3   0.599522 0.797338 0.227102 -0.287430
C27   C     C_3   0.591708 0.777811 0.305207 -0.251279
C28   C     C_R   0.348436 0.760742 0.607072 0.553641
C29   C     C_R   0.379535 0.746789 0.314758 -0.000506
C30   C     C_R   0.299957 0.308662 0.809141 0.021267
C31   C     C_R   0.375193 0.188427 0.765876 0.045058
C32   C     C_R   0.382374 0.197605 0.693362 0.015380
C33   C     C_R   0.221055 0.449416 0.702372 -0.163928
C34   C     C_R   0.460102 0.208551 0.281406 -0.160576
C35   C     C_R   0.213927 0.439010 0.776367 -0.179838
C36   C     C_3   0.524773 0.070040 0.771588 -0.263967
C37   C     C_3   0.531888 0.076587 0.691340 -0.275093
C38   C     C_R   0.316300 0.329835 0.661414 0.015435
C39   C     C_R   0.801702 0.344080 0.838052 0.016455
C40   C     C_R   0.368754 0.350588 0.595222 0.550813
C41   C     C_R   0.775796 0.466372 0.801725 0.031853
C42   C     C_R   0.767800 0.471126 0.728854 0.038676
C43   C     C_R   0.778557 0.247850 0.724272 -0.162692
C44   C     C_R   0.786705 0.241865 0.799380 -0.173334
C45   C     C_R   0.469451 0.208471 0.207688 -0.022474
C46   C     C_3   0.851928 0.548230 0.802143 -0.264891
C47   C     C_3   0.843382 0.550253 0.721787 -0.282820
C48   C     C_R   0.781437 0.358160 0.688439 0.019869
C49   C     C_R   0.317487 0.810516 0.832541 0.018190
C50   C     C_R   0.217374 0.795627 0.792492 0.018589
C51   C     C_R   0.227098 0.783486 0.719218 0.032165
C52   C     C_R   0.757565 0.379867 0.612108 0.545051
C53   C     C_R   0.449634 0.774437 0.724318 -0.154342
C54   C     C_R   0.442226 0.782355 0.798801 -0.152568
C55   C     C_3   0.060420 0.888373 0.788734 -0.271954
C56   C     C_R   0.053907 0.499400 0.385945 -0.095508
C57   C     C_3   0.071602 0.873729 0.708282 -0.279629
C58   C     C_R   0.335719 0.786756 0.683552 0.017413
C59   C     C_R   0.971766 0.291168 0.118300 0.549279
C60   C     C_R   0.327167 0.290830 0.094500 0.545948
C61   C     C_R   0.312214 0.892769 0.103706 0.528904
C62   C     C_R   0.877925 0.312261 0.906088 0.552024
C63   C     C_R   0.294517 0.287124 0.884691 0.551915
C64   C     C_R   0.899963 0.936415 0.134742 -0.004444
C65   C     C_R   0.278025 0.888845 0.899618 0.546071
C66   C     C_R   0.866906 0.038369 0.187876 -0.056161
C67   C     C_R   0.946290 0.606406 0.426802 -0.097758
C68   C     C_R   0.726958 0.127698 0.208200 -0.127266
C69   C     C_R   0.655235 0.003478 0.127337 -0.079487
C70   C     C_R   0.794248 0.918003 0.104935 -0.124516
Cr1   Cr    Cr6+3 0.601740 0.606840 0.505840 0.987311
Cr2   Cr    Cr6+3 0.291500 0.601560 0.495070 1.009247
Cr3   Cr    Cr6+3 0.606780 0.291630 0.499130 0.996360
Cr4   Cr    Cr6+3 0.062440 0.063060 0.008240 1.000644
Cr5   Cr    Cr6+3 0.062950 0.375000 0.998920 1.003405
Cr6   Cr    Cr6+3 0.374550 0.061770 0.992470 0.992478
F1    F     F_    0.042712 0.705035 0.231068 -0.713206
H1    H     H_    0.552057 0.128698 0.310061 0.139102
H2    H     H_    0.279347 0.631824 0.280886 0.182243
H3    H     H_    0.820994 0.832264 0.067321 0.102143
H4    H     H_    0.266094 0.691582 0.154547 0.167750
H5    H     H_    0.626509 0.879164 0.222033 0.147483
H6    H     H_    0.668175 0.697658 0.197110 0.157466
H7    H     H_    0.659943 0.667350 0.322330 0.183017
H8    H     H_    0.598694 0.857746 0.339371 0.136352
H9    H     H_    0.163589 0.553257 0.678895 0.140598
H10   H     H_    0.148255 0.533170 0.807900 0.120427
H11   H     H_    0.533844 0.971044 0.790091 0.139738
H12   H     H_    0.787627 0.826775 0.433041 0.106152
H13   H     H_    0.593659 0.101527 0.800556 0.138714
H14   H     H_    0.610016 0.105267 0.674909 0.159882
H15   H     H_    0.921700 0.582543 0.478558 0.135852
H16   H     H_    0.540776 0.982615 0.663213 0.128704
H17   H     H_    0.777028 0.163713 0.694481 0.121958
H18   H     H_    0.794630 0.151735 0.826149 0.116738
H19   H     H_    0.962618 0.486583 0.821147 0.179530
H20   H     H_    0.788660 0.654828 0.827007 0.119726
H21   H     H_    0.776982 0.657892 0.699920 0.129726
H22   H     H_    0.947561 0.485718 0.695646 0.143862
H23   H     H_    0.842957 0.881479 0.314659 0.127282
H24   H     H_    0.541381 0.764103 0.698658 0.128668
H25   H     H_    0.527047 0.781471 0.829204 0.120045
H26   H     H_    0.026639 0.996718 0.807781 0.167286
H27   H     H_    0.008182 0.865314 0.119791 0.175192
H28   H     H_    0.004740 0.838446 0.812469 0.128181
H29   H     H_    0.023911 0.813615 0.685298 0.131131
H30   H     H_    0.041384 0.974257 0.680875 0.139864
H31   H     H_    0.949788 0.045791 0.214904 0.129192
H32   H     H_    0.705167 0.200787 0.251766 0.126926
H33   H     H_    0.111100 0.393830 0.407443 0.103976
H34   H     H_    0.622568 0.468669 0.287364 0.111072
H35   H     H_    0.583223 0.969201 0.110858 0.170556
H36   H     H_    0.127863 0.478055 0.179196 0.202495
H37   H     H_    0.702506 0.440879 0.163440 0.138555
H38   H     H_    0.247559 0.134570 0.257760 0.154594
H39   H     H_    0.149849 0.043706 0.230612 0.149558
H40   H     H_    0.065921 0.065700 0.350460 0.159214
H41   H     H_    0.169527 0.151616 0.377785 0.137475
O1    O     O_R   0.748670 0.497520 0.427970 -0.537505
O2    O     O_R   0.417470 0.174910 0.067830 -0.528048
O3    O     O_R   0.375160 0.946380 0.070880 -0.515360
O4    O     O_R   0.476470 0.723930 0.429450 -0.500919
O5    O     O_R   0.160500 0.919670 0.926690 -0.521761
O6    O     O_R   0.933140 0.190380 0.936050 -0.498912
O7    O     O_R   0.909010 0.403210 0.925030 -0.525595
O8    O     O_R   0.179590 0.361290 0.918480 -0.511987
O9    O     O_R   0.391360 0.170840 0.907510 -0.516942
O10   O     O_R   0.350950 0.942600 0.922260 -0.506871
O11   O     O_3   0.166650 0.166610 0.999880 -0.259400
O12   O     O_R   0.300170 0.471020 0.567120 -0.512024
O13   O     O_R   0.264730 0.744140 0.416740 -0.506949
O14   O     O_R   0.309440 0.472410 0.418220 -0.513459
O15   O     O_R   0.501630 0.260530 0.414310 -0.529423
O16   O     O_R   0.727920 0.305730 0.428950 -0.502064
O17   O     O_R   0.738670 0.496020 0.588600 -0.526625
O18   O     O_R   0.467190 0.722540 0.578350 -0.505049
O19   O     O_R   0.254720 0.742640 0.577370 -0.514212
O20   O     O_R   0.491630 0.259030 0.574940 -0.524240
O21   O     O_R   0.718640 0.304340 0.577850 -0.506568
O22   O     O_3   0.500010 0.500010 0.500020 -0.263101
O23   O     O_R   0.186620 0.923750 0.087000 -0.546425
O24   O     O_R   0.957350 0.194160 0.084660 -0.495623
O25   O     O_R   0.935120 0.407280 0.085350 -0.519177
O26   O     O_R   0.203800 0.365060 0.067090 -0.519716

loop_
_geom_bond_atom_site_label_1
_geom_bond_atom_site_label_2
_ccdc_geom_bond_type
C66   C68   A    
C12   C69   A    
C26   H6    S    
C23   C45   A    
C22   C29   A    
C41   C42   A    
Cr1   O4    S    
Cr4   O6    S    
C5    C67   A    
C16   O16   A    
C8    C56   A    
C62   O6    A    
C7    C8    A    
C4    O14   A    
C53   C54   A    
C36   H11   S    
C12   C68   A    
C26   C27   S    
Cr6   O2    S    
C47   H21   S    
C49   C65   S    
C13   C18   S    
C55   H28   S    
C63   O9    A    
Cr6   O3    S    
C36   C37   S    
C10   C15   A    
C31   C36   S    
Cr1   O17   S    
C30   C31   A    
C69   H35   S    
C20   C25   A    
C49   C54   A    
C55   H26   S    
C52   O21   A    
C47   H22   S    
C61   O3    A    
Cr4   O23   S    
C20   C61   S    
C27   H8    S    
C1    O4    A    
C33   C35   A    
C24   C29   A    
C35   H10   S    
C11   C17   S    
C59   O24   A    
C53   H24   S    
C40   O20   A    
C41   C46   S    
C60   O2    A    
C51   C57   S    
C64   C70   A    
C43   C48   A    
C18   H41   S    
C7    F1    S    
C57   H29   S    
Cr4   O24   S    
C59   O25   A    
C26   H5    S    
C21   C22   A    
C25   H4    S    
C23   C60   S    
C56   H33   S    
C21   C26   S    
Cr2   O14   S    
C14   H34   S    
C37   H14   S    
C70   H3    S    
C65   O10   A    
C24   C25   A    
C39   C41   A    
C3    C8    S    
Cr5   O26   S    
C16   O1    A    
Cr1   O18   S    
C51   C58   A    
C13   C19   A    
Cr3   O21   S    
C50   C51   A    
Cr5   O7    S    
C6    H23   S    
C43   C44   A    
C3    C9    A    
Cr6   O11   S    
C24   H2    S    
C31   C32   A    
Cr2   O22   S    
C1    C29   S    
C17   C18   S    
C15   H37   S    
C37   H16   S    
C34   C45   A    
C42   C48   A    
C32   C37   S    
Cr3   O16   S    
C18   H40   S    
C39   C44   A    
Cr5   O25   S    
C30   C35   A    
C61   O23   A    
Cr2   O19   S    
C57   H30   S    
C46   H20   S    
Cr3   O15   S    
C32   C38   A    
C22   C27   S    
C55   C57   S    
C9    C34   A    
Cr6   O10   S    
C52   O17   A    
C17   H38   S    
Cr2   O13   S    
C36   H13   S    
C64   H27   S    
C39   C62   S    
C40   O12   A    
C46   C47   S    
C27   H7    S    
Cr1   O22   S    
C68   H32   S    
C28   O18   A    
C14   C19   A    
C54   H25   S    
C28   O19   A    
C50   C55   S    
C66   H31   S    
C12   C45   S    
C1    O13   A    
C62   O7    A    
C53   C58   A    
Cr2   O12   S    
C6    C7    A    
Cr3   O22   S    
C28   C58   S    
C56   C67   A    
C43   H17   S    
C33   C38   A    
Cr1   O1    S    
Cr5   O8    S    
C2    C3    A    
C44   H18   S    
C34   H1    S    
C38   C40   S    
C11   C13   A    
C5    C6    A    
C16   C19   S    
C67   H15   S    
C2    H36   S    
Cr4   O5    S    
C42   C47   S    
C65   O5    A    
C69   C70   A    
C5    H12   S    
C63   O8    A    
C10   C11   A    
C48   C52   S    
C46   H19   S    
C20   C21   A    
C49   C50   A    
Cr3   O20   S    
Cr4   O11   S    
C2    C23   A    
Cr6   O9    S    
C14   C15   A    
C4    C9    S    
C30   C63   S    
C10   C59   S    
C33   H9    S    
C60   O26   A    
Cr5   O11   S    
C17   H39   S    
C64   C66   A    
C4    O15   A    
