data_mof_unit_pretest_1381.cif
_audit_creation_date              2012-12-11T14:41:07-0500
_audit_creation_method            fapswitch 2.2
_symmetry_space_group_name_H-M    P1
_symmetry_Int_Tables_number       1
_space_group_crystal_system       triclinic
_cell_length_a                    6.931962
_cell_length_b                    17.72662
_cell_length_c                    18.954792
_cell_angle_alpha                 90.0
_cell_angle_beta                  89.999983
_cell_angle_gamma                 90.13848
_cell_volume                      2329.16289473

loop_
_atom_site_label
_atom_site_type_symbol
_atom_type_description
_atom_site_fract_x
_atom_site_fract_y
_atom_site_fract_z
_atom_type_partial_charge
O1    O     O_R   0.377350 0.828520 0.186660 -0.535589
O2    O     O_R   0.622650 0.171480 0.813340 -0.535589
O3    O     O_R   0.122650 0.171480 0.686660 -0.535589
O4    O     O_R   0.877350 0.828520 0.313340 -0.535589
O5    O     O_R   0.877350 0.671480 0.313340 -0.530452
O6    O     O_R   0.122650 0.328520 0.686660 -0.530452
O7    O     O_R   0.622650 0.328520 0.813340 -0.530452
O8    O     O_R   0.377350 0.671480 0.186660 -0.530452
O9    O     O_R   0.707090 0.671930 0.178410 -0.534027
O10   O     O_R   0.292910 0.328070 0.821590 -0.534027
O11   O     O_R   0.792910 0.328070 0.678410 -0.534027
O12   O     O_R   0.207090 0.671930 0.321590 -0.534027
O13   O     O_R   0.207090 0.828070 0.321590 -0.543736
O14   O     O_R   0.792910 0.171930 0.678410 -0.543736
O15   O     O_R   0.292910 0.171930 0.821590 -0.543736
O16   O     O_R   0.707090 0.828070 0.178410 -0.543736
C1    C     C_R   0.539664 0.644138 0.162962 0.784318
C2    C     C_R   0.460336 0.355862 0.837038 0.784318
C3    C     C_R   0.960336 0.355862 0.662962 0.784318
C4    C     C_R   0.039664 0.644138 0.337038 0.784318
C5    C     C_R   0.040218 0.856088 0.336880 0.771998
C6    C     C_R   0.959782 0.143911 0.663120 0.771998
C7    C     C_R   0.459782 0.143911 0.836880 0.771998
C8    C     C_R   0.540218 0.856088 0.163120 0.771998
O17   O     O_3   0.543850 0.750000 0.294270 -0.375066
O18   O     O_3   0.456150 0.250000 0.705730 -0.375066
O19   O     O_3   0.956150 0.250000 0.794270 -0.375066
O20   O     O_3   0.043850 0.750000 0.205730 -0.375066
V1    V     V_3+5 0.818700 0.750000 0.241790 1.541487
V2    V     V_3+5 0.181300 0.250000 0.758210 1.541487
V3    V     V_3+5 0.681300 0.250000 0.741790 1.541487
V4    V     V_3+5 0.318700 0.750000 0.258210 1.541487
C9    C     C_R   0.960315 0.420424 0.612143 -0.064591
C10   C     C_R   0.039685 0.579576 0.387857 -0.064591
C11   C     C_R   0.539685 0.579576 0.112142 -0.064591
C12   C     C_R   0.460315 0.420424 0.887857 -0.064591
C13   C     C_R   0.457457 0.079507 0.888019 -0.064744
C14   C     C_R   0.542543 0.920493 0.111981 -0.064744
C15   C     C_R   0.042543 0.920493 0.388019 -0.064744
C16   C     C_R   0.957457 0.079507 0.611981 -0.064743
C17   C     C_R   0.203648 0.470354 0.440851 -0.045141
C18   C     C_R   0.796351 0.529646 0.559149 -0.045141
C19   C     C_R   0.296351 0.529646 0.940851 -0.045140
C20   C     C_R   0.703648 0.470354 0.059148 -0.045140
C21   C     C_R   0.714558 0.026085 0.055364 -0.082107
C22   C     C_R   0.285442 0.973915 0.944636 -0.082108
C23   C     C_R   0.785442 0.973915 0.555364 -0.082108
C24   C     C_R   0.214558 0.026085 0.444636 -0.082108
C25   C     C_R   0.181176 0.521861 0.384008 -0.063300
C26   C     C_R   0.818824 0.478139 0.615992 -0.063300
C27   C     C_R   0.318823 0.478139 0.884008 -0.063300
C28   C     C_R   0.681176 0.521861 0.115992 -0.063300
C29   C     C_R   0.695226 0.974209 0.112019 -0.092985
C30   C     C_R   0.304774 0.025791 0.887981 -0.092985
C31   C     C_R   0.804774 0.025791 0.612019 -0.092985
C32   C     C_R   0.195225 0.974209 0.387981 -0.092985
C33   C     C_R   0.913937 0.581112 0.445540 -0.199130
C34   C     C_R   0.086063 0.418888 0.554460 -0.199129
C35   C     C_R   0.586063 0.418888 0.945540 -0.199129
C36   C     C_R   0.413937 0.581112 0.054460 -0.199129
C37   C     C_R   0.404516 0.923341 0.058223 -0.223555
C38   C     C_R   0.595484 0.076659 0.941777 -0.223555
C39   C     C_R   0.095484 0.076659 0.558223 -0.223556
C40   C     C_R   0.904516 0.923341 0.441777 -0.223556
C41   C     C_R   0.925648 0.527504 0.500825 0.121731
C42   C     C_R   0.074352 0.472496 0.499175 0.121731
C43   C     C_R   0.574352 0.472496 0.000825 0.121731
C44   C     C_R   0.425648 0.527504 0.999175 0.121731
C45   C     C_R   0.421442 0.974198 0.000835 0.108059
C46   C     C_R   0.578558 0.025802 0.999165 0.108058
C47   C     C_R   0.078558 0.025802 0.500835 0.108059
C48   C     C_R   0.921442 0.974198 0.499165 0.108059
H1    H     H_    0.187318 0.372712 0.551944 0.163516
H2    H     H_    0.812682 0.627288 0.448056 0.163516
H3    H     H_    0.312682 0.627288 0.051943 0.163516
H4    H     H_    0.687318 0.372712 0.948056 0.163516
H5    H     H_    0.713058 0.116688 0.939136 0.161967
H6    H     H_    0.286942 0.883312 0.060864 0.161967
H7    H     H_    0.786942 0.883311 0.439137 0.161967
H8    H     H_    0.213058 0.116688 0.560863 0.161967
C49   C     C_2   0.690693 0.484699 0.678823 0.377166
H9    H     H_    0.543018 0.503685 0.672950 0.097792
O21   O     O_2   0.750743 0.471277 0.738022 -0.533227
C50   C     C_2   0.309306 0.515301 0.321177 0.377165
H10   H     H_    0.456982 0.496314 0.327050 0.097792
O22   O     O_2   0.249257 0.528723 0.261978 -0.533227
C51   C     C_2   0.809307 0.515301 0.178823 0.377166
H11   H     H_    0.956983 0.496315 0.172949 0.097792
O23   O     O_2   0.749257 0.528723 0.238022 -0.533227
C52   C     C_2   0.190693 0.484699 0.821177 0.377166
H12   H     H_    0.043017 0.503685 0.827050 0.097792
O24   O     O_2   0.250742 0.471277 0.761978 -0.533227
C53   C     C_2   0.171008 0.019905 0.826633 0.423107
H13   H     H_    0.020521 0.005389 0.834359 0.069167
O25   O     O_2   0.229739 0.028605 0.766456 -0.525575
C54   C     C_2   0.828992 0.980095 0.173366 0.423107
H14   H     H_    0.979479 0.994611 0.165641 0.069167
O26   O     O_2   0.770261 0.971394 0.233544 -0.525575
C55   C     C_2   0.328991 0.980095 0.326633 0.423107
H15   H     H_    0.479477 0.994612 0.334359 0.069167
O27   O     O_2   0.270260 0.971394 0.266456 -0.525575
C56   C     C_2   0.671009 0.019905 0.673367 0.423107
H16   H     H_    0.520522 0.005388 0.665641 0.069167
O28   O     O_2   0.729740 0.028605 0.733544 -0.525575
C57   C     C_2   0.363199 0.414357 0.437941 0.373513
H17   H     H_    0.386478 0.381515 0.390400 0.063225
O29   O     O_2   0.475153 0.407244 0.487218 -0.516545
C58   C     C_2   0.636801 0.585643 0.562058 0.373514
H18   H     H_    0.613522 0.618485 0.609600 0.063225
O30   O     O_2   0.524847 0.592755 0.512781 -0.516546
C59   C     C_2   0.136801 0.585643 0.937941 0.373513
H19   H     H_    0.113522 0.618485 0.890400 0.063225
O31   O     O_2   0.024847 0.592756 0.987219 -0.516546
C60   C     C_2   0.863199 0.414357 0.062058 0.373513
H20   H     H_    0.886478 0.381515 0.109600 0.063225
O32   O     O_2   0.975153 0.407244 0.012781 -0.516546
C61   C     C_2   0.876100 0.081429 0.056687 0.342338
H21   H     H_    0.023680 0.061931 0.061854 0.038892
O33   O     O_2   0.844482 0.149125 0.054712 -0.508505
C62   C     C_2   0.123900 0.918571 0.943312 0.342338
H22   H     H_    0.976321 0.938068 0.938146 0.038892
O34   O     O_2   0.155518 0.850875 0.945288 -0.508505
C63   C     C_2   0.623900 0.918571 0.556688 0.342338
H23   H     H_    0.476321 0.938068 0.561854 0.038892
O35   O     O_2   0.655518 0.850875 0.554712 -0.508505
C64   C     C_2   0.376100 0.081429 0.443312 0.342338
H24   H     H_    0.523679 0.061932 0.438146 0.038892
O36   O     O_2   0.344482 0.149125 0.445288 -0.508506

loop_
_geom_bond_atom_site_label_1
_geom_bond_atom_site_label_2
_ccdc_geom_bond_type
C51   H11   S    
C53   H13   S    
O7    C2    A    
C38   H5    S    
C59   H19   S    
O14   V3    S    
C12   C35   A    
C13   C38   A    
C63   H23   S    
O5    C4    A    
O6    C3    A    
C57   O29   D    
C31   C56   S    
O11   C3    A    
C9    C34   A    
C16   C39   A    
C17   C57   S    
C25   C50   S    
O20   V1    S    
C50   O22   D    
C61   O33   D    
C27   C52   S    
C63   O35   D    
C37   C45   A    
C58   H18   S    
C38   C46   A    
C30   C53   S    
O13   V4    S    
C35   C43   A    
C23   C63   S    
C34   C42   A    
C55   H15   S    
C19   C44   A    
C22   C45   A    
C54   O26   D    
C18   C41   A    
C8    C14   S    
O4    V1    S    
O9    V1    S    
C14   C37   A    
C4    C10   S    
C20   C28   A    
O17   V4    S    
O15   C7    A    
C21   C29   A    
O18   V3    S    
C53   O25   D    
O12   V4    S    
O19   V2    S    
C22   C30   A    
C45   C46   A    
C19   C59   S    
C17   C25   A    
C49   O21   D    
C62   O34   D    
C49   H9    S    
O5    V1    S    
C39   H8    S    
O17   V1    S    
O7    V3    S    
O19   V3    S    
C43   C44   A    
O8    V4    S    
O20   V4    S    
C50   H10   S    
C3    C9    S    
O16   V1    S    
C7    C13   S    
C24   C64   S    
O1    V4    S    
C11   C36   A    
C33   H2    S    
O3    V2    S    
C15   C40   A    
C10   C33   A    
O10   V2    S    
C52   O24   D    
C15   C32   A    
C5    C15   S    
C37   H6    S    
C16   C31   A    
C6    C16   S    
C54   H14   S    
O12   C4    A    
C22   C62   S    
C59   O31   D    
C56   O28   D    
C12   C27   A    
C18   C26   A    
C13   C30   A    
O9    C1    A    
O6    V2    S    
C39   C47   A    
O18   V2    S    
C51   O23   D    
C40   H7    S    
C24   C47   A    
O2    C7    A    
C62   H22   S    
O15   V2    S    
C23   C31   A    
C26   C49   S    
C21   C61   S    
C24   C32   A    
C10   C25   A    
C64   O36   D    
C55   O27   D    
C21   C46   A    
C28   C51   S    
C33   C41   A    
C20   C43   A    
C60   O32   D    
C60   H20   S    
C17   C42   A    
C57   H17   S    
C36   H3    S    
O8    C1    A    
O14   C6    A    
C9    C26   A    
C47   C48   A    
C61   H21   S    
O13   C5    A    
O4    C5    A    
C19   C27   A    
C52   H12   S    
C14   C29   A    
C2    C12   S    
O10   C2    A    
C64   H24   S    
C58   O30   D    
C40   C48   A    
C56   H16   S    
C20   C60   S    
C23   C48   A    
O11   V3    S    
C36   C44   A    
O1    C8    A    
O16   C8    A    
C41   C42   A    
C11   C28   A    
O2    V3    S    
O3    C6    A    
C1    C11   S    
C32   C55   S    
C18   C58   S    
C35   H4    S    
C34   H1    S    
C29   C54   S    
