data_mof_unit_pretest_803.cif
_audit_creation_date              2012-12-10T17:00:43-0500
_audit_creation_method            fapswitch 2.2
_symmetry_space_group_name_H-M    P1
_symmetry_Int_Tables_number       1
_space_group_crystal_system       triclinic
_cell_length_a                    27.775504
_cell_length_b                    10.931513
_cell_length_c                    9.683454
_cell_angle_alpha                 89.987081
_cell_angle_beta                  90.097821
_cell_angle_gamma                 90.116545
_cell_volume                      2940.160072

loop_
_atom_site_label
_atom_site_type_symbol
_atom_type_description
_atom_site_fract_x
_atom_site_fract_y
_atom_site_fract_z
_atom_type_partial_charge
C1    C     C_R   0.499362 0.265320 0.500062 0.854237
C2    C     C_R   0.278671 0.497800 0.625112 -0.102996
C3    C     C_R   0.253243 0.500745 0.500130 0.354032
C4    C     C_R   0.101445 0.502021 0.508287 -0.047978
C5    C     C_R   0.126300 0.401497 0.452415 -0.019679
C6    C     C_R   0.100112 0.303656 0.396723 -0.150811
C7    C     C_R   0.127488 0.603978 0.556572 -0.019053
C8    C     C_R   0.354349 0.499850 0.499817 -0.040314
C9    C     C_R   0.645642 0.500582 0.501024 -0.040132
C10   C     C_R   0.974508 0.387658 0.499236 0.009299
C11   C     C_R   0.974634 0.609861 0.545489 0.055877
C12   C     C_R   0.407412 0.499914 0.499895 0.799481
C13   C     C_R   0.949271 0.499090 0.519857 0.041442
C14   C     C_R   0.948154 0.275207 0.508968 0.076549
C15   C     C_R   0.897730 0.278541 0.500672 -0.180789
C16   C     C_R   0.872730 0.389464 0.501040 -0.048807
C17   C     C_R   0.898321 0.499654 0.516617 -0.049784
C18   C     C_R   0.872873 0.610442 0.529542 -0.010502
C19   C     C_R   0.822388 0.609022 0.523357 0.532715
C20   C     C_R   0.822194 0.392240 0.495234 0.544761
C21   C     C_R   0.721083 0.515086 0.627234 -0.105056
C22   C     C_R   0.670906 0.514485 0.626034 -0.209006
C23   C     C_R   0.500601 0.734689 0.500083 0.858142
C24   C     C_R   0.671571 0.487091 0.377352 -0.210114
C25   C     C_R   0.721818 0.487042 0.378992 -0.103189
C26   C     C_R   0.746654 0.501220 0.503889 0.360437
C27   C     C_R   0.024861 0.394395 0.475349 0.026609
C28   C     C_R   0.050479 0.501027 0.514402 0.065819
C29   C     C_R   0.025523 0.607287 0.556739 0.044564
C30   C     C_R   0.050087 0.301881 0.405070 -0.204268
C31   C     C_R   0.102598 0.705531 0.607579 -0.144647
C32   C     C_R   0.948195 0.719635 0.557424 -0.214776
C33   C     C_R   0.898236 0.719794 0.548701 -0.148180
C34   C     C_R   0.592586 0.500126 0.500170 0.804239
C35   C     C_R   0.052494 0.707707 0.606635 -0.216954
C36   C     C_2   0.498665 0.933046 0.386639 -0.147553
C37   C     C_2   0.503038 0.866680 0.502304 -0.308549
C38   C     C_2   0.500795 0.067010 0.386609 -0.148591
C39   C     C_2   0.496840 0.133348 0.502349 -0.310661
C40   C     C_2   0.471374 0.431604 0.921949 -0.062266
C41   C     C_2   0.472266 0.429223 0.077742 -0.068329
C42   C     C_R   0.176819 0.403227 0.449818 0.534420
C43   C     C_R   0.177989 0.601738 0.552511 0.533926
C44   C     C_R   0.278415 0.502962 0.374920 -0.099723
C45   C     C_R   0.328639 0.502449 0.374619 -0.215296
C46   C     C_R   0.328863 0.497385 0.625117 -0.213998
Cu1   Cu    Cu3+1 0.500010 0.500020 0.638630 0.949551
Cu2   Cu    Cu3+1 0.499990 0.499980 0.361370 0.947510
H1    H     H_    0.347644 0.495108 0.723194 0.158712
H2    H     H_    0.259006 0.505644 0.277883 0.143763
H3    H     H_    0.121740 0.784535 0.647250 0.186877
H4    H     H_    0.965374 0.807652 0.568851 0.137675
H5    H     H_    0.653090 0.476007 0.279571 0.160349
H6    H     H_    0.879545 0.806334 0.557503 0.184192
H7    H     H_    0.741492 0.476266 0.283329 0.138203
H8    H     H_    0.035642 0.787859 0.649326 0.142500
H9    H     H_    0.494099 0.888321 0.287287 0.168246
H10   H     H_    0.509530 0.907713 0.602263 0.149152
H11   H     H_    0.505034 0.111755 0.287163 0.168025
H12   H     H_    0.259454 0.495648 0.722302 0.142437
H13   H     H_    0.490619 0.092313 0.602408 0.148371
H14   H     H_    0.445637 0.372406 0.870347 0.150571
H15   H     H_    0.524837 0.552716 0.894061 0.192502
H16   H     H_    0.448217 0.365593 0.129116 0.151817
H17   H     H_    0.521457 0.561488 0.106119 0.193002
H18   H     H_    0.118092 0.228985 0.344581 0.186702
H19   H     H_    0.651957 0.525304 0.722904 0.159299
H20   H     H_    0.740179 0.525861 0.724083 0.137288
H21   H     H_    0.877667 0.193413 0.501638 0.185024
H22   H     H_    0.031369 0.231741 0.348157 0.145368
H23   H     H_    0.347268 0.504418 0.276478 0.159640
N1    N     N_R   0.201570 0.501938 0.500660 -0.468103
N2    N     N_R   0.798231 0.500980 0.506002 -0.469777
N3    N     N_2   0.499480 0.498660 0.846910 -0.279960
N4    N     N_2   0.499460 0.498630 0.153040 -0.282124
O1    O     O_R   0.500010 0.321960 0.617040 -0.576331
O2    O     O_2   0.797142 0.287119 0.480456 -0.531548
O3    O     O_2   0.203351 0.698876 0.598886 -0.535881
O4    O     O_2   0.797595 0.714607 0.534464 -0.532226
O5    O     O_R   0.499990 0.321920 0.382900 -0.574493
O6    O     O_R   0.430270 0.500040 0.617060 -0.579872
O7    O     O_R   0.430260 0.500000 0.382910 -0.579286
O8    O     O_R   0.500010 0.678080 0.617100 -0.576877
O9    O     O_R   0.499990 0.678040 0.382960 -0.575804
O10   O     O_R   0.569740 0.500000 0.617090 -0.580941
O11   O     O_R   0.569730 0.499960 0.382940 -0.579215
O12   O     O_2   0.201031 0.306507 0.398512 -0.537836
C47   C     C_3   0.970369 0.154182 0.555570 -0.405406
C48   C     C_3   0.995995 0.167349 0.695559 -0.311808
C49   C     C_3   0.016968 0.045663 0.743521 -0.856302
H24   H     H_    0.988013 0.976113 0.754463 0.248859
H25   H     H_    0.044164 0.012858 0.668236 0.254007
H26   H     H_    0.034801 0.057907 0.845304 0.251261
H27   H     H_    0.025815 0.234758 0.688627 0.232852
H28   H     H_    0.969932 0.200360 0.774146 0.223369
H29   H     H_    0.941768 0.083717 0.568682 0.190517
H30   H     H_    0.994553 0.113653 0.478059 0.191600

loop_
_geom_bond_atom_site_label_1
_geom_bond_atom_site_label_2
_ccdc_geom_bond_type
C10   C27   A    
C21   C26   A    
C47   H29   S    
C43   N1    A    
C45   H23   S    
C5    C42   A    
C2    C46   A    
C43   O3    S    
C46   H1    S    
C23   O8    A    
C20   O2    S    
Cu1   O10   S    
C28   C29   A    
Cu1   O1    S    
C5    C6    A    
C2    H12   S    
C9    C22   A    
C15   C16   A    
C26   N2    S    
C40   H14   S    
C18   C19   A    
C34   O11   A    
C48   H27   S    
C8    C45   A    
C32   H4    S    
C30   H22   S    
C40   N3    D    
C16   C17   A    
C12   O6    A    
C7    C43   A    
C37   H10   S    
C16   C20   A    
C21   C22   A    
C27   C30   A    
Cu2   N4    S    
C4    C7    A    
C39   H13   S    
C4    C28   A    
C15   H21   S    
C3    C44   A    
C7    C31   A    
C23   O9    A    
C25   H7    S    
C19   N2    A    
C24   C25   A    
C36   H9    S    
C10   C14   A    
C24   H5    S    
C23   C37   S    
Cu2   O9    S    
C34   O10   A    
C48   H28   S    
C41   N4    D    
C49   H25   S    
Cu1   Cu2   S    
C8    C12   S    
C42   N1    A    
C17   C18   A    
C12   O7    A    
C19   O4    S    
C40   C41   S    
C6    C30   A    
C11   C32   A    
Cu1   O8    S    
C21   H20   S    
C9    C34   S    
C31   C35   A    
C44   C45   A    
C49   H26   S    
C44   H2    S    
C33   H6    S    
C36   C37   D    
C35   H8    S    
C1    O1    A    
C47   H30   S    
Cu1   N3    S    
C31   H3    S    
C4    C5    A    
C10   C13   A    
C9    C24   A    
H15   N3    S    
C29   C35   A    
H17   N4    S    
C13   C17   A    
C32   C33   A    
Cu2   O5    S    
C36   C38   S    
C2    C3    A    
C25   C26   A    
C14   C47   S    
C11   C13   A    
C49   H24   S    
C38   C39   D    
Cu2   O7    S    
C20   N2    A    
C3    N1    S    
Cu2   O11   S    
Cu1   O6    S    
C18   C33   A    
C8    C46   A    
C22   H19   S    
C1    C39   S    
C38   H11   S    
C6    H18   S    
C47   C48   S    
C11   C29   A    
C27   C28   A    
C1    O5    A    
C14   C15   A    
C42   O12   S    
C41   H16   S    
C48   C49   S    
