data_mof_unit_pretest_1715.cif
_audit_creation_date              2012-12-10T20:14:22-0500
_audit_creation_method            fapswitch 2.2
_symmetry_space_group_name_H-M    P1
_symmetry_Int_Tables_number       1
_space_group_crystal_system       triclinic
_cell_length_a                    35.489111
_cell_length_b                    35.451352
_cell_length_c                    21.602659
_cell_angle_alpha                 89.482619
_cell_angle_beta                  89.175356
_cell_angle_gamma                 89.986833
_cell_volume                      27175.1806935

loop_
_atom_site_label
_atom_site_type_symbol
_atom_type_description
_atom_site_fract_x
_atom_site_fract_y
_atom_site_fract_z
_atom_type_partial_charge
C1    C     C_R   0.073597 0.499995 0.499853 0.882170
C2    C     C_R   0.500003 0.926739 0.499973 0.916347
C3    C     C_R   0.926703 0.500004 0.499905 0.982081
C4    C     C_R   0.499996 0.073276 0.500059 0.979572
C5    C     C_R   0.573398 0.999972 0.000085 0.907987
C6    C     C_R   0.000018 0.426603 0.999835 0.903466
C7    C     C_R   0.426601 0.999981 0.999909 0.908556
C8    C     C_R   0.000001 0.573399 0.000199 0.904859
C9    C     C_R   0.307268 0.498852 0.502762 0.146870
C10   C     C_R   0.499698 0.693337 0.498526 0.146234
C11   C     C_R   0.693295 0.499981 0.497241 0.146192
C12   C     C_R   0.500008 0.306698 0.501760 0.146633
C13   C     C_R   0.806873 0.000042 0.002535 0.139609
C14   C     C_R   0.999977 0.193098 0.998034 0.139464
C15   C     C_R   0.193124 0.000121 0.997451 0.139523
C16   C     C_R   0.999879 0.806906 0.002097 0.139356
C17   C     C_1   0.267371 0.498693 0.503303 -0.047406
C18   C     C_1   0.499642 0.733442 0.498284 -0.046200
C19   C     C_1   0.733395 0.499944 0.496682 -0.047231
C20   C     C_1   0.500032 0.266605 0.502122 -0.047408
C21   C     C_1   0.766836 0.000036 0.002984 -0.038177
C22   C     C_1   0.999956 0.233114 0.997586 -0.037528
C23   C     C_1   0.233160 0.000130 0.996995 -0.037794
C24   C     C_1   0.999824 0.766891 0.002608 -0.037121
C25   C     C_1   0.233796 0.498732 0.503188 0.009039
C26   C     C_1   0.499635 0.767154 0.498383 0.008495
C27   C     C_1   0.767092 0.499902 0.496737 0.008069
C28   C     C_1   0.500060 0.232900 0.502089 0.007710
C29   C     C_1   0.733180 0.000019 0.002819 0.028962
C30   C     C_1   0.999935 0.266771 0.997569 0.030016
C31   C     C_1   0.266816 0.000116 0.997151 0.028994
C32   C     C_1   0.999782 0.733234 0.002682 0.030520
C33   C     C_R   0.174468 0.529646 0.526607 -0.166736
C34   C     C_R   0.517191 0.827105 0.450248 -0.157421
C35   C     C_R   0.825892 0.480352 0.544152 -0.162376
C36   C     C_R   0.480592 0.172906 0.548017 -0.161376
C37   C     C_R   0.827359 0.519395 0.451384 -0.161572
C38   C     C_R   0.482344 0.826307 0.547697 -0.158191
C39   C     C_R   0.174788 0.468902 0.476852 -0.167256
C40   C     C_R   0.519563 0.173837 0.454837 -0.161883
C41   C     C_R   0.674329 0.025329 0.963855 -0.183502
C42   C     C_R   0.026355 0.326504 0.962161 -0.147044
C43   C     C_R   0.326764 0.974798 0.960794 -0.138771
C44   C     C_R   0.974079 0.674247 0.965742 -0.176430
C45   C     C_R   0.325662 0.025057 0.035984 -0.182963
C46   C     C_R   0.973708 0.325776 0.034748 -0.176434
C47   C     C_R   0.673233 0.974379 0.039297 -0.139676
C48   C     C_R   0.025664 0.673489 0.037923 -0.144599
C49   C     C_R   0.135321 0.530504 0.525724 0.241461
C50   C     C_R   0.517472 0.866376 0.450375 0.222632
C51   C     C_R   0.865120 0.480276 0.545348 0.228888
C52   C     C_R   0.480392 0.133634 0.547789 0.228704
C53   C     C_R   0.866604 0.519619 0.451923 0.229438
C54   C     C_R   0.482359 0.865577 0.548455 0.223660
C55   C     C_R   0.135645 0.468998 0.475236 0.243812
C56   C     C_R   0.519664 0.134575 0.453950 0.228341
C57   C     C_R   0.635135 0.025455 0.962633 0.245047
C58   C     C_R   0.026715 0.365735 0.962482 0.233961
C59   C     C_R   0.365969 0.974450 0.961224 0.226265
C60   C     C_R   0.973992 0.635034 0.964531 0.242050
C61   C     C_R   0.364856 0.025152 0.037219 0.244699
C62   C     C_R   0.973579 0.364991 0.035895 0.243089
C63   C     C_R   0.634026 0.974056 0.038881 0.226779
C64   C     C_R   0.026054 0.634258 0.037543 0.232359
C65   C     C_R   0.115120 0.499897 0.500144 -0.187888
C66   C     C_R   0.499988 0.885771 0.499637 -0.160468
C67   C     C_R   0.885693 0.500007 0.499108 -0.189263
C68   C     C_R   0.499990 0.114281 0.500567 -0.186627
C69   C     C_R   0.614567 0.999861 0.000592 -0.141838
C70   C     C_R   0.000070 0.385406 0.999325 -0.141444
C71   C     C_R   0.385429 0.999894 0.999395 -0.143112
C72   C     C_R   0.999993 0.614600 0.000813 -0.143587
C73   C     C_R   0.193898 0.498999 0.502496 0.028418
C74   C     C_R   0.499687 0.807259 0.498741 0.029876
C75   C     C_R   0.807185 0.499839 0.497346 0.032888
C76   C     C_R   0.500100 0.192807 0.501698 0.032532
C77   C     C_R   0.693157 0.999984 0.002141 0.008500
C78   C     C_R   0.999913 0.306780 0.997967 0.001762
C79   C     C_R   0.306838 0.000070 0.997820 0.009018
C80   C     C_R   0.999747 0.693226 0.002322 0.003151
C81   C     C_R   0.499989 0.573331 0.499753 0.872842
C82   C     C_R   0.573329 0.500001 0.499594 0.872357
C83   C     C_R   0.499998 0.426675 0.500255 0.872566
C84   C     C_R   0.426760 0.499953 0.500405 0.874459
C85   C     C_R   0.000001 0.073293 0.999739 0.873611
C86   C     C_R   0.073302 0.000006 0.999600 0.873190
C87   C     C_R   0.999999 0.926708 0.000264 0.873926
C88   C     C_R   0.926697 0.000002 0.000400 0.872896
C89   C     C_R   0.005112 0.500384 0.379729 0.889133
C90   C     C_R   0.500610 0.995068 0.379927 0.901973
C91   C     C_R   0.005362 0.499649 0.619936 0.889153
C92   C     C_R   0.499391 0.995165 0.620252 0.902228
C93   C     C_R   0.501157 0.000147 0.879924 0.856659
C94   C     C_R   0.000244 0.500604 0.879979 0.853173
C95   C     C_R   0.498864 0.999844 0.120085 0.856491
C96   C     C_R   0.999759 0.499219 0.120003 0.853602
C97   C     C_R   0.012048 0.572117 0.304167 -0.159590
C98   C     C_R   0.572963 0.990963 0.304086 -0.129252
C99   C     C_R   0.036610 0.435881 0.309137 -0.162322
C100  C     C_R   0.439203 0.958161 0.312073 -0.165299
C101  C     C_R   0.036353 0.564674 0.688951 -0.161776
C102  C     C_R   0.427092 0.991816 0.696445 -0.129724
C103  C     C_R   0.014404 0.428052 0.694571 -0.162876
C104  C     C_R   0.560778 0.958503 0.689428 -0.165347
C105  C     C_R   0.433804 0.017678 0.816226 -0.176330
C106  C     C_R   0.020084 0.567793 0.814712 -0.167461
C107  C     C_R   0.566995 0.977398 0.813274 -0.171290
C108  C     C_R   0.987510 0.432497 0.815192 -0.175566
C109  C     C_R   0.566489 0.016375 0.183243 -0.175641
C110  C     C_R   0.984789 0.566902 0.185182 -0.176634
C111  C     C_R   0.433183 0.976493 0.187404 -0.171320
C112  C     C_R   0.019151 0.432040 0.184657 -0.167793
C113  C     C_R   0.000453 0.605075 0.273527 -0.063357
C114  C     C_R   0.605345 0.003432 0.272098 -0.072469
C115  C     C_R   0.042975 0.402101 0.277438 -0.083340
C116  C     C_R   0.405831 0.949420 0.281313 -0.078286
C117  C     C_R   0.042549 0.598422 0.720542 -0.083703
C118  C     C_R   0.394795 0.004541 0.728030 -0.070743
C119  C     C_R   0.003472 0.394824 0.725607 -0.065077
C120  C     C_R   0.594174 0.949835 0.720430 -0.078095
C121  C     C_R   0.398264 0.018193 0.788903 -0.033341
C122  C     C_R   0.033588 0.600188 0.784292 -0.053065
C123  C     C_R   0.597841 0.960797 0.782840 -0.053424
C124  C     C_R   0.989088 0.397147 0.786798 -0.032226
C125  C     C_R   0.601989 0.016892 0.210691 -0.033757
C126  C     C_R   0.985969 0.602368 0.213143 -0.032104
C127  C     C_R   0.402257 0.960115 0.218433 -0.053336
C128  C     C_R   0.033373 0.399945 0.214414 -0.053608
C129  C     C_R   0.996476 0.533755 0.216583 0.063801
C130  C     C_R   0.533874 0.003815 0.215939 0.059807
C131  C     C_R   0.012982 0.466215 0.216702 0.062632
C132  C     C_R   0.467235 0.984156 0.218140 0.059203
C133  C     C_R   0.014060 0.533665 0.782754 0.062365
C134  C     C_R   0.466336 0.004877 0.783929 0.060453
C135  C     C_R   0.998575 0.465901 0.783404 0.063089
C136  C     C_R   0.532919 0.985005 0.782329 0.059624
C137  C     C_R   0.463610 0.995089 0.721580 0.091359
C138  C     C_R   0.020723 0.532471 0.718710 0.064641
C139  C     C_R   0.530658 0.977638 0.718952 0.070453
C140  C     C_R   0.008582 0.464124 0.720693 0.084342
C141  C     C_R   0.536492 0.994279 0.278693 0.091132
C142  C     C_R   0.006765 0.535852 0.278660 0.087038
C143  C     C_R   0.469402 0.977078 0.281844 0.071493
C144  C     C_R   0.020146 0.467703 0.280224 0.063815
C145  C     C_R   0.999981 0.498964 0.186162 -0.130218
C146  C     C_R   0.499145 0.998758 0.186334 -0.129392
C147  C     C_R   0.001533 0.500705 0.813801 -0.129887
C148  C     C_R   0.501048 0.999714 0.813681 -0.129751
C149  C     C_R   0.497450 0.987689 0.687318 -0.175818
C150  C     C_R   0.013263 0.498500 0.686717 -0.202662
C151  C     C_R   0.502580 0.987237 0.313173 -0.174566
C152  C     C_R   0.012413 0.501622 0.312466 -0.201175
C153  C     C_R   0.326527 0.499140 0.558603 -0.144679
C154  C     C_R   0.499601 0.673729 0.554854 -0.144184
C155  C     C_R   0.673691 0.499940 0.553741 -0.144678
C156  C     C_R   0.499955 0.326120 0.557692 -0.144547
C157  C     C_R   0.673910 0.500037 0.441444 -0.144068
C158  C     C_R   0.499905 0.673959 0.442539 -0.143639
C159  C     C_R   0.326752 0.498969 0.446222 -0.145127
C160  C     C_R   0.500052 0.326247 0.445377 -0.144842
C161  C     C_R   0.826177 0.999925 0.058392 -0.136880
C162  C     C_R   0.999880 0.173634 0.054474 -0.140606
C163  C     C_R   0.173519 0.000230 0.053919 -0.141316
C164  C     C_R   0.000044 0.826344 0.057975 -0.137685
C165  C     C_R   0.173819 0.999972 0.941600 -0.136486
C166  C     C_R   0.000090 0.173683 0.942124 -0.138071
C167  C     C_R   0.826481 0.000147 0.946066 -0.141741
C168  C     C_R   0.999768 0.826345 0.945637 -0.140067
C169  C     C_R   0.365686 0.499539 0.557948 -0.186117
C170  C     C_R   0.499711 0.634486 0.555300 -0.184009
C171  C     C_R   0.634476 0.499953 0.554555 -0.184113
C172  C     C_R   0.499951 0.365376 0.557299 -0.185043
C173  C     C_R   0.634670 0.500045 0.442102 -0.184769
C174  C     C_R   0.500009 0.634696 0.442827 -0.184617
C175  C     C_R   0.365885 0.499373 0.445399 -0.185532
C176  C     C_R   0.500043 0.365487 0.444824 -0.184661
C177  C     C_R   0.865396 0.999913 0.057819 -0.183863
C178  C     C_R   0.999892 0.134419 0.055105 -0.182481
C179  C     C_R   0.134331 0.000188 0.054657 -0.181155
C180  C     C_R   0.000091 0.865567 0.057458 -0.183293
C181  C     C_R   0.134600 0.999932 0.942178 -0.183451
C182  C     C_R   0.000099 0.134458 0.942592 -0.183705
C183  C     C_R   0.865669 0.000133 0.945333 -0.181540
C184  C     C_R   0.999818 0.865560 0.944957 -0.182141
C185  C     C_R   0.385614 0.499664 0.501289 -0.046286
C186  C     C_R   0.499914 0.614664 0.499258 -0.048162
C187  C     C_R   0.614649 0.500001 0.498712 -0.048107
C188  C     C_R   0.499997 0.385353 0.500816 -0.047681
C189  C     C_R   0.885428 0.000015 0.001233 -0.049170
C190  C     C_R   0.999999 0.114552 0.999132 -0.048900
C191  C     C_R   0.114570 0.000038 0.998763 -0.049312
C192  C     C_R   0.999975 0.885450 0.000901 -0.049047
H1    H     H_    0.026407 0.575581 0.347422 0.201866
H2    H     H_    0.577223 0.977263 0.348177 0.220846
H3    H     H_    0.047081 0.437679 0.355633 0.213211
H4    H     H_    0.442340 0.947744 0.358942 0.192777
H5    H     H_    0.046342 0.563253 0.641692 0.215555
H6    H     H_    0.422715 0.977924 0.652961 0.219224
H7    H     H_    0.028548 0.425032 0.650338 0.202052
H8    H     H_    0.557558 0.947862 0.643025 0.192332
H9    H     H_    0.435497 0.026377 0.863935 0.177394
H10   H     H_    0.013688 0.569751 0.863705 0.163578
H11   H     H_    0.570100 0.985004 0.861349 0.167573
H12   H     H_    0.978370 0.433492 0.863141 0.171566
H13   H     H_    0.564899 0.024889 0.135176 0.176403
H14   H     H_    0.975508 0.565626 0.137772 0.173976
H15   H     H_    0.430149 0.983879 0.139004 0.168105
H16   H     H_    0.012278 0.429820 0.136181 0.163140
H17   H     H_    0.311303 0.499090 0.602455 0.148050
H18   H     H_    0.499449 0.688760 0.598319 0.147349
H19   H     H_    0.688708 0.499892 0.597071 0.147100
H20   H     H_    0.499921 0.310943 0.601465 0.147117
H21   H     H_    0.689102 0.500068 0.397568 0.147177
H22   H     H_    0.499991 0.689177 0.398804 0.147393
H23   H     H_    0.311708 0.498783 0.402917 0.148073
H24   H     H_    0.500096 0.311170 0.401955 0.147099
H25   H     H_    0.810939 0.999840 0.102230 0.155917
H26   H     H_    0.999792 0.188753 0.097857 0.153874
H27   H     H_    0.188512 0.000342 0.097271 0.152754
H28   H     H_    0.000133 0.811206 0.101783 0.155999
H29   H     H_    0.189054 0.999881 0.897763 0.155970
H30   H     H_    0.000167 0.188841 0.898331 0.155969
H31   H     H_    0.811490 0.000236 0.902709 0.152651
H32   H     H_    0.999641 0.811205 0.902278 0.154069
H33   H     H_    0.380282 0.499749 0.601624 0.165315
H34   H     H_    0.499629 0.619733 0.599417 0.165344
H35   H     H_    0.619745 0.499916 0.598807 0.165184
H36   H     H_    0.499912 0.380017 0.601080 0.164839
H37   H     H_    0.620074 0.500085 0.398424 0.164691
H38   H     H_    0.500166 0.620092 0.399010 0.164946
H39   H     H_    0.380616 0.499447 0.401144 0.165832
H40   H     H_    0.500080 0.380204 0.400676 0.165150
H41   H     H_    0.879964 0.999821 0.101525 0.167148
H42   H     H_    0.999813 0.119729 0.099279 0.167424
H43   H     H_    0.119573 0.000275 0.098884 0.167394
H44   H     H_    0.000215 0.880251 0.101196 0.167573
H45   H     H_    0.120030 0.999815 0.898477 0.167259
H46   H     H_    0.000185 0.119790 0.898834 0.167464
H47   H     H_    0.880429 0.000215 0.901105 0.167288
H48   H     H_    0.999724 0.880234 0.900772 0.167527
H49   H     H_    0.189825 0.552967 0.546350 0.184242
H50   H     H_    0.530453 0.812092 0.412264 0.181853
H51   H     H_    0.810009 0.465414 0.579901 0.179575
H52   H     H_    0.465709 0.187879 0.584426 0.180214
H53   H     H_    0.812621 0.534303 0.415005 0.180090
H54   H     H_    0.468998 0.810670 0.585368 0.181597
H55   H     H_    0.190398 0.445367 0.457583 0.183833
H56   H     H_    0.534464 0.189535 0.418832 0.179896
H57   H     H_    0.690130 0.044795 0.934500 0.188401
H58   H     H_    0.046579 0.311384 0.933647 0.196136
H59   H     H_    0.311827 0.955518 0.931195 0.193730
H60   H     H_    0.954370 0.689952 0.937593 0.190207
H61   H     H_    0.309859 0.044258 0.065243 0.188544
H62   H     H_    0.953598 0.310084 0.063084 0.189571
H63   H     H_    0.688171 0.954822 0.068993 0.193793
H64   H     H_    0.045452 0.688598 0.066320 0.195480
O1    O     O_R   0.055450 0.468680 0.499980 -0.588907
O2    O     O_R   0.468680 0.944550 0.499980 -0.596696
O3    O     O_R   0.944550 0.531320 0.499980 -0.579014
O4    O     O_R   0.531320 0.055450 0.499980 -0.581547
O5    O     O_R   0.944550 0.468680 0.500020 -0.578905
O6    O     O_R   0.531320 0.944550 0.500020 -0.596330
O7    O     O_R   0.055450 0.531320 0.500020 -0.588539
O8    O     O_R   0.468680 0.055450 0.500020 -0.581600
O9    O     O_R   0.555450 0.968680 0.999980 -0.575592
O10   O     O_R   0.968680 0.444550 0.999980 -0.583535
O11   O     O_R   0.444550 0.031320 0.999980 -0.583980
O12   O     O_R   0.031320 0.555450 0.999980 -0.574704
O13   O     O_R   0.444550 0.968680 0.000020 -0.575634
O14   O     O_R   0.031320 0.444550 0.000020 -0.574778
O15   O     O_R   0.555450 0.031320 0.000020 -0.583950
O16   O     O_R   0.968680 0.555450 0.000020 -0.583362
O17   O     O_R   0.000010 0.468680 0.408370 -0.607218
O18   O     O_R   0.468680 0.999990 0.408370 -0.614636
O19   O     O_R   0.999990 0.531320 0.408370 -0.618571
O20   O     O_R   0.531320 0.000010 0.408370 -0.616091
O21   O     O_R   0.999990 0.468680 0.591630 -0.618301
O22   O     O_R   0.531320 0.999990 0.591630 -0.614667
O23   O     O_R   0.000010 0.531320 0.591630 -0.607628
O24   O     O_R   0.468680 0.000010 0.591630 -0.615606
O25   O     O_R   0.500010 0.968680 0.908370 -0.594531
O26   O     O_R   0.968680 0.499990 0.908370 -0.599759
O27   O     O_R   0.499990 0.031320 0.908370 -0.604632
O28   O     O_R   0.031320 0.500010 0.908370 -0.599281
O29   O     O_R   0.499990 0.968680 0.091630 -0.595899
O30   O     O_R   0.031320 0.499990 0.091630 -0.596785
O31   O     O_R   0.500010 0.031320 0.091630 -0.603032
O32   O     O_R   0.968680 0.500010 0.091630 -0.602663
O33   O     O_R   0.500050 0.555340 0.448290 -0.619391
O34   O     O_R   0.555340 0.499950 0.448290 -0.619463
O35   O     O_R   0.499950 0.444660 0.448290 -0.619534
O36   O     O_R   0.444660 0.500050 0.448290 -0.620097
O37   O     O_R   0.499950 0.555340 0.551710 -0.619382
O38   O     O_R   0.444660 0.499950 0.551710 -0.620365
O39   O     O_R   0.500050 0.444660 0.551710 -0.619677
O40   O     O_R   0.555340 0.500050 0.551710 -0.619215
O41   O     O_R   0.000050 0.055340 0.948290 -0.619275
O42   O     O_R   0.055340 0.999950 0.948290 -0.618904
O43   O     O_R   0.999950 0.944660 0.948290 -0.618950
O44   O     O_R   0.944660 0.000050 0.948290 -0.619029
O45   O     O_R   0.999950 0.055340 0.051710 -0.619087
O46   O     O_R   0.944660 0.999950 0.051710 -0.619001
O47   O     O_R   0.000050 0.944660 0.051710 -0.619214
O48   O     O_R   0.055340 0.000050 0.051710 -0.618938
Zn1   Zn    Zn3+2 1.000000 0.458180 0.500000 1.089343
Zn2   Zn    Zn3+2 0.458180 0.000000 0.500000 1.082005
Zn3   Zn    Zn3+2 1.000000 0.541820 0.500000 1.088983
Zn4   Zn    Zn3+2 0.541820 0.000000 0.500000 1.081638
Zn5   Zn    Zn3+2 0.500000 0.958180 0.000000 1.103884
Zn6   Zn    Zn3+2 0.958180 0.500000 0.000000 1.096264
Zn7   Zn    Zn3+2 0.500000 0.041820 0.000000 1.094960
Zn8   Zn    Zn3+2 0.041820 0.500000 0.000000 1.099080
Zn9   Zn    Zn3+2 0.500000 0.500000 0.430910 0.972172
Zn10  Zn    Zn3+2 0.500000 0.500000 0.569090 0.972097
Zn11  Zn    Zn3+2 1.000000 0.000000 0.930910 0.978770
Zn12  Zn    Zn3+2 0.000000 0.000000 0.069090 0.978716
C193  C     C_2   0.061207 0.370522 0.311246 0.997277
O49   O     O_2   0.084183 0.350266 0.285009 -0.573671
O50   O     O_R   0.052770 0.364621 0.374015 -0.761026
H65   H     H_    0.067179 0.342587 0.392311 0.368974
C194  C     C_2   0.376562 0.927411 0.315774 0.963717
O51   O     O_2   0.356687 0.904857 0.288859 -0.575214
O52   O     O_R   0.372762 0.931438 0.379916 -0.788639
H66   H     H_    0.352312 0.914663 0.398431 0.361346
C195  C     C_2   0.002527 0.641168 0.307665 0.978353
O53   O     O_2   0.977370 0.664568 0.303187 -0.565680
O54   O     O_R   0.032560 0.647643 0.347410 -0.786461
H67   H     H_    0.030624 0.672908 0.368847 0.361277
C196  C     C_2   0.641538 0.003215 0.305761 0.978996
O55   O     O_2   0.663945 0.029172 0.298927 -0.567306
O56   O     O_R   0.649237 0.974014 0.347668 -0.777068
H68   H     H_    0.674444 0.977208 0.368489 0.359526
C197  C     C_2   0.006036 0.358865 0.691063 0.976818
O57   O     O_2   0.981352 0.334984 0.696899 -0.566950
O58   O     O_R   0.035973 0.353062 0.649423 -0.786042
H69   H     H_    0.034399 0.327825 0.627905 0.361310
C198  C     C_2   0.623367 0.927625 0.686788 0.963512
O59   O     O_2   0.643271 0.905188 0.714578 -0.575466
O60   O     O_R   0.627067 0.931334 0.622466 -0.788993
H70   H     H_    0.647475 0.914451 0.604584 0.361135
C199  C     C_2   0.059980 0.630390 0.685728 0.999006
O61   O     O_2   0.082910 0.650883 0.710466 -0.573059
O62   O     O_R   0.050862 0.636378 0.623650 -0.761586
H71   H     H_    0.064779 0.658674 0.604518 0.368714
C200  C     C_2   0.358566 0.004353 0.694481 0.979793
O63   O     O_2   0.336300 0.030457 0.700279 -0.566479
O64   O     O_R   0.350675 0.975002 0.653832 -0.777496
H72   H     H_    0.325462 0.978231 0.632947 0.359721
C201  C     C_2   0.633321 0.956189 0.817629 0.982769
O65   O     O_2   0.663802 0.961457 0.791876 -0.577794
O66   O     O_R   0.631782 0.947026 0.880698 -0.797564
H73   H     H_    0.657705 0.945021 0.899571 0.352913
C202  C     C_2   0.978237 0.363526 0.824593 0.962896
O67   O     O_2   0.995097 0.333674 0.818533 -0.585897
O68   O     O_R   0.949580 0.366572 0.869401 -0.790944
H74   H     H_    0.945174 0.342122 0.893117 0.354007
C203  C     C_2   0.365483 0.030082 0.827712 0.960921
O69   O     O_2   0.334732 0.015063 0.821997 -0.586481
O70   O     O_R   0.370327 0.057439 0.873170 -0.790548
H75   H     H_    0.346328 0.062522 0.897735 0.355142
C204  C     C_2   0.037526 0.635193 0.820656 0.977661
O71   O     O_2   0.028144 0.665621 0.798655 -0.581627
O72   O     O_R   0.051294 0.633177 0.880884 -0.795043
H76   H     H_    0.052944 0.658852 0.900945 0.352882
C205  C     C_2   0.366787 0.955509 0.183734 0.983035
O73   O     O_2   0.336294 0.960795 0.209282 -0.577367
O74   O     O_R   0.368352 0.946372 0.120921 -0.797741
H77   H     H_    0.342441 0.944428 0.102049 0.353044
C206  C     C_2   0.037410 0.364831 0.178185 0.977210
O75   O     O_2   0.028608 0.334391 0.201208 -0.582134
O76   O     O_R   0.050640 0.366737 0.116995 -0.794779
H78   H     H_    0.052469 0.340984 0.097160 0.352880
C207  C     C_2   0.634840 0.028647 0.171611 0.961220
O77   O     O_2   0.665505 0.013441 0.177746 -0.586332
O78   O     O_R   0.630162 0.056127 0.125488 -0.790622
H79   H     H_    0.654209 0.061156 0.100876 0.354890
C208  C     C_2   0.974760 0.635739 0.175499 0.961939
O79   O     O_2   0.991034 0.665900 0.180922 -0.586409
O80   O     O_R   0.946508 0.632104 0.131463 -0.790555
H80   H     H_    0.941908 0.656406 0.107641 0.354558
Br1   Br    Br    0.112467 0.574198 0.562329 -0.475130
Br2   Br    Br    0.540576 0.892239 0.381127 -0.487325
Br3   Br    Br    0.889203 0.454350 0.612557 -0.445837
Br4   Br    Br    0.454509 0.107762 0.614432 -0.455889
Br5   Br    Br    0.892811 0.545547 0.385686 -0.448667
Br6   Br    Br    0.459445 0.890345 0.618233 -0.483426
Br7   Br    Br    0.113235 0.426461 0.435455 -0.473939
Br8   Br    Br    0.545543 0.110048 0.386679 -0.454157
Br9   Br    Br    0.611671 0.059567 0.905246 -0.459439
Br10  Br    Br    0.063211 0.390406 0.909337 -0.450732
Br11  Br    Br    0.390996 0.939804 0.906337 -0.440587
Br12  Br    Br    0.939364 0.611505 0.909168 -0.454327
Br13  Br    Br    0.388304 0.058729 0.094461 -0.458989
Br14  Br    Br    0.938198 0.388578 0.091575 -0.455432
Br15  Br    Br    0.608989 0.938939 0.093963 -0.440320
Br16  Br    Br    0.061722 0.609576 0.090508 -0.450829

loop_
_geom_bond_atom_site_label_1
_geom_bond_atom_site_label_2
_ccdc_geom_bond_type
O14   Zn8   S    
C5    O9    A    
C203  O69   D    
C161  H25   S    
C130  C146  A    
C104  H8    S    
C85   O45   A    
C10   C154  A    
C198  O59   D    
C165  H29   S    
C197  O57   D    
C96   C145  S    
O18   Zn2   S    
O4    Zn4   S    
C15   C163  A    
C98   C114  A    
C6    O14   A    
C60   C72   A    
C176  H40   S    
C99   H3    S    
C37   H53   S    
C62   C70   A    
C97   H1    S    
C130  C141  A    
C45   H61   S    
O47   Zn12  S    
C1    O7    A    
C158  C174  A    
C106  C133  A    
C3    O5    A    
C177  C189  A    
C18   C26   T    
C125  C207  S    
O37   Zn10  S    
C94   O26   A    
C51   Br3   S    
C61   C71   A    
C143  C151  A    
C37   C75   A    
C4    O4    A    
C141  C151  A    
C109  C125  A    
C89   O17   A    
C42   C58   A    
C84   C185  S    
C95   C146  S    
C108  C124  A    
C27   C75   S    
C183  C189  A    
C59   Br11  S    
C202  O68   S    
C176  C188  A    
C100  H4    S    
C88   C189  S    
C5    O15   A    
O52   H66   S    
O40   Zn10  S    
O41   Zn11  S    
C83   O35   A    
C58   C70   A    
C129  C142  A    
C20   C28   T    
C21   C29   T    
C40   C76   A    
C23   C31   T    
C24   C32   T    
C107  C136  A    
C32   C80   S    
O23   Zn3   S    
O68   H74   S    
C12   C20   S    
C13   C21   S    
C91   O23   A    
C208  O80   S    
O12   Zn8   S    
C33   C73   A    
C46   C62   A    
C86   O48   A    
C170  H34   S    
C35   C51   A    
O31   Zn7   S    
C121  C203  S    
C161  C177  A    
O11   Zn7   S    
C11   C157  A    
C178  H42   S    
C165  C181  A    
O78   H79   S    
C50   Br2   S    
O35   Zn9   S    
C17   C25   T    
C101  C117  A    
C154  H18   S    
C205  O73   D    
C47   C63   A    
C2    O6    A    
O29   Zn5   S    
C10   C18   S    
C3    O3    A    
C112  C131  A    
C92   O22   A    
C97   C142  A    
O58   H69   S    
C43   H59   S    
C179  C191  A    
C180  H44   S    
O20   Zn4   S    
C194  O51   D    
O70   H75   S    
C89   O19   A    
C90   O20   A    
C182  C190  A    
C184  H48   S    
C87   C192  S    
C38   H54   S    
C117  C199  S    
O45   Zn12  S    
C35   H51   S    
C201  O65   D    
C119  C197  S    
C87   O47   A    
C33   H49   S    
O66   H73   S    
C166  C182  A    
C16   C164  A    
C154  C170  A    
C56   Br8   S    
C55   Br7   S    
C101  H5    S    
C110  C129  A    
C193  O50   S    
C195  O54   S    
C89   C152  S    
C85   O41   A    
C63   C69   A    
C6    O10   A    
O34   Zn9   S    
C1    C65   S    
C133  C147  A    
C14   C166  A    
C49   Br1   S    
C10   C158  A    
C36   C52   A    
C43   C59   A    
C37   C53   A    
C9    C153  A    
C196  O56   S    
O5    Zn1   S    
C12   C156  A    
C116  C194  S    
C199  O62   S    
C159  H23   S    
C108  C135  A    
C4    C68   S    
C113  C126  A    
C56   C68   A    
O30   Zn8   S    
C156  C172  A    
C115  C128  A    
C102  C137  A    
C92   O24   A    
C7    O11   A    
C117  C122  A    
C107  H11   S    
C105  H9    S    
C84   O36   A    
C4    O8    A    
C106  C122  A    
C90   O18   A    
C51   C67   A    
C58   Br10  S    
C109  H13   S    
C174  H38   S    
C136  C148  A    
C110  C126  A    
C135  C147  A    
C163  C179  A    
C83   C188  S    
C111  H15   S    
C81   C186  S    
C92   C149  S    
C38   C74   A    
C181  H45   S    
C173  C187  A    
O33   Zn9   S    
C22   C30   T    
O46   Zn12  S    
C129  C145  A    
C2    C66   S    
C54   C66   A    
C158  H22   S    
C14   C22   S    
C8    O16   A    
C103  C140  A    
C95   O31   A    
C131  C145  A    
C25   C73   S    
C39   C73   A    
C53   C67   A    
C162  C178  A    
O19   Zn3   S    
C29   C77   S    
C15   C165  A    
O6    Zn4   S    
O1    Zn1   S    
C163  H27   S    
C206  O76   S    
C162  H26   S    
C100  C116  A    
C107  C123  A    
C61   Br13  S    
C166  H30   S    
C134  C137  A    
O21   Zn1   S    
C202  O67   D    
O80   H80   S    
C204  O72   S    
C11   C19   S    
O25   Zn5   S    
C207  O78   S    
C99   C115  A    
C178  C190  A    
O27   Zn7   S    
C48   C64   A    
C84   O38   A    
C33   C49   A    
O76   H78   S    
C160  H24   S    
C122  C204  S    
C98   H2    S    
C93   C148  S    
C142  C152  A    
C91   O21   A    
C5    C69   S    
C55   C65   A    
C39   C55   A    
C40   C56   A    
C116  C127  A    
C36   C76   A    
C96   O30   A    
O72   H76   S    
C184  C192  A    
O48   Zn12  S    
C88   O44   A    
C200  O64   S    
C164  C180  A    
C120  C123  A    
C132  C143  A    
C133  C138  A    
C203  O70   S    
C136  C139  A    
C198  O60   S    
C1    O1    A    
C197  O58   S    
C135  C140  A    
C103  C119  A    
C8    C72   S    
C36   H52   S    
C99   C144  A    
C44   C80   A    
C168  C184  A    
O64   H72   S    
C46   C78   A    
C85   C190  S    
C86   O42   A    
O39   Zn10  S    
C139  C149  A    
C62   Br14  S    
C156  H20   S    
O15   Zn7   S    
C14   C162  A    
O56   H68   S    
C47   H63   S    
C175  C185  A    
O60   H70   S    
C38   C54   A    
C170  C186  A    
C88   O46   A    
C45   C79   A    
C12   C160  A    
C13   C161  A    
C167  H31   S    
C34   C74   A    
C39   H55   S    
C171  H35   S    
C169  H33   S    
C28   C76   S    
O8    Zn2   S    
O22   Zn4   S    
C6    C70   S    
O3    Zn3   S    
C90   C151  S    
C100  C143  A    
C91   C150  S    
C101  C138  A    
C60   Br12  S    
C104  C139  A    
C132  C146  A    
C118  C200  S    
C205  O74   S    
C124  C202  S    
C41   C57   A    
O54   H67   S    
C95   O29   A    
C7    C71   S    
C181  C191  A    
C57   Br9   S    
C44   C60   A    
C172  H36   S    
C45   C61   A    
C96   O32   A    
C195  O53   D    
O16   Zn6   S    
C112  C128  A    
C169  C185  A    
O50   H65   S    
C42   H58   S    
C144  C152  A    
C153  C169  A    
C46   H62   S    
C131  C144  A    
C157  C173  A    
C105  C134  A    
C104  C120  A    
O62   H71   S    
C34   H50   S    
C196  O55   D    
O74   H77   S    
C8    O12   A    
C93   O25   A    
O28   Zn8   S    
C119  C124  A    
C138  C150  A    
C128  C206  S    
C35   C75   A    
C86   C191  S    
C49   C65   A    
C172  C188  A    
C102  H6    S    
C41   C77   A    
C13   C167  A    
C53   Br5   S    
C9    C159  A    
O44   Zn11  S    
C43   C79   A    
C64   Br16  S    
C81   O37   A    
C113  C195  S    
C82   O34   A    
C183  H47   S    
O38   Zn10  S    
C83   O39   A    
C44   H60   S    
C167  C183  A    
C153  H17   S    
C48   H64   S    
O2    Zn2   S    
C102  C118  A    
O43   Zn11  S    
C164  H28   S    
C15   C23   S    
C16   C24   S    
C159  C175  A    
C160  C176  A    
C137  C149  A    
C63   Br15  S    
C168  H32   S    
C126  C208  S    
O10   Zn6   S    
O26   Zn6   S    
O32   Zn6   S    
C40   H56   S    
C127  C205  S    
O13   Zn5   S    
O24   Zn2   S    
C34   C50   A    
C175  H39   S    
C7    O13   A    
C112  H16   S    
C179  H43   S    
O36   Zn9   S    
C180  C192  A    
O17   Zn1   S    
C120  C198  S    
C114  C125  A    
C177  H41   S    
C194  O52   S    
C118  C121  A    
C106  H10   S    
C52   Br4   S    
C105  C121  A    
C110  H14   S    
C103  H7    S    
C50   C66   A    
C208  O79   D    
C173  H37   S    
C9    C17   S    
C2    O2    A    
C42   C78   A    
C98   C141  A    
C111  C127  A    
C47   C77   A    
C97   C113  A    
C140  C150  A    
C93   O27   A    
C19   C27   T    
C182  H46   S    
C94   O28   A    
C206  O75   D    
C94   C147  S    
C3    C67   S    
C52   C68   A    
O42   Zn11  S    
C31   C79   S    
C11   C155  A    
C134  C148  A    
C204  O71   D    
C157  H21   S    
C171  C187  A    
C82   C187  S    
C87   O43   A    
C48   C80   A    
C155  H19   S    
C114  C196  S    
O7    Zn3   S    
C108  H12   S    
C82   O40   A    
C207  O77   D    
C174  C186  A    
C81   O33   A    
C16   C168  A    
C26   C74   S    
C64   C72   A    
C193  O49   D    
C54   Br6   S    
C30   C78   S    
C155  C171  A    
C111  C132  A    
O9    Zn5   S    
C201  O66   S    
C41   H57   S    
C109  C130  A    
C199  O61   D    
C57   C69   A    
C200  O63   D    
C123  C201  S    
C59   C71   A    
C115  C193  S    
