data_mof_unit_pretest_589.cif
_audit_creation_date              2012-12-10T17:58:19-0500
_audit_creation_method            fapswitch 2.2
_symmetry_space_group_name_H-M    P1
_symmetry_Int_Tables_number       1
_space_group_crystal_system       triclinic
_cell_length_a                    9.603122
_cell_length_b                    10.702848
_cell_length_c                    15.566467
_cell_angle_alpha                 88.33613
_cell_angle_beta                  73.205459
_cell_angle_gamma                 90.163264
_cell_volume                      1530.93992038

loop_
_atom_site_label
_atom_site_type_symbol
_atom_type_description
_atom_site_fract_x
_atom_site_fract_y
_atom_site_fract_z
_atom_type_partial_charge
C1    C     C_R   0.999425 0.262665 0.500781 0.871971
C2    C     C_R   0.000175 0.737329 0.500178 0.826238
C3    C     C_R   0.597552 0.540918 0.099567 -0.179236
C4    C     C_R   0.444845 0.630685 0.915207 -0.199591
C5    C     C_R   0.744504 0.532192 0.053116 -0.161128
C6    C     C_R   0.304610 0.663651 0.963516 -0.127726
C7    C     C_R   0.025274 0.068366 0.418660 0.522184
C8    C     C_R   0.967461 0.931774 0.582920 0.511207
C9    C     C_R   0.030487 0.938316 0.419375 -0.401741
C10   C     C_R   0.970815 0.061843 0.581915 -0.349019
C11   C     C_R   0.000099 0.871133 0.501002 -0.172877
C12   C     C_R   0.999125 0.128900 0.500277 -0.173203
C13   C     C_R   0.547947 0.417558 0.554551 0.419103
C14   C     C_R   0.455205 0.571283 0.437720 0.406971
C15   C     C_R   0.396208 0.422259 0.557869 0.396136
C16   C     C_R   0.603325 0.574203 0.439738 0.405541
C17   C     C_R   0.917117 0.501877 0.672325 0.863918
C18   C     C_R   0.083347 0.504943 0.328076 0.876834
C19   C     C_R   0.872292 0.512196 0.771068 -0.216308
C20   C     C_R   0.133918 0.534594 0.231303 -0.222939
C21   C     C_R   0.936479 0.516162 0.911205 0.530738
C22   C     C_R   0.104907 0.655223 0.102788 0.554690
C23   C     C_R   0.977499 0.518429 0.817393 -0.356540
C24   C     C_R   0.047781 0.606452 0.190573 -0.414292
C25   C     C_R   0.724347 0.516073 0.820136 0.394427
C26   C     C_R   0.278278 0.508266 0.183390 0.454731
C27   C     C_R   0.684345 0.544550 0.911909 -0.103785
C28   C     C_R   0.341440 0.565725 0.098130 -0.125296
C29   C     C_R   0.789322 0.531596 0.959162 -0.002926
C30   C     C_R   0.249801 0.628969 0.054652 0.010588
C31   C     C_R   0.539700 0.575046 0.958969 0.105331
C32   C     C_R   0.492188 0.557763 0.053184 0.081095
Cu1   Cu    Cu3+1 0.140660 0.500020 0.500000 1.038885
Cu2   Cu    Cu3+1 0.859340 0.499980 0.500000 1.017556
H1    H     H_    0.822182 0.522445 0.091242 0.206656
H2    H     H_    0.237364 0.711721 0.928253 0.200207
H3    H     H_    0.936610 0.626497 0.227311 0.228847
H4    H     H_    0.091976 0.519643 0.781521 0.191897
H5    H     H_    0.569107 0.542500 0.171955 0.231394
H6    H     H_    0.481461 0.656980 0.844536 0.175768
H7    H     H_    0.058392 0.889851 0.356611 0.141163
H8    H     H_    0.950637 0.110352 0.644448 0.160390
N1    N     N_R   0.352080 0.500030 0.499980 -0.275479
N2    N     N_R   0.647920 0.499970 0.500020 -0.278321
O1    O     O_R   0.118740 0.319660 0.500000 -0.521878
O2    O     O_R   0.881260 0.680340 0.500000 -0.587081
O3    O     O_R   0.881170 0.319630 0.500010 -0.562629
O4    O     O_R   0.118830 0.680370 0.499990 -0.583495
O5    O     O_R   0.055570 0.500030 0.629830 -0.564401
O6    O     O_R   0.944430 0.499970 0.370170 -0.548920
O7    O     O_R   0.818000 0.500000 0.629840 -0.506026
O8    O     O_R   0.182000 0.500000 0.370160 -0.491972
O9    O     O_3   0.354243 0.421401 0.219308 -0.551340
C33   C     C_3   0.341598 0.304194 0.182926 -0.287219
H9    H     H_    0.399569 0.304374 0.109857 0.139407
H10   H     H_    0.225769 0.275989 0.194827 0.180683
H11   H     H_    0.392898 0.232772 0.216617 0.198464
O10   O     O_3   0.619732 0.473256 0.782688 -0.561953
C34   C     C_3   0.597831 0.344465 0.805586 -0.234558
H12   H     H_    0.567523 0.325735 0.879492 0.124054
H13   H     H_    0.695642 0.289992 0.771215 0.155391
H14   H     H_    0.506354 0.310102 0.783336 0.185075
O11   O     O_3   0.042036 0.507338 0.955184 -0.556916
C35   C     C_3   0.072369 0.380050 0.965979 -0.374573
H15   H     H_    0.973233 0.326836 0.004768 0.152608
H16   H     H_    0.121191 0.337072 0.900063 0.153121
H17   H     H_    0.152967 0.372951 0.004538 0.192124
O12   O     O_3   0.017829 0.723499 0.061991 -0.550725
C36   C     C_3   0.985078 0.839220 0.103985 -0.370231
H18   H     H_    0.084957 0.888943 0.108117 0.150501
H19   H     H_    0.906047 0.827166 0.171777 0.161834
H20   H     H_    0.933318 0.899541 0.063077 0.194835
O13   O     O_3   0.057275 0.137434 0.338646 -0.592651
C37   C     C_3   0.943825 0.121384 0.299022 -0.374932
H21   H     H_    0.961785 0.187970 0.240797 0.184453
H22   H     H_    0.835815 0.142460 0.346487 0.162128
H23   H     H_    0.943542 0.025532 0.273411 0.152651
O14   O     O_3   0.943427 0.863914 0.662931 -0.576687
C38   C     C_3   0.792331 0.857173 0.705093 -0.346501
H24   H     H_    0.772775 0.800310 0.768278 0.195498
H25   H     H_    0.734313 0.810182 0.662273 0.165285
H26   H     H_    0.746407 0.951456 0.723110 0.150944
O15   O     O_3   0.596556 0.326670 0.603469 -0.534242
C39   C     C_3   0.596082 0.209823 0.563163 -0.297566
H27   H     H_    0.646500 0.215412 0.489067 0.156001
H28   H     H_    0.484719 0.169858 0.578104 0.179396
H29   H     H_    0.660480 0.143171 0.591646 0.165715
O16   O     O_3   0.424197 0.615994 0.361011 -0.519782
C40   C     C_3   0.388641 0.743954 0.366357 -0.202912
H30   H     H_    0.463234 0.795738 0.308619 0.139813
H31   H     H_    0.390111 0.788142 0.430160 0.119199
H32   H     H_    0.279873 0.755571 0.356320 0.169981
O17   O     O_3   0.295149 0.335399 0.607382 -0.539178
C41   C     C_3   0.286677 0.333855 0.699232 -0.272744
H33   H     H_    0.171214 0.319038 0.738091 0.161133
H34   H     H_    0.326229 0.421639 0.721766 0.161174
H35   H     H_    0.344934 0.251572 0.715447 0.166444
O18   O     O_3   0.707495 0.633114 0.369810 -0.536572
C42   C     C_3   0.713673 0.762583 0.383884 -0.274959
H36   H     H_    0.829157 0.790792 0.368906 0.174072
H37   H     H_    0.655233 0.791909 0.453138 0.126850
H38   H     H_    0.673817 0.815874 0.334149 0.139752

loop_
_geom_bond_atom_site_label_1
_geom_bond_atom_site_label_2
_ccdc_geom_bond_type
O17   C41   S    
C10   H8    S    
Cu1   O1    S    
O13   C37   S    
C39   H29   S    
C1    O1    A    
C17   O7    A    
C18   O8    A    
C7    O13   S    
O9    C33   S    
C2    O2    A    
Cu1   O8    S    
Cu2   O7    S    
C37   H22   S    
O15   C39   S    
C22   C24   A    
C39   H28   S    
C27   C29   A    
Cu1   O5    S    
C36   H19   S    
C4    H6    S    
O12   C36   S    
C37   H23   S    
Cu2   O2    S    
C40   H31   S    
C16   N2    A    
C3    H5    S    
C34   H12   S    
C8    O14   S    
C3    C32   A    
C1    C12   S    
C2    C11   S    
C24   H3    S    
C5    C29   A    
C7    C12   A    
C33   H10   S    
Cu2   O6    S    
C34   H13   S    
C37   H21   S    
C27   C31   A    
Cu1   N1    S    
C35   H17   S    
C20   C24   A    
C28   C32   A    
Cu2   N2    S    
C39   H27   S    
C4    C6    A    
C17   O5    A    
C38   H25   S    
O14   C38   S    
C1    O3    A    
C41   H35   S    
C2    O4    A    
O10   C34   S    
C21   C29   A    
C38   H24   S    
C35   H16   S    
C36   H20   S    
C19   C23   A    
C42   H36   S    
Cu1   Cu2   S    
C41   H33   S    
C40   H32   S    
C41   H34   S    
C9    C11   A    
C22   O12   S    
C10   C12   A    
C6    C30   A    
C13   C15   A    
C14   C16   A    
C25   O10   S    
C26   O9    S    
C18   O6    A    
C7    C9    A    
C33   H9    S    
C34   H14   S    
C22   C30   A    
C42   H37   S    
C26   C28   A    
C31   C32   A    
C3    C5    A    
C15   O17   S    
C38   H26   S    
C25   C27   A    
C23   H4    S    
C13   O15   S    
C9    H7    S    
C35   H15   S    
C21   C23   A    
C15   N1    A    
C16   O18   S    
C20   C26   A    
C8    C11   A    
C5    H1    S    
C28   C30   A    
C17   C19   S    
C6    H2    S    
C18   C20   S    
C36   H18   S    
C19   C25   A    
C21   O11   S    
C4    C31   A    
C14   O16   S    
O11   C35   S    
C42   H38   S    
O16   C40   S    
C8    C10   A    
O18   C42   S    
Cu1   O4    S    
Cu2   O3    S    
C40   H30   S    
C13   N2    A    
C14   N1    A    
C33   H11   S    
