data_mof_unit_pretest_1850.cif
_audit_creation_date              2012-12-10T20:30:42-0500
_audit_creation_method            fapswitch 2.2
_symmetry_space_group_name_H-M    P1
_symmetry_Int_Tables_number       1
_space_group_crystal_system       triclinic
_cell_length_a                    26.06047
_cell_length_b                    39.817269
_cell_length_c                    39.64573
_cell_angle_alpha                 89.909363
_cell_angle_beta                  90.303969
_cell_angle_gamma                 90.426124
_cell_volume                      41136.8935081

loop_
_atom_site_label
_atom_site_type_symbol
_atom_type_description
_atom_site_fract_x
_atom_site_fract_y
_atom_site_fract_z
_atom_type_partial_charge
C1    C     C_R   0.390516 0.750981 0.000709 0.834395
C2    C     C_R   0.609971 0.249990 0.999774 0.834054
C3    C     C_R   0.609948 0.747619 0.997967 0.852494
C4    C     C_R   0.390274 0.250521 0.000114 0.845364
C5    C     C_R   0.890358 0.251421 0.002035 0.844123
C6    C     C_R   0.109789 0.749965 0.999694 0.834121
C7    C     C_R   0.109786 0.248128 0.998056 0.836785
C8    C     C_R   0.890251 0.749040 0.001701 0.855230
C9    C     C_R   0.890319 0.751599 0.502030 0.846052
C10   C     C_R   0.109870 0.250034 0.499791 0.834231
C11   C     C_R   0.109743 0.748280 0.498105 0.841671
C12   C     C_R   0.890323 0.249561 0.501263 0.851289
C13   C     C_R   0.390317 0.249013 0.499751 0.842948
C14   C     C_R   0.609848 0.749903 0.499681 0.831125
C15   C     C_R   0.610035 0.249842 0.499899 0.837697
C16   C     C_R   0.390313 0.749289 0.501475 0.857373
C17   C     C_1   0.249857 0.749705 0.234917 0.134707
C18   C     C_1   0.750026 0.249777 0.235003 0.139768
C19   C     C_1   0.749929 0.749956 0.234997 0.139805
C20   C     C_1   0.249935 0.249954 0.235004 0.139139
C21   C     C_1   0.749556 0.749362 0.734999 0.139859
C22   C     C_1   0.249882 0.249855 0.735008 0.140968
C23   C     C_1   0.250318 0.749716 0.735012 0.141219
C24   C     C_1   0.749420 0.250409 0.734994 0.139796
C25   C     C_R   0.287463 0.731160 0.181594 0.503711
C26   C     C_R   0.716801 0.271604 0.181473 0.502733
C27   C     C_R   0.713802 0.729929 0.181488 0.502436
C28   C     C_R   0.284139 0.271581 0.181731 0.504999
C29   C     C_R   0.783313 0.227947 0.181718 0.504271
C30   C     C_R   0.213359 0.769043 0.181304 0.500920
C31   C     C_R   0.215858 0.228436 0.181512 0.502339
C32   C     C_R   0.786116 0.770148 0.181726 0.506242
C33   C     C_R   0.784516 0.728707 0.681697 0.506535
C34   C     C_R   0.217754 0.272335 0.681455 0.503871
C35   C     C_R   0.218115 0.726999 0.681526 0.501915
C36   C     C_R   0.783188 0.272168 0.681647 0.502476
C37   C     C_R   0.282265 0.227411 0.681748 0.503130
C38   C     C_R   0.714946 0.770286 0.681478 0.502327
C39   C     C_R   0.716016 0.228329 0.681520 0.502333
C40   C     C_R   0.282427 0.772681 0.681729 0.506104
C41   C     C_R   0.286428 0.731078 0.145983 -0.323255
C42   C     C_R   0.717517 0.271424 0.145821 -0.328180
C43   C     C_R   0.714315 0.730367 0.145834 -0.323547
C44   C     C_R   0.283550 0.271327 0.146067 -0.330960
C45   C     C_R   0.782716 0.228302 0.146039 -0.327425
C46   C     C_R   0.213536 0.768522 0.145734 -0.323288
C47   C     C_R   0.216527 0.228758 0.145862 -0.322848
C48   C     C_R   0.785690 0.769773 0.146059 -0.333146
C49   C     C_R   0.783993 0.729136 0.646025 -0.338010
C50   C     C_R   0.218411 0.272060 0.645801 -0.327788
C51   C     C_R   0.218596 0.727446 0.645868 -0.322597
C52   C     C_R   0.782427 0.272044 0.646039 -0.325811
C53   C     C_R   0.281717 0.227746 0.646072 -0.325946
C54   C     C_R   0.715725 0.770180 0.645822 -0.327921
C55   C     C_R   0.716891 0.228499 0.645869 -0.322025
C56   C     C_R   0.281808 0.772438 0.646058 -0.332080
C57   C     C_R   0.250117 0.749900 0.128108 -0.116577
C58   C     C_R   0.750105 0.249873 0.128191 -0.111821
C59   C     C_R   0.750025 0.750068 0.128227 -0.112960
C60   C     C_R   0.250055 0.250046 0.128237 -0.115088
C61   C     C_R   0.749960 0.749757 0.628186 -0.109927
C62   C     C_R   0.250096 0.249911 0.628195 -0.112333
C63   C     C_R   0.250158 0.749982 0.628239 -0.113581
C64   C     C_R   0.749859 0.250160 0.628220 -0.115757
C65   C     C_R   0.250093 0.749878 0.198734 -0.083498
C66   C     C_R   0.750066 0.249774 0.198768 -0.079254
C67   C     C_R   0.749954 0.750019 0.198775 -0.080006
C68   C     C_R   0.249983 0.249999 0.198789 -0.079090
C69   C     C_R   0.749664 0.749424 0.698763 -0.079749
C70   C     C_R   0.249972 0.249861 0.698774 -0.078426
C71   C     C_R   0.250301 0.749803 0.698790 -0.078853
C72   C     C_R   0.749463 0.250373 0.698783 -0.078942
C73   C     C_R   0.051088 0.810814 0.011024 -0.098061
C74   C     C_R   0.952456 0.205712 0.047981 -0.108493
C75   C     C_R   0.953832 0.802157 0.037611 -0.098953
C76   C     C_R   0.049028 0.189995 0.023873 -0.109164
C77   C     C_R   0.555370 0.312852 0.998357 -0.102698
C78   C     C_R   0.452344 0.722822 0.056612 -0.107034
C79   C     C_R   0.450909 0.313654 0.010845 -0.138732
C80   C     C_R   0.547662 0.698350 0.038912 -0.112143
C81   C     C_R   0.552269 0.810984 0.509215 -0.097651
C82   C     C_R   0.450160 0.185007 0.509472 -0.141286
C83   C     C_R   0.454781 0.803540 0.535810 -0.107236
C84   C     C_R   0.554944 0.186941 0.496708 -0.119058
C85   C     C_R   0.052565 0.311725 0.507651 -0.099087
C86   C     C_R   0.952390 0.707079 0.548586 -0.100171
C87   C     C_R   0.953794 0.305882 0.532594 -0.109262
C88   C     C_R   0.048469 0.690595 0.524194 -0.113272
C89   C     C_R   0.028005 0.837073 0.028215 -0.132267
C90   C     C_R   0.977389 0.177002 0.059680 -0.169353
C91   C     C_R   0.980674 0.832028 0.043169 -0.165463
C92   C     C_R   0.024475 0.168316 0.046304 -0.151847
C93   C     C_R   0.531398 0.343045 0.005300 -0.140284
C94   C     C_R   0.475919 0.698648 0.076720 -0.152727
C95   C     C_R   0.479596 0.343259 0.012600 -0.164885
C96   C     C_R   0.522451 0.685220 0.066914 -0.167339
C97   C     C_R   0.530575 0.837273 0.527012 -0.122232
C98   C     C_R   0.479027 0.155517 0.511102 -0.151580
C99   C     C_R   0.483315 0.832653 0.542155 -0.182535
C100  C     C_R   0.530930 0.156484 0.503494 -0.147479
C101  C     C_R   0.030070 0.338967 0.523520 -0.133509
C102  C     C_R   0.976760 0.678233 0.560253 -0.139557
C103  C     C_R   0.981870 0.335370 0.537579 -0.171879
C104  C     C_R   0.023648 0.669131 0.546799 -0.151824
C105  C     C_R   0.475079 0.777068 0.515927 0.065624
C106  C     C_R   0.528014 0.217773 0.499603 0.060355
C107  C     C_R   0.527278 0.779242 0.507398 0.042743
C108  C     C_R   0.474013 0.216956 0.503399 0.056620
C109  C     C_R   0.974782 0.278331 0.514572 0.059491
C110  C     C_R   0.025976 0.721457 0.514174 0.060063
C111  C     C_R   0.027315 0.280036 0.506606 0.042562
C112  C     C_R   0.974225 0.727152 0.522506 0.066420
C113  C     C_R   0.974721 0.776172 0.017398 0.062697
C114  C     C_R   0.026196 0.220774 0.014028 0.060853
C115  C     C_R   0.026838 0.778829 0.008808 0.039330
C116  C     C_R   0.974248 0.226164 0.022271 0.069716
C117  C     C_R   0.474435 0.282107 0.004354 0.055459
C118  C     C_R   0.526149 0.725054 0.019862 0.065717
C119  C     C_R   0.528300 0.281739 0.000477 0.051393
C120  C     C_R   0.474628 0.733396 0.025687 0.059614
C121  C     C_R   0.053581 0.749399 0.999757 -0.192297
C122  C     C_R   0.946987 0.252313 0.005429 -0.217985
C123  C     C_R   0.946462 0.747529 0.005906 -0.204868
C124  C     C_R   0.053301 0.245854 0.995631 -0.216992
C125  C     C_R   0.554046 0.250582 0.998962 -0.183659
C126  C     C_R   0.447235 0.751483 0.000474 -0.208858
C127  C     C_R   0.446558 0.251162 0.001500 -0.188771
C128  C     C_R   0.553840 0.743179 0.994934 -0.214314
C129  C     C_R   0.553727 0.749524 0.499244 -0.190302
C130  C     C_R   0.446659 0.247985 0.501711 -0.190625
C131  C     C_R   0.446599 0.748129 0.505269 -0.206030
C132  C     C_R   0.554176 0.249025 0.499823 -0.183208
C133  C     C_R   0.053783 0.249873 0.500098 -0.190913
C134  C     C_R   0.946919 0.752945 0.505163 -0.218889
C135  C     C_R   0.946569 0.248844 0.505026 -0.202126
C136  C     C_R   0.053241 0.746344 0.495634 -0.215034
C137  C     C_R   0.026762 0.718497 0.995598 0.132016
C138  C     C_R   0.974509 0.276936 0.987573 0.126490
C139  C     C_R   0.972896 0.717983 0.996996 0.123425
C140  C     C_R   0.025828 0.272009 0.979682 0.145802
C141  C     C_R   0.526570 0.219910 0.999832 0.124456
C142  C     C_R   0.474134 0.765391 0.972326 0.145715
C143  C     C_R   0.472816 0.220224 0.000392 0.123834
C144  C     C_R   0.527048 0.760123 0.969188 0.133642
C145  C     C_R   0.526736 0.718657 0.495568 0.131816
C146  C     C_R   0.473548 0.278745 0.504934 0.124905
C147  C     C_R   0.472894 0.718319 0.497027 0.124340
C148  C     C_R   0.527232 0.279204 0.504688 0.123945
C149  C     C_R   0.026931 0.218931 0.499430 0.132004
C150  C     C_R   0.974276 0.777325 0.486572 0.129210
C151  C     C_R   0.973120 0.218635 0.499033 0.120057
C152  C     C_R   0.025998 0.772509 0.479203 0.149310
C153  C     C_R   0.250099 0.841073 0.999978 0.875722
C154  C     C_R   0.751023 0.158916 0.999208 0.900362
C155  C     C_R   0.749522 0.841057 0.000353 0.892694
C156  C     C_R   0.248725 0.158965 0.999290 0.891235
C157  C     C_R   0.749037 0.341111 0.999058 0.872886
C158  C     C_R   0.250980 0.658930 0.999272 0.900906
C159  C     C_R   0.249690 0.341070 0.000300 0.889514
C160  C     C_R   0.748518 0.659036 0.999229 0.890666
C161  C     C_R   0.749422 0.841136 0.499301 0.871505
C162  C     C_R   0.250187 0.158814 0.499410 0.885687
C163  C     C_R   0.249115 0.840922 0.500588 0.911592
C164  C     C_R   0.749001 0.158974 0.499415 0.880304
C165  C     C_R   0.249889 0.341106 0.499575 0.883904
C166  C     C_R   0.751359 0.659003 0.498942 0.886750
C167  C     C_R   0.750089 0.341217 0.499748 0.893853
C168  C     C_R   0.248945 0.659004 0.499413 0.886018
C169  C     C_R   0.296835 0.431204 0.008198 -0.367923
C170  C     C_R   0.720460 0.568453 0.023173 -0.368784
C171  C     C_R   0.704480 0.431100 0.011804 -0.381370
C172  C     C_R   0.276247 0.568091 0.023326 -0.374041
C173  C     C_R   0.795303 0.931352 0.008414 -0.369982
C174  C     C_R   0.218225 0.068150 0.021932 -0.367262
C175  C     C_R   0.200699 0.930261 0.008233 -0.369878
C176  C     C_R   0.777265 0.068089 0.022759 -0.368609
C177  C     C_R   0.787729 0.432624 0.515533 -0.384149
C178  C     C_R   0.225321 0.568528 0.525432 -0.358156
C179  C     C_R   0.208220 0.431331 0.513299 -0.371528
C180  C     C_R   0.778114 0.568778 0.523355 -0.359362
C181  C     C_R   0.289055 0.932230 0.503979 -0.375257
C182  C     C_R   0.726032 0.068364 0.525677 -0.368411
C183  C     C_R   0.715268 0.931921 0.518698 -0.386756
C184  C     C_R   0.285247 0.066928 0.514837 -0.386419
C185  C     C_R   0.295422 0.395921 0.010413 0.526707
C186  C     C_R   0.719715 0.603697 0.023602 0.525104
C187  C     C_R   0.705244 0.395634 0.012738 0.528024
C188  C     C_R   0.276731 0.603444 0.024438 0.528029
C189  C     C_R   0.794255 0.896111 0.010806 0.523630
C190  C     C_R   0.219813 0.103453 0.023349 0.526205
C191  C     C_R   0.203636 0.895103 0.010711 0.524348
C192  C     C_R   0.778224 0.103371 0.023619 0.526417
C193  C     C_R   0.789642 0.397081 0.515847 0.535043
C194  C     C_R   0.223257 0.603662 0.525087 0.520026
C195  C     C_R   0.208187 0.395982 0.513807 0.524998
C196  C     C_R   0.781176 0.603935 0.522516 0.515194
C197  C     C_R   0.291848 0.897016 0.505040 0.520267
C198  C     C_R   0.722291 0.103575 0.524734 0.524534
C199  C     C_R   0.712947 0.896433 0.518382 0.533575
C200  C     C_R   0.288020 0.102475 0.515561 0.536746
C201  C     C_R   0.250445 0.378346 0.000147 -0.269384
C202  C     C_R   0.744460 0.621881 0.997404 -0.260600
C203  C     C_R   0.746215 0.378519 0.996686 -0.265352
C204  C     C_R   0.253892 0.621695 0.997462 -0.261134
C205  C     C_R   0.749624 0.878302 0.000333 -0.268366
C206  C     C_R   0.244489 0.121719 0.997135 -0.264016
C207  C     C_R   0.248085 0.878396 0.998937 -0.267076
C208  C     C_R   0.753911 0.121668 0.997216 -0.263851
C209  C     C_R   0.749648 0.378749 0.499264 -0.270856
C210  C     C_R   0.246879 0.621776 0.498387 -0.265621
C211  C     C_R   0.249369 0.378532 0.498499 -0.268854
C212  C     C_R   0.753095 0.621798 0.497542 -0.262393
C213  C     C_R   0.246325 0.877851 0.502122 -0.253730
C214  C     C_R   0.747455 0.121671 0.498645 -0.266921
C215  C     C_R   0.748876 0.878649 0.498270 -0.267472
C216  C     C_R   0.249657 0.121076 0.498054 -0.268144
C217  C     C_R   0.206673 0.396752 0.989862 0.021026
C218  C     C_R   0.763196 0.604208 0.968985 0.021966
C219  C     C_R   0.783742 0.397510 0.978658 0.042143
C220  C     C_R   0.235695 0.604075 0.968558 0.025874
C221  C     C_R   0.705543 0.896445 0.989944 0.018730
C222  C     C_R   0.262855 0.104090 0.968478 0.026912
C223  C     C_R   0.289897 0.897773 0.986559 0.020023
C224  C     C_R   0.734226 0.103944 0.968755 0.029864
C225  C     C_R   0.709228 0.396582 0.482678 0.045441
C226  C     C_R   0.267434 0.603765 0.470703 0.030424
C227  C     C_R   0.289694 0.397252 0.482832 0.042526
C228  C     C_R   0.727053 0.603698 0.471615 0.036977
C229  C     C_R   0.198245 0.894185 0.501031 0.002227
C230  C     C_R   0.770544 0.103671 0.471752 0.039039
C231  C     C_R   0.784425 0.897037 0.477945 0.044591
C232  C     C_R   0.210541 0.103348 0.479487 0.045414
C233  C     C_R   0.209637 0.431817 0.986634 0.515286
C234  C     C_R   0.765170 0.568893 0.969647 0.519089
C235  C     C_R   0.783688 0.432721 0.980067 0.509168
C236  C     C_R   0.234484 0.568766 0.968542 0.515297
C237  C     C_R   0.707911 0.931588 0.987111 0.514947
C238  C     C_R   0.262106 0.068764 0.968191 0.514543
C239  C     C_R   0.285510 0.932828 0.983572 0.516845
C240  C     C_R   0.733301 0.068650 0.968730 0.513830
C241  C     C_R   0.707233 0.431746 0.484524 0.510416
C242  C     C_R   0.270461 0.568561 0.472082 0.514537
C243  C     C_R   0.289524 0.432507 0.483829 0.508114
C244  C     C_R   0.722404 0.568548 0.473904 0.512130
C245  C     C_R   0.196219 0.929417 0.499698 0.516258
C246  C     C_R   0.774251 0.068559 0.473553 0.506589
C247  C     C_R   0.787391 0.932150 0.480359 0.509794
C248  C     C_R   0.207387 0.068207 0.481102 0.514650
C249  C     C_R   0.254335 0.448898 0.996546 -0.084736
C250  C     C_R   0.743374 0.551327 0.996716 -0.071997
C251  C     C_R   0.744188 0.449245 0.996833 -0.075517
C252  C     C_R   0.255484 0.551058 0.995780 -0.075341
C253  C     C_R   0.752570 0.948858 0.996916 -0.082261
C254  C     C_R   0.239162 0.051077 0.994729 -0.079924
C255  C     C_R   0.241328 0.948893 0.995061 -0.082112
C256  C     C_R   0.755125 0.050967 0.995760 -0.078807
C257  C     C_R   0.746614 0.449446 0.500865 -0.072595
C258  C     C_R   0.248740 0.551194 0.499342 -0.079363
C259  C     C_R   0.249021 0.449242 0.499370 -0.079841
C260  C     C_R   0.747828 0.551414 0.499993 -0.074097
C261  C     C_R   0.241851 0.948257 0.501640 -0.086179
C262  C     C_R   0.751840 0.051196 0.500443 -0.077209
C263  C     C_R   0.752786 0.949262 0.500757 -0.070939
C264  C     C_R   0.244578 0.050334 0.499029 -0.076700
C265  C     C_1   0.255922 0.484910 0.995908 0.058267
C266  C     C_1   0.743173 0.515345 0.997240 0.060972
C267  C     C_1   0.743270 0.485228 0.997444 0.050179
C268  C     C_1   0.256067 0.515038 0.995675 0.060854
C269  C     C_1   0.754261 0.984828 0.996218 0.054855
C270  C     C_1   0.238053 0.015023 0.994592 0.057611
C271  C     C_1   0.238621 0.984883 0.994647 0.061579
C272  C     C_1   0.755011 0.014981 0.995883 0.056167
C273  C     C_1   0.746237 0.485388 0.501468 0.052334
C274  C     C_1   0.248661 0.515284 0.500078 0.059226
C275  C     C_1   0.248560 0.485164 0.500198 0.052000
C276  C     C_1   0.746625 0.515505 0.501142 0.061042
C277  C     C_1   0.241134 0.984194 0.501296 0.054289
C278  C     C_1   0.752975 0.015275 0.501526 0.045420
C279  C     C_1   0.753344 0.985205 0.501679 0.049243
C280  C     C_1   0.242150 0.014333 0.500634 0.056297
C281  C     C_R   0.250006 0.749940 0.909012 0.792248
C282  C     C_R   0.749969 0.249966 0.909011 0.788889
C283  C     C_R   0.749869 0.749996 0.909077 0.791628
C284  C     C_R   0.249901 0.250020 0.909078 0.783460
C285  C     C_R   0.749973 0.749961 0.409010 0.789784
C286  C     C_R   0.249963 0.249968 0.409009 0.779094
C287  C     C_R   0.249892 0.750011 0.409078 0.785581
C288  C     C_R   0.749917 0.250026 0.409077 0.780974
C289  C     C_R   0.249984 0.749910 0.090952 0.847231
C290  C     C_R   0.750068 0.249958 0.090963 0.850023
C291  C     C_R   0.750028 0.750030 0.091026 0.855065
C292  C     C_R   0.250032 0.250027 0.091030 0.859338
C293  C     C_R   0.750035 0.749933 0.590961 0.842925
C294  C     C_R   0.250061 0.249960 0.590964 0.853518
C295  C     C_R   0.250045 0.750020 0.591030 0.858403
C296  C     C_R   0.749976 0.250062 0.591027 0.858548
C297  C     C_R   0.282162 0.728246 0.318999 -0.149086
C298  C     C_R   0.717949 0.271956 0.318680 -0.151546
C299  C     C_R   0.717807 0.727696 0.318767 -0.148443
C300  C     C_R   0.282305 0.271900 0.318892 -0.152654
C301  C     C_R   0.781641 0.227892 0.319034 -0.150059
C302  C     C_R   0.216904 0.771304 0.318652 -0.151139
C303  C     C_R   0.217463 0.227917 0.318766 -0.152655
C304  C     C_R   0.782042 0.772059 0.318889 -0.149740
C305  C     C_R   0.781902 0.728009 0.819052 -0.148496
C306  C     C_R   0.217689 0.271884 0.818709 -0.150013
C307  C     C_R   0.217815 0.727691 0.818775 -0.146883
C308  C     C_R   0.781844 0.272261 0.818912 -0.149991
C309  C     C_R   0.281661 0.227992 0.819017 -0.148355
C310  C     C_R   0.716804 0.771185 0.818669 -0.147234
C311  C     C_R   0.717431 0.228010 0.818748 -0.147045
C312  C     C_R   0.282698 0.771649 0.818901 -0.148259
C313  C     C_R   0.282284 0.728312 0.354171 -0.172172
C314  C     C_R   0.717893 0.272032 0.353861 -0.187225
C315  C     C_R   0.717769 0.727678 0.353941 -0.174744
C316  C     C_R   0.282366 0.271931 0.354050 -0.187288
C317  C     C_R   0.781687 0.227917 0.354195 -0.174266
C318  C     C_R   0.216930 0.771433 0.353843 -0.183410
C319  C     C_R   0.217422 0.227900 0.353935 -0.186665
C320  C     C_R   0.782102 0.772093 0.354052 -0.180532
C321  C     C_R   0.782073 0.728139 0.854210 -0.170598
C322  C     C_R   0.217660 0.271938 0.853887 -0.183176
C323  C     C_R   0.217675 0.727735 0.853946 -0.172460
C324  C     C_R   0.782046 0.272170 0.854069 -0.181700
C325  C     C_R   0.281738 0.227998 0.854177 -0.172512
C326  C     C_R   0.716875 0.771367 0.853850 -0.174669
C327  C     C_R   0.717536 0.227865 0.853918 -0.174059
C328  C     C_R   0.282663 0.771742 0.854062 -0.178912
C329  C     C_R   0.249681 0.749943 0.371919 -0.013642
C330  C     C_R   0.749803 0.250011 0.371942 -0.012534
C331  C     C_R   0.749936 0.749905 0.371894 -0.016894
C332  C     C_R   0.249905 0.249928 0.371894 -0.010722
C333  C     C_R   0.749588 0.749864 0.871945 -0.015272
C334  C     C_R   0.249741 0.250002 0.871946 -0.013175
C335  C     C_R   0.250095 0.749805 0.871900 -0.016774
C336  C     C_R   0.749854 0.249982 0.871895 -0.015882
C337  C     C_R   0.249517 0.749733 0.301267 0.126742
C338  C     C_R   0.749814 0.249898 0.301314 0.126621
C339  C     C_R   0.749913 0.749876 0.301293 0.125477
C340  C     C_R   0.249879 0.249904 0.301290 0.128934
C341  C     C_R   0.749325 0.749528 0.801313 0.124229
C342  C     C_R   0.249683 0.249925 0.801316 0.125599
C343  C     C_R   0.250282 0.749646 0.801303 0.124681
C344  C     C_R   0.749543 0.250206 0.801280 0.125348
C345  C     C_1   0.249646 0.749705 0.265232 -0.032046
C346  C     C_1   0.749909 0.249838 0.265261 -0.031587
C347  C     C_1   0.749904 0.749903 0.265251 -0.030464
C348  C     C_1   0.249890 0.249917 0.265258 -0.033619
C349  C     C_1   0.749406 0.749424 0.765260 -0.028989
C350  C     C_1   0.249761 0.249895 0.765267 -0.029921
C351  C     C_1   0.250300 0.749657 0.765264 -0.029061
C352  C     C_1   0.749434 0.250336 0.765256 -0.030120
H1    H     H_    0.307527 0.711473 0.305651 0.157092
H2    H     H_    0.693208 0.289074 0.305041 0.154842
H3    H     H_    0.692846 0.710442 0.305221 0.156795
H4    H     H_    0.307492 0.288998 0.305445 0.154625
H5    H     H_    0.806395 0.210735 0.305681 0.157240
H6    H     H_    0.191521 0.788030 0.305022 0.153999
H7    H     H_    0.192270 0.210811 0.305214 0.154769
H8    H     H_    0.806994 0.789307 0.305444 0.156389
H9    H     H_    0.807166 0.711166 0.805711 0.157100
H10   H     H_    0.192831 0.288943 0.805088 0.155799
H11   H     H_    0.192635 0.710574 0.805225 0.157360
H12   H     H_    0.806824 0.289504 0.805481 0.156248
H13   H     H_    0.306513 0.210911 0.805644 0.157542
H14   H     H_    0.691473 0.787920 0.805018 0.157099
H15   H     H_    0.692358 0.210839 0.805181 0.157422
H16   H     H_    0.307934 0.788719 0.805457 0.156904
H17   H     H_    0.307879 0.711449 0.367415 0.182877
H18   H     H_    0.692976 0.289328 0.366861 0.174915
H19   H     H_    0.692657 0.710285 0.367034 0.182454
H20   H     H_    0.307754 0.289181 0.367225 0.174121
H21   H     H_    0.806617 0.210639 0.367441 0.183093
H22   H     H_    0.191397 0.788343 0.366847 0.176519
H23   H     H_    0.192057 0.210666 0.367024 0.175865
H24   H     H_    0.807244 0.789500 0.367226 0.180311
H25   H     H_    0.807609 0.711251 0.867465 0.183280
H26   H     H_    0.192630 0.289150 0.866905 0.177681
H27   H     H_    0.192270 0.710526 0.867036 0.182558
H28   H     H_    0.807313 0.289487 0.867260 0.178944
H29   H     H_    0.306789 0.210783 0.867406 0.183006
H30   H     H_    0.691417 0.788328 0.866843 0.181781
H31   H     H_    0.692406 0.210474 0.866997 0.182135
H32   H     H_    0.308049 0.788995 0.867238 0.180087
H33   H     H_    0.313382 0.716159 0.131935 0.176697
H34   H     H_    0.693124 0.287961 0.131383 0.176773
H35   H     H_    0.687102 0.715647 0.131357 0.177463
H36   H     H_    0.308809 0.287496 0.131745 0.173678
H37   H     H_    0.807334 0.211993 0.131729 0.175390
H38   H     H_    0.184763 0.781965 0.131493 0.178089
H39   H     H_    0.191265 0.212613 0.131392 0.178492
H40   H     H_    0.812920 0.784504 0.131749 0.170883
H41   H     H_    0.809754 0.713606 0.631706 0.169263
H42   H     H_    0.194634 0.288941 0.631324 0.175375
H43   H     H_    0.194776 0.710392 0.631402 0.179152
H44   H     H_    0.806627 0.289025 0.631854 0.176333
H45   H     H_    0.305499 0.210891 0.631786 0.177206
H46   H     H_    0.689947 0.785777 0.631364 0.177452
H47   H     H_    0.692096 0.212043 0.631404 0.179664
H48   H     H_    0.305548 0.789561 0.631729 0.171643
H49   H     H_    0.088159 0.815816 0.999940 0.170998
H50   H     H_    0.917598 0.212144 0.060944 0.168808
H51   H     H_    0.918740 0.799466 0.051563 0.175196
H52   H     H_    0.085273 0.181848 0.013743 0.154223
H53   H     H_    0.595264 0.314364 0.991334 0.158924
H54   H     H_    0.417104 0.733265 0.066024 0.153516
H55   H     H_    0.410768 0.316847 0.015464 0.202359
H56   H     H_    0.582706 0.686084 0.031653 0.167026
H57   H     H_    0.589364 0.815535 0.497947 0.154827
H58   H     H_    0.409814 0.181405 0.514694 0.193346
H59   H     H_    0.419126 0.801671 0.549223 0.176760
H60   H     H_    0.594958 0.186048 0.489769 0.139735
H61   H     H_    0.090347 0.315630 0.497204 0.163173
H62   H     H_    0.917735 0.713910 0.561588 0.165624
H63   H     H_    0.917790 0.304910 0.545632 0.187642
H64   H     H_    0.084571 0.682178 0.514015 0.152909
H65   H     H_    0.047674 0.860916 0.031070 0.157676
H66   H     H_    0.959815 0.161346 0.078846 0.122900
H67   H     H_    0.964566 0.851395 0.058914 0.125531
H68   H     H_    0.042608 0.145126 0.054052 0.119499
H69   H     H_    0.553122 0.366280 0.005028 0.163475
H70   H     H_    0.457370 0.689723 0.099445 0.125319
H71   H     H_    0.461259 0.366755 0.018903 0.156423
H72   H     H_    0.539552 0.665059 0.081360 0.123599
H73   H     H_    0.551458 0.860642 0.530340 0.148947
H74   H     H_    0.460915 0.131689 0.517744 0.139584
H75   H     H_    0.468860 0.851745 0.558871 0.117044
H76   H     H_    0.552944 0.133437 0.503277 0.128771
H77   H     H_    0.050870 0.362434 0.526130 0.160053
H78   H     H_    0.958826 0.662711 0.579430 0.134981
H79   H     H_    0.966227 0.355592 0.552348 0.127595
H80   H     H_    0.041336 0.645815 0.554568 0.120664
H81   H     H_    0.331308 0.444893 0.015233 0.174198
H82   H     H_    0.703355 0.554338 0.043668 0.175389
H83   H     H_    0.673022 0.444933 0.022659 0.168885
H84   H     H_    0.291616 0.553632 0.044167 0.172316
H85   H     H_    0.829664 0.945228 0.015358 0.174136
H86   H     H_    0.201443 0.053862 0.042407 0.173861
H87   H     H_    0.166524 0.943103 0.016531 0.175181
H88   H     H_    0.793539 0.053787 0.043449 0.173792
H89   H     H_    0.817786 0.447933 0.526743 0.165302
H90   H     H_    0.208702 0.554656 0.546295 0.177008
H91   H     H_    0.176300 0.445112 0.523660 0.172220
H92   H     H_    0.800870 0.554859 0.541540 0.173509
H93   H     H_    0.323842 0.947299 0.504767 0.171751
H94   H     H_    0.708832 0.054260 0.546115 0.173904
H95   H     H_    0.688058 0.946610 0.532823 0.166173
H96   H     H_    0.314065 0.051495 0.526836 0.164700
O1    O     O_3   0.250000 0.750000 0.000000 -0.503364
O2    O     O_3   0.750000 0.250000 0.000000 -0.504079
O3    O     O_3   0.750000 0.750000 0.000000 -0.503127
O4    O     O_3   0.250000 0.250000 0.000000 -0.502324
O5    O     O_3   0.750000 0.750000 0.500000 -0.503848
O6    O     O_3   0.250000 0.250000 0.500000 -0.502715
O7    O     O_3   0.250000 0.750000 0.500000 -0.501760
O8    O     O_3   0.750000 0.250000 0.500000 -0.504344
O9    O     O_R   0.365790 0.730370 0.019620 -0.661722
O10   O     O_R   0.634210 0.269630 0.019620 -0.646734
O11   O     O_R   0.634210 0.730370 0.019620 -0.669499
O12   O     O_R   0.365790 0.269630 0.019620 -0.666632
O13   O     O_R   0.865790 0.230370 0.019620 -0.670391
O14   O     O_R   0.134210 0.769630 0.019620 -0.648395
O15   O     O_R   0.134210 0.230370 0.019620 -0.660319
O16   O     O_R   0.865790 0.769630 0.019620 -0.666862
O17   O     O_R   0.865790 0.730370 0.519620 -0.661953
O18   O     O_R   0.134210 0.269630 0.519620 -0.648947
O19   O     O_R   0.134210 0.730370 0.519620 -0.659451
O20   O     O_R   0.865790 0.269630 0.519620 -0.671130
O21   O     O_R   0.365790 0.230370 0.519620 -0.662251
O22   O     O_R   0.634210 0.769630 0.519620 -0.648465
O23   O     O_R   0.634210 0.230370 0.519620 -0.653184
O24   O     O_R   0.365790 0.769630 0.519620 -0.668377
O25   O     O_R   0.280360 0.824820 0.980370 -0.618715
O26   O     O_R   0.719640 0.175180 0.980370 -0.608053
O27   O     O_R   0.719640 0.824820 0.980370 -0.619695
O28   O     O_R   0.280360 0.175180 0.980370 -0.604434
O29   O     O_R   0.780360 0.324820 0.980370 -0.614561
O30   O     O_R   0.219640 0.675180 0.980370 -0.608205
O31   O     O_R   0.219640 0.324820 0.980370 -0.617367
O32   O     O_R   0.780360 0.675180 0.980370 -0.605648
O33   O     O_R   0.780360 0.824820 0.480370 -0.613975
O34   O     O_R   0.219640 0.175180 0.480370 -0.613331
O35   O     O_R   0.219640 0.824820 0.480370 -0.620708
O36   O     O_R   0.780360 0.175180 0.480370 -0.606838
O37   O     O_R   0.280360 0.324820 0.480370 -0.614493
O38   O     O_R   0.719640 0.675180 0.480370 -0.607633
O39   O     O_R   0.719640 0.324820 0.480370 -0.614369
O40   O     O_R   0.280360 0.675180 0.480370 -0.605334
O41   O     O_R   0.280350 0.769620 0.925180 -0.633680
O42   O     O_R   0.719650 0.230380 0.925180 -0.633752
O43   O     O_R   0.719650 0.769620 0.925180 -0.633689
O44   O     O_R   0.280350 0.230380 0.925180 -0.632472
O45   O     O_R   0.780350 0.269620 0.925180 -0.635823
O46   O     O_R   0.219650 0.730380 0.925180 -0.632537
O47   O     O_R   0.219650 0.269620 0.925180 -0.638983
O48   O     O_R   0.780350 0.730380 0.925180 -0.630237
O49   O     O_R   0.780350 0.769620 0.425180 -0.633748
O50   O     O_R   0.219650 0.230380 0.425180 -0.639306
O51   O     O_R   0.219650 0.769620 0.425180 -0.639828
O52   O     O_R   0.780350 0.230380 0.425180 -0.631121
O53   O     O_R   0.280350 0.269620 0.425180 -0.641345
O54   O     O_R   0.719650 0.730380 0.425180 -0.632464
O55   O     O_R   0.719650 0.269620 0.425180 -0.642136
O56   O     O_R   0.280350 0.730380 0.425180 -0.630184
O57   O     O_R   0.280370 0.730380 0.074830 -0.647475
O58   O     O_R   0.719630 0.269620 0.074830 -0.644910
O59   O     O_R   0.719630 0.730380 0.074830 -0.638628
O60   O     O_R   0.280370 0.269620 0.074830 -0.650887
O61   O     O_R   0.780370 0.230380 0.074830 -0.649334
O62   O     O_R   0.219630 0.769620 0.074830 -0.648683
O63   O     O_R   0.219630 0.230380 0.074830 -0.637524
O64   O     O_R   0.780370 0.769620 0.074830 -0.658254
O65   O     O_R   0.780370 0.730380 0.574830 -0.658976
O66   O     O_R   0.219630 0.269620 0.574830 -0.646218
O67   O     O_R   0.219630 0.730380 0.574830 -0.636732
O68   O     O_R   0.780370 0.269620 0.574830 -0.651961
O69   O     O_R   0.280370 0.230380 0.574830 -0.643229
O70   O     O_R   0.719630 0.769620 0.574830 -0.641580
O71   O     O_R   0.719630 0.230380 0.574830 -0.636934
O72   O     O_R   0.280370 0.769620 0.574830 -0.657900
O73   O     O_R   0.219650 0.824830 0.019610 -0.600702
O74   O     O_R   0.780350 0.175170 0.019610 -0.591581
O75   O     O_R   0.780350 0.824830 0.019610 -0.598220
O76   O     O_R   0.219650 0.175170 0.019610 -0.603002
O77   O     O_R   0.719650 0.324830 0.019610 -0.594373
O78   O     O_R   0.280350 0.675170 0.019610 -0.589618
O79   O     O_R   0.280350 0.324830 0.019610 -0.605806
O80   O     O_R   0.719650 0.675170 0.019610 -0.601769
O81   O     O_R   0.719650 0.824830 0.519610 -0.589240
O82   O     O_R   0.280350 0.175170 0.519610 -0.594434
O83   O     O_R   0.280350 0.824830 0.519610 -0.610868
O84   O     O_R   0.719650 0.175170 0.519610 -0.597361
O85   O     O_R   0.219650 0.324830 0.519610 -0.596162
O86   O     O_R   0.780350 0.675170 0.519610 -0.591809
O87   O     O_R   0.780350 0.324830 0.519610 -0.588914
O88   O     O_R   0.219650 0.675170 0.519610 -0.604624
O89   O     O_R   0.365790 0.769610 0.980380 -0.597748
O90   O     O_R   0.634210 0.230390 0.980380 -0.609312
O91   O     O_R   0.634210 0.769610 0.980380 -0.592267
O92   O     O_R   0.365790 0.230390 0.980380 -0.601035
O93   O     O_R   0.865790 0.269610 0.980380 -0.598674
O94   O     O_R   0.134210 0.730390 0.980380 -0.607726
O95   O     O_R   0.134210 0.269610 0.980380 -0.597075
O96   O     O_R   0.865790 0.730390 0.980380 -0.601502
O97   O     O_R   0.865790 0.769610 0.480380 -0.599956
O98   O     O_R   0.134210 0.230390 0.480380 -0.605060
O99   O     O_R   0.134210 0.769610 0.480380 -0.596813
O100  O     O_R   0.865790 0.230390 0.480380 -0.600456
O101  O     O_R   0.365790 0.269610 0.480380 -0.600286
O102  O     O_R   0.634210 0.730390 0.480380 -0.607697
O103  O     O_R   0.634210 0.269610 0.480380 -0.606188
O104  O     O_R   0.365790 0.730390 0.480380 -0.600307
Zn1   Zn    Zn3+2 0.206630 0.778030 0.028030 0.980701
Zn2   Zn    Zn3+2 0.793370 0.221970 0.028030 0.985493
Zn3   Zn    Zn3+2 0.793370 0.778030 0.028030 0.980862
Zn4   Zn    Zn3+2 0.206630 0.221970 0.028030 0.988691
Zn5   Zn    Zn3+2 0.706630 0.278030 0.028030 0.989062
Zn6   Zn    Zn3+2 0.293370 0.721970 0.028030 0.989932
Zn7   Zn    Zn3+2 0.293370 0.278030 0.028030 0.981985
Zn8   Zn    Zn3+2 0.706630 0.721970 0.028030 0.984624
Zn9   Zn    Zn3+2 0.706630 0.778030 0.528030 0.988093
Zn10  Zn    Zn3+2 0.293370 0.221970 0.528030 0.992843
Zn11  Zn    Zn3+2 0.293370 0.778030 0.528030 0.980541
Zn12  Zn    Zn3+2 0.706630 0.221970 0.528030 0.994622
Zn13  Zn    Zn3+2 0.206630 0.278030 0.528030 0.990750
Zn14  Zn    Zn3+2 0.793370 0.721970 0.528030 0.980418
Zn15  Zn    Zn3+2 0.793370 0.278030 0.528030 0.990067
Zn16  Zn    Zn3+2 0.206630 0.721970 0.528030 0.987082
Zn17  Zn    Zn3+2 0.293370 0.778030 0.971970 1.015610
Zn18  Zn    Zn3+2 0.706630 0.221970 0.971970 1.020671
Zn19  Zn    Zn3+2 0.706630 0.778030 0.971970 1.022773
Zn20  Zn    Zn3+2 0.293370 0.221970 0.971970 1.021269
Zn21  Zn    Zn3+2 0.793370 0.278030 0.971970 1.016101
Zn22  Zn    Zn3+2 0.206630 0.721970 0.971970 1.023980
Zn23  Zn    Zn3+2 0.206630 0.278030 0.971970 1.014325
Zn24  Zn    Zn3+2 0.793370 0.721970 0.971970 1.024091
Zn25  Zn    Zn3+2 0.793370 0.778030 0.471970 1.019097
Zn26  Zn    Zn3+2 0.206630 0.221970 0.471970 1.013031
Zn27  Zn    Zn3+2 0.206630 0.778030 0.471970 1.017959
Zn28  Zn    Zn3+2 0.793370 0.221970 0.471970 1.018337
Zn29  Zn    Zn3+2 0.293370 0.278030 0.471970 1.012452
Zn30  Zn    Zn3+2 0.706630 0.721970 0.471970 1.019577
Zn31  Zn    Zn3+2 0.706630 0.278030 0.471970 1.012709
Zn32  Zn    Zn3+2 0.293370 0.721970 0.471970 1.023333
I1    I     I_    0.132708 0.374388 0.982378 -0.206342
I2    I     I_    0.780929 0.628364 0.921930 -0.284728
I3    I     I_    0.839417 0.376576 0.945339 -0.228157
I4    I     I_    0.215436 0.628298 0.922009 -0.270536
I5    I     I_    0.632138 0.873320 0.981224 -0.223955
I6    I     I_    0.287234 0.128153 0.922742 -0.272951
I7    I     I_    0.363294 0.877014 0.975223 -0.230105
I8    I     I_    0.710342 0.127907 0.922811 -0.269582
I9    I     I_    0.649224 0.373972 0.452648 -0.219399
I10   I     I_    0.288172 0.626940 0.423701 -0.274334
I11   I     I_    0.352805 0.375700 0.456039 -0.214012
I12   I     I_    0.702271 0.626447 0.424995 -0.270330
I13   I     I_    0.127383 0.867093 0.505238 -0.235253
I14   I     I_    0.795717 0.126374 0.425474 -0.267388
I15   I     I_    0.832442 0.875444 0.439969 -0.240523
I16   I     I_    0.155147 0.126119 0.446563 -0.230074
O105  O     O_3   0.167258 0.449553 0.975651 -0.583306
C353  C     C_3   0.168818 0.452189 0.940102 -0.258858
H97   H     H_    0.129008 0.455230 0.930564 0.203127
H98   H     H_    0.184890 0.429573 0.927419 0.155797
H99   H     H_    0.191195 0.474788 0.932637 0.183751
O106  O     O_3   0.783409 0.551341 0.942152 -0.604868
C354  C     C_3   0.837668 0.552841 0.941684 -0.262746
H100  H     H_    0.854513 0.576074 0.953018 0.179095
H101  H     H_    0.850138 0.552168 0.914968 0.203207
H102  H     H_    0.853877 0.530650 0.954785 0.184452
O107  O     O_3   0.825467 0.450716 0.967992 -0.580494
C355  C     C_3   0.816264 0.460785 0.934365 -0.254287
H103  H     H_    0.794278 0.441908 0.919266 0.156699
H104  H     H_    0.853934 0.464475 0.921858 0.202099
H105  H     H_    0.795866 0.485043 0.933850 0.203905
O108  O     O_3   0.216456 0.551522 0.940588 -0.590673
C356  C     C_3   0.162723 0.547713 0.943300 -0.258264
H106  H     H_    0.147450 0.538983 0.918632 0.195003
H107  H     H_    0.143194 0.571771 0.949217 0.184062
H108  H     H_    0.152811 0.528486 0.962587 0.182555
O109  O     O_3   0.664988 0.949225 0.976908 -0.583251
C357  C     C_3   0.666303 0.952909 0.941499 -0.268753
H109  H     H_    0.627897 0.961114 0.932696 0.198939
H110  H     H_    0.675018 0.928924 0.928295 0.168594
H111  H     H_    0.694616 0.972538 0.934164 0.179336
O110  O     O_3   0.280822 0.051549 0.940651 -0.590309
C358  C     C_3   0.333954 0.046523 0.945364 -0.255050
H112  H     H_    0.354739 0.070049 0.952414 0.181788
H113  H     H_    0.350395 0.037781 0.921196 0.193645
H114  H     H_    0.340980 0.026845 0.964714 0.188810
O111  O     O_3   0.326427 0.951750 0.971806 -0.589747
C359  C     C_3   0.324763 0.952946 0.936141 -0.258769
H115  H     H_    0.303081 0.931818 0.924048 0.150506
H116  H     H_    0.364688 0.951967 0.926624 0.204694
H117  H     H_    0.307956 0.977071 0.927822 0.188265
O112  O     O_3   0.714545 0.051359 0.941022 -0.589092
C360  C     C_3   0.661548 0.045540 0.945534 -0.259429
H118  H     H_    0.645588 0.034733 0.921906 0.192528
H119  H     H_    0.640399 0.069177 0.950616 0.185340
H120  H     H_    0.654628 0.027135 0.966158 0.182518
O113  O     O_3   0.663724 0.448382 0.473561 -0.578540
C361  C     C_3   0.669945 0.458947 0.439686 -0.255384
H121  H     H_    0.631200 0.460274 0.427865 0.204355
H122  H     H_    0.693381 0.441453 0.424272 0.152872
H123  H     H_    0.687144 0.484431 0.439114 0.208484
O114  O     O_3   0.290240 0.550862 0.445188 -0.600291
C362  C     C_3   0.344330 0.550286 0.447887 -0.263721
H124  H     H_    0.361429 0.574481 0.456753 0.182322
H125  H     H_    0.360204 0.545442 0.422453 0.198827
H126  H     H_    0.356652 0.529624 0.464860 0.186294
O115  O     O_3   0.331919 0.450454 0.472634 -0.579196
C363  C     C_3   0.324391 0.459865 0.438640 -0.259574
H127  H     H_    0.308916 0.438999 0.422781 0.160913
H128  H     H_    0.362158 0.467265 0.427985 0.199823
H129  H     H_    0.298685 0.481868 0.436871 0.197712
O116  O     O_3   0.699305 0.550438 0.448107 -0.604642
C364  C     C_3   0.645153 0.552490 0.450566 -0.263075
H130  H     H_    0.628980 0.552416 0.424540 0.205334
H131  H     H_    0.630935 0.575676 0.463154 0.175199
H132  H     H_    0.629845 0.530132 0.464095 0.184844
O117  O     O_3   0.149405 0.945541 0.498609 -0.564536
C365  C     C_3   0.134913 0.949536 0.464526 -0.203346
H133  H     H_    0.097183 0.962226 0.463515 0.208233
H134  H     H_    0.130512 0.924890 0.451573 0.169389
H135  H     H_    0.162962 0.965496 0.450680 0.128026
O118  O     O_3   0.795946 0.051022 0.447193 -0.606632
C366  C     C_3   0.849098 0.047923 0.453348 -0.249727
H136  H     H_    0.867537 0.072185 0.460693 0.186521
H137  H     H_    0.867625 0.039601 0.429691 0.198542
H138  H     H_    0.856488 0.028564 0.472962 0.186045
O119  O     O_3   0.827873 0.949302 0.465496 -0.582309
C367  C     C_3   0.813744 0.960245 0.432892 -0.252386
H139  H     H_    0.785704 0.943334 0.419845 0.150964
H140  H     H_    0.848885 0.961219 0.417170 0.204155
H141  H     H_    0.798006 0.985926 0.434101 0.209366
O120  O     O_3   0.163962 0.051750 0.469032 -0.557943
C368  C     C_3   0.173585 0.038595 0.436635 -0.267602
H142  H     H_    0.207868 0.022162 0.436264 0.131280
H143  H     H_    0.177712 0.058930 0.417660 0.179884
H144  H     H_    0.139957 0.023092 0.428904 0.189248
O121  O     O_3   0.321383 0.712045 0.201014 -0.596282
C369  C     C_3   0.367946 0.705088 0.184492 -0.308954
H145  H     H_    0.384305 0.727728 0.171911 0.152818
H146  H     H_    0.362633 0.684073 0.166377 0.167491
H147  H     H_    0.396330 0.696728 0.203605 0.197192
O122  O     O_3   0.686018 0.292510 0.201138 -0.602991
C370  C     C_3   0.649591 0.311162 0.182732 -0.300654
H148  H     H_    0.623705 0.294436 0.167846 0.164964
H149  H     H_    0.668806 0.330292 0.166595 0.164119
H150  H     H_    0.625278 0.324933 0.200862 0.195386
O123  O     O_3   0.679309 0.711271 0.201149 -0.602639
C371  C     C_3   0.646712 0.689604 0.182676 -0.299958
H151  H     H_    0.669127 0.671216 0.167783 0.169852
H152  H     H_    0.619834 0.704140 0.166523 0.162343
H153  H     H_    0.623043 0.675000 0.200750 0.195214
O124  O     O_3   0.316056 0.292031 0.201657 -0.602743
C372  C     C_3   0.351140 0.311971 0.183382 -0.302599
H154  H     H_    0.330741 0.330697 0.167477 0.162173
H155  H     H_    0.377433 0.296151 0.168278 0.164927
H156  H     H_    0.375213 0.326248 0.201605 0.195745
O125  O     O_3   0.814527 0.207284 0.201635 -0.601745
C373  C     C_3   0.848130 0.186680 0.183319 -0.300668
H157  H     H_    0.875308 0.202006 0.168062 0.158858
H158  H     H_    0.826401 0.168325 0.167559 0.170029
H159  H     H_    0.871408 0.171992 0.201517 0.196156
O126  O     O_3   0.176499 0.785728 0.200439 -0.596849
C374  C     C_3   0.155306 0.813860 0.183868 -0.307650
H160  H     H_    0.125336 0.805789 0.165469 0.169250
H161  H     H_    0.185260 0.829736 0.171619 0.153658
H162  H     H_    0.136082 0.829704 0.202933 0.194988
O127  O     O_3   0.183870 0.207973 0.201211 -0.603263
C375  C     C_3   0.148976 0.187947 0.182680 -0.300010
H163  H     H_    0.169548 0.169304 0.166985 0.169858
H164  H     H_    0.122637 0.203718 0.167325 0.163585
H165  H     H_    0.124935 0.173579 0.200729 0.194766
O128  O     O_3   0.820581 0.788763 0.201633 -0.600979
C376  C     C_3   0.853035 0.810578 0.183402 -0.302978
H166  H     H_    0.830514 0.828962 0.168347 0.158770
H167  H     H_    0.880018 0.796176 0.167437 0.164553
H168  H     H_    0.876608 0.825180 0.201648 0.196757
O129  O     O_3   0.816964 0.708845 0.701591 -0.600550
C377  C     C_3   0.852983 0.690049 0.683293 -0.306343
H169  H     H_    0.878659 0.706722 0.668320 0.160975
H170  H     H_    0.833469 0.670900 0.667251 0.156697
H171  H     H_    0.877562 0.676302 0.701497 0.197780
O130  O     O_3   0.187635 0.293662 0.701125 -0.602298
C378  C     C_3   0.154058 0.314350 0.682593 -0.301697
H172  H     H_    0.126571 0.299121 0.667337 0.164295
H173  H     H_    0.175835 0.332577 0.666807 0.162977
H174  H     H_    0.131106 0.329185 0.700645 0.195840
O131  O     O_3   0.188041 0.705333 0.701231 -0.603067
C379  C     C_3   0.155470 0.683701 0.682703 -0.292614
H175  H     H_    0.178072 0.666079 0.667033 0.171820
H176  H     H_    0.127473 0.698175 0.667325 0.162138
H177  H     H_    0.133034 0.668253 0.700754 0.195769
O132  O     O_3   0.813442 0.293906 0.701244 -0.600424
C380  C     C_3   0.856364 0.307246 0.684058 -0.299393
H178  H     H_    0.844319 0.327463 0.666376 0.167065
H179  H     H_    0.878422 0.287320 0.670952 0.159426
H180  H     H_    0.882590 0.318935 0.702871 0.196031
O133  O     O_3   0.312299 0.206038 0.701689 -0.602870
C381  C     C_3   0.346101 0.185512 0.683447 -0.292447
H181  H     H_    0.373533 0.200877 0.668425 0.164302
H182  H     H_    0.324503 0.167284 0.667470 0.166852
H183  H     H_    0.369080 0.170681 0.701692 0.196253
O134  O     O_3   0.682181 0.789828 0.701187 -0.602341
C382  C     C_3   0.647261 0.809557 0.682662 -0.297708
H184  H     H_    0.621193 0.793572 0.667117 0.165301
H185  H     H_    0.667771 0.828650 0.667165 0.163063
H186  H     H_    0.622924 0.823403 0.700720 0.196138
O135  O     O_3   0.684217 0.207747 0.701244 -0.603052
C383  C     C_3   0.650984 0.186542 0.682683 -0.290683
H187  H     H_    0.673026 0.168313 0.667370 0.169469
H188  H     H_    0.623901 0.201403 0.666956 0.164855
H189  H     H_    0.627537 0.171730 0.700722 0.195627
O136  O     O_3   0.312546 0.794264 0.701646 -0.601891
C384  C     C_3   0.345276 0.815839 0.683350 -0.300282
H190  H     H_    0.322802 0.833629 0.667569 0.163317
H191  H     H_    0.373116 0.801335 0.668115 0.161924
H192  H     H_    0.367889 0.831115 0.701560 0.196715
I17   I     I_    0.066600 0.671462 0.990051 -0.256141
I18   I     I_    0.944417 0.326335 0.982082 -0.192275
I19   I     I_    0.932278 0.670935 0.990779 -0.265165
I20   I     I_    0.055864 0.300748 0.938089 -0.220996
I21   I     I_    0.566402 0.172760 0.003290 -0.264215
I22   I     I_    0.438976 0.796711 0.934077 -0.204548
I23   I     I_    0.431632 0.173128 0.004039 -0.261873
I24   I     I_    0.564678 0.771654 0.921997 -0.257773
I25   I     I_    0.566410 0.671485 0.490648 -0.273079
I26   I     I_    0.433046 0.323827 0.517144 -0.220986
I27   I     I_    0.432132 0.671140 0.492192 -0.267329
I28   I     I_    0.568330 0.324474 0.516524 -0.220100
I29   I     I_    0.066988 0.172450 0.505624 -0.219888
I30   I     I_    0.942309 0.826076 0.477285 -0.186737
I31   I     I_    0.932877 0.171337 0.494360 -0.247411
I32   I     I_    0.057520 0.801983 0.438184 -0.232391
O137  O     O_3   0.338795 0.378017 0.019870 -0.590692
C385  C     C_3   0.358621 0.389619 0.051033 -0.320670
H193  H     H_    0.328082 0.397115 0.069049 0.160696
H194  H     H_    0.385992 0.410712 0.046873 0.156102
H195  H     H_    0.380305 0.368911 0.063088 0.184517
O138  O     O_3   0.697665 0.620687 0.050445 -0.567773
C386  C     C_3   0.646277 0.610111 0.055382 -0.295286
H196  H     H_    0.645000 0.588056 0.072527 0.160543
H197  H     H_    0.625654 0.604352 0.031341 0.146093
H198  H     H_    0.624980 0.630678 0.067792 0.177153
O139  O     O_3   0.664441 0.376642 0.025574 -0.585256
C387  C     C_3   0.639216 0.392059 0.052820 -0.319191
H199  H     H_    0.610322 0.410219 0.043381 0.153033
H200  H     H_    0.666518 0.404212 0.070803 0.162237
H201  H     H_    0.618012 0.372393 0.067023 0.193877
O140  O     O_3   0.295613 0.620759 0.052470 -0.569176
C388  C     C_3   0.342205 0.607201 0.064647 -0.275877
H202  H     H_    0.367488 0.597974 0.044115 0.146411
H203  H     H_    0.334177 0.586897 0.083153 0.160326
H204  H     H_    0.363875 0.627223 0.078141 0.186100
O141  O     O_3   0.837587 0.878376 0.020747 -0.572578
C389  C     C_3   0.858561 0.891296 0.051067 -0.292720
H205  H     H_    0.829005 0.901272 0.068555 0.148365
H206  H     H_    0.887771 0.910931 0.045409 0.159046
H207  H     H_    0.878147 0.870634 0.064614 0.175224
O142  O     O_3   0.201304 0.120339 0.051410 -0.567174
C390  C     C_3   0.150364 0.110430 0.058797 -0.297928
H208  H     H_    0.150136 0.087457 0.074689 0.158489
H209  H     H_    0.126411 0.106617 0.035715 0.141803
H210  H     H_    0.132110 0.130601 0.073702 0.183919
O143  O     O_3   0.161882 0.876520 0.022192 -0.587897
C391  C     C_3   0.147280 0.887124 0.054758 -0.313895
H211  H     H_    0.119293 0.907954 0.052901 0.152764
H212  H     H_    0.180561 0.894614 0.070922 0.157175
H213  H     H_    0.127833 0.865853 0.067659 0.187595
O144  O     O_3   0.799363 0.120482 0.051014 -0.569707
C392  C     C_3   0.848885 0.108469 0.059164 -0.287055
H214  H     H_    0.871238 0.100806 0.036583 0.149773
H215  H     H_    0.845969 0.087340 0.077372 0.157860
H216  H     H_    0.870972 0.128915 0.071678 0.180340
O145  O     O_3   0.830054 0.378861 0.530411 -0.571764
C393  C     C_3   0.864773 0.398435 0.550139 -0.306603
H217  H     H_    0.844470 0.413404 0.569658 0.159263
H218  H     H_    0.889452 0.414541 0.533539 0.162179
H219  H     H_    0.890498 0.381273 0.564199 0.173498
O146  O     O_3   0.201082 0.620557 0.551824 -0.568982
C394  C     C_3   0.148197 0.612629 0.553528 -0.286370
H220  H     H_    0.142041 0.587982 0.566066 0.154091
H221  H     H_    0.129128 0.612890 0.528290 0.143606
H222  H     H_    0.129114 0.631852 0.569203 0.182785
O147  O     O_3   0.166094 0.377812 0.525756 -0.586758
C395  C     C_3   0.147840 0.390496 0.556678 -0.317914
H223  H     H_    0.119311 0.410587 0.552023 0.154349
H224  H     H_    0.179250 0.399635 0.573565 0.161942
H225  H     H_    0.127710 0.369895 0.570209 0.188710
O148  O     O_3   0.817517 0.620667 0.542176 -0.568396
C396  C     C_3   0.807686 0.615849 0.576877 -0.280110
H226  H     H_    0.822323 0.591146 0.585435 0.153048
H227  H     H_    0.766193 0.618655 0.582951 0.151710
H228  H     H_    0.829049 0.635500 0.591190 0.180762
O149  O     O_3   0.338673 0.880654 0.506554 -0.584501
C397  C     C_3   0.369942 0.894078 0.532491 -0.288161
H229  H     H_    0.347826 0.902133 0.555059 0.147190
H230  H     H_    0.393678 0.915183 0.522681 0.159905
H231  H     H_    0.396137 0.874234 0.541138 0.183821
O150  O     O_3   0.697316 0.120859 0.550306 -0.566146
C398  C     C_3   0.648293 0.106915 0.556943 -0.298648
H232  H     H_    0.651413 0.086864 0.576329 0.161803
H233  H     H_    0.628668 0.097109 0.533884 0.137423
H234  H     H_    0.623443 0.126831 0.567401 0.191486
O151  O     O_3   0.674641 0.877938 0.534909 -0.576370
C399  C     C_3   0.648896 0.895475 0.560565 -0.326159
H235  H     H_    0.621373 0.913654 0.549490 0.153977
H236  H     H_    0.676193 0.907891 0.578343 0.166474
H237  H     H_    0.626018 0.877148 0.575433 0.187657
O152  O     O_3   0.327559 0.120400 0.531949 -0.579441
C400  C     C_3   0.361414 0.100568 0.551474 -0.333493
H238  H     H_    0.386344 0.085187 0.534970 0.154570
H239  H     H_    0.340390 0.084917 0.570142 0.169765
H240  H     H_    0.387031 0.117656 0.566040 0.187826

loop_
_geom_bond_atom_site_label_1
_geom_bond_atom_site_label_2
_ccdc_geom_bond_type
C386  H198  S    
O30   Zn22  S    
C40   C71   A    
C231  I15   S    
C130  C146  A    
C382  H185  S    
C189  C205  A    
C390  H208  S    
O6    Zn26  S    
C327  H31   S    
O132  C380  S    
C234  C250  A    
C39   O135  S    
C213  C229  A    
O78   Zn6   S    
C179  C195  A    
C37   O133  S    
C302  H6    S    
O87   Zn15  S    
O82   Zn10  S    
C177  C193  A    
C328  H32   S    
C289  O62   A    
C286  O53   A    
C363  H128  S    
O101  Zn29  S    
C295  O72   A    
C117  C119  A    
C225  I9    S    
O37   Zn29  S    
C159  C201  S    
C59   C291  S    
C25   O121  S    
C304  H8    S    
C390  H209  S    
C171  C251  A    
C380  H180  S    
O136  C384  S    
C186  C202  A    
C247  O119  S    
C274  C275  T    
O41   Zn17  S    
C147  I27   S    
O51   Zn27  S    
C357  H109  S    
C178  C258  A    
C373  H159  S    
C47   H39   S    
C33   O129  S    
C190  C206  A    
C15   C132  S    
O135  C383  S    
C165  O85   A    
C154  O74   A    
C12   C135  S    
C393  H218  S    
C13   C130  S    
O100  Zn28  S    
C227  C243  A    
C156  C206  S    
C13   O101  A    
C158  O78   A    
C359  H117  S    
C33   C69   A    
O92   Zn20  S    
C161  C215  S    
C38   C69   A    
C325  H29   S    
O147  C395  S    
C101  C103  A    
C143  I23   S    
C366  H138  S    
C1    O89   A    
C242  C258  A    
C42   C58   A    
C193  O145  S    
O17   Zn14  S    
C103  H79   S    
C327  C336  A    
C4    O92   A    
C371  H152  S    
O19   Zn16  S    
O110  C358  S    
C370  H150  S    
C53   H45   S    
C392  H215  S    
C223  I7    S    
C300  C316  A    
C139  I19   S    
C75   C91   A    
C6    O14   A    
C393  H219  S    
C19   C347  T    
C233  C249  A    
C98   H74   S    
C367  H141  S    
C305  C341  A    
O7    Zn32  S    
C95   H71   S    
O1    Zn22  S    
C167  C209  S    
C105  C131  A    
C25   C41   A    
C170  H82   S    
O3    Zn24  S    
O21   Zn10  S    
C312  C343  A    
C300  C340  A    
C145  I25   S    
C28   C44   A    
C383  H189  S    
C83   C105  A    
C29   C45   A    
C395  H223  S    
C356  H107  S    
O52   Zn28  S    
C198  O150  S    
C106  C132  A    
C398  H232  S    
O141  C389  S    
O95   Zn23  S    
C302  C337  A    
C137  C139  A    
C90   C92   A    
O119  C367  S    
C228  C244  A    
C387  H201  S    
C118  C128  A    
C358  H114  S    
C291  O59   A    
O3    Zn19  S    
C10   O98   A    
C127  C143  A    
C1    C126  S    
C94   C96   A    
C128  C144  A    
O42   Zn18  S    
C44   H36   S    
C295  O67   A    
C87   C103  A    
C172  C252  A    
C117  C127  A    
C238  C254  A    
O94   Zn22  S    
C35   C51   A    
C360  H118  S    
C317  C330  A    
C142  C144  A    
O69   Zn10  S    
C358  H113  S    
C179  H91   S    
O8    Zn12  S    
O81   Zn9   S    
O18   Zn13  S    
C198  C214  A    
C251  C267  S    
C177  H89   S    
O144  C392  S    
C14   O22   A    
C353  H99   S    
C8    O16   A    
O146  C394  S    
C365  H134  S    
C373  H158  S    
C4    C127  S    
C11   O19   A    
O73   Zn1   S    
C20   C68   S    
O20   Zn15  S    
C231  C247  A    
C306  C322  A    
C299  H3    S    
C399  H235  S    
C138  I18   S    
C142  I22   S    
C310  C341  A    
O115  C363  S    
O28   Zn20  S    
C8    C123  S    
C285  C331  S    
C54   C61   A    
C165  C211  S    
C191  O143  S    
O88   Zn16  S    
C356  H106  S    
O35   Zn27  S    
O31   Zn23  S    
C92   H68   S    
O2    Zn18  S    
C361  H121  S    
C194  O146  S    
C93   H69   S    
C158  O30   A    
C223  C239  A    
O117  C365  S    
O8    Zn31  S    
O77   Zn5   S    
C91   H67   S    
C200  O152  S    
C369  H146  S    
C281  O46   A    
C78   C94   A    
C89   H65   S    
C62   C294  S    
C166  O86   A    
C240  O112  S    
C169  H81   S    
C159  O79   A    
O1    Zn17  S    
C269  C272  T    
C287  C329  S    
C42   H34   S    
C73   C89   A    
O123  C371  S    
C196  C212  A    
O10   Zn5   S    
C375  H164  S    
O145  C393  S    
C366  H136  S    
C306  H10   S    
C285  O49   A    
O6    Zn10  S    
C366  H137  S    
O63   Zn4   S    
C11   C136  S    
C33   C49   A    
C312  H16   S    
C219  I3    S    
C299  C339  A    
O89   Zn17  S    
C248  C264  A    
C369  H147  S    
C182  C262  A    
C25   C65   A    
C324  C336  A    
C197  O149  S    
C207  C223  A    
C368  H142  S    
C115  C121  A    
C109  C135  A    
C110  C136  A    
C301  C338  A    
C140  I20   S    
C157  O77   A    
O80   Zn8   S    
C379  H176  S    
C296  O68   A    
C354  H102  S    
C164  O36   A    
C227  I11   S    
O5    Zn25  S    
C105  C107  A    
C310  H14   S    
C161  O81   A    
C302  C318  A    
C395  H225  S    
C199  C215  A    
C79   H55   S    
C28   C68   A    
C27   O123  S    
O142  C390  S    
C328  C335  A    
C149  C151  A    
O5    Zn30  S    
C263  C279  S    
C372  H155  S    
C176  C256  A    
C319  C332  A    
C196  O148  S    
C169  C249  A    
C358  H112  S    
C123  C139  A    
C138  C140  A    
C78   H54   S    
O67   Zn16  S    
C121  C137  A    
C311  C344  A    
C398  H233  S    
C16   C131  S    
O27   Zn19  S    
C365  H135  S    
C342  C350  S    
C168  O40   A    
C184  C264  A    
C193  C209  A    
C74   H50   S    
O57   Zn6   S    
C125  C141  A    
C184  C200  A    
C183  H95   S    
C360  H120  S    
C322  H26   S    
C131  C147  A    
C309  C342  A    
C75   C113  A    
C82   C108  A    
C89   C91   A    
C284  C334  S    
O137  C385  S    
C108  C130  A    
C36   C52   A    
C43   C59   A    
C114  C124  A    
C166  C212  S    
C152  I32   S    
C281  O41   A    
C93   C95   A    
C180  C260  A    
C9    O97   A    
C210  C226  A    
C325  C334  A    
C381  H181  S    
C236  C252  A    
C399  H237  S    
C294  O66   A    
C355  H104  S    
C88   C104  A    
C359  H116  S    
C380  H178  S    
C118  C120  A    
C400  H239  S    
C2    O10   A    
C356  H108  S    
O93   Zn21  S    
C240  C256  A    
C321  C333  A    
C26   C66   A    
C219  C235  A    
O140  C388  S    
O64   Zn3   S    
C2    O90   A    
C34   O130  S    
C307  C343  A    
C265  C268  T    
C179  C259  A    
C3    C128  S    
C307  C323  A    
C164  C214  S    
C388  H202  S    
C20   C348  T    
C81   C97   A    
C5    C122  S    
C188  C204  A    
O151  C399  S    
C21   C69   S    
C232  C248  A    
C367  H140  S    
C32   O128  S    
C102  C104  A    
O47   Zn23  S    
C194  C210  A    
C286  C332  S    
C310  C326  A    
O99   Zn27  S    
C357  H111  S    
C23   C351  T    
C383  H188  S    
O129  C377  S    
C226  C242  A    
O60   Zn7   S    
C191  C207  A    
C167  O39   A    
C224  C240  A    
C357  H110  S    
C15   O103  A    
C40   O136  S    
C385  H194  S    
C150  I30   S    
C32   C67   A    
O55   Zn31  S    
C15   O23   A    
C6    O94   A    
C387  H200  S    
C368  H144  S    
C377  H170  S    
C394  H221  S    
C291  O64   A    
C382  H186  S    
C29   O125  S    
C4    O12   A    
C99   H75   S    
C86   C102  A    
C315  C331  A    
C97   H73   S    
C26   C42   A    
C48   C59   A    
C236  O108  S    
O9    Zn6   S    
C386  H197  S    
C217  I1    S    
O104  Zn32  S    
C311  H15   S    
O11   Zn8   S    
C281  C335  S    
O49   Zn25  S    
C30   C46   A    
O8    Zn15  S    
C229  I13   S    
C283  C333  S    
C385  H195  S    
C35   O131  S    
C230  C246  A    
C114  C116  A    
C229  C245  A    
C208  C224  A    
C377  H171  S    
C339  C347  S    
C173  C253  A    
C320  H24   S    
C396  H227  S    
O53   Zn29  S    
C202  C218  A    
C24   C352  T    
O105  C353  S    
C88   C110  A    
O91   Zn19  S    
C74   C116  A    
C165  O37   A    
C391  H212  S    
C30   O126  S    
C106  C108  A    
C206  C222  A    
C163  O35   A    
C74   C90   A    
O109  C357  S    
C200  C216  A    
C161  O33   A    
C175  C191  A    
C247  C263  A    
C30   C65   A    
C27   C67   A    
C306  C342  A    
C35   C71   A    
C260  C276  S    
C2    C125  S    
C17   C345  T    
C308  H12   S    
C315  H19   S    
C277  C280  T    
O106  C354  S    
C278  C279  T    
C58   C290  S    
C31   C47   A    
O26   Zn18  S    
C6    C121  S    
C218  I2    S    
C37   C70   A    
C22   C70   S    
C311  C327  A    
C36   C72   A    
C38   O134  S    
O102  Zn30  S    
C189  O141  S    
O74   Zn2   S    
C82   C98   A    
C285  O54   A    
C238  O110  S    
O6    Zn13  S    
C153  O73   A    
O139  C387  S    
C10   C133  S    
C309  C325  A    
C298  C314  A    
C364  H130  S    
C190  O142  S    
C19   C67   S    
C185  O137  S    
C362  H124  S    
C370  H149  S    
C392  H214  S    
C90   H66   S    
C388  H204  S    
C178  C194  A    
O34   Zn26  S    
C52   H44   S    
C116  C122  A    
C204  C220  A    
C290  O61   A    
C160  C202  S    
C237  C253  A    
O120  C368  S    
C293  O65   A    
C246  O118  S    
C233  O105  S    
C141  C143  A    
C288  C330  S    
C296  O71   A    
C120  C126  A    
C376  H168  S    
C258  C274  S    
C313  C329  A    
C225  C241  A    
C386  H196  S    
C187  C203  A    
O84   Zn12  S    
C158  C204  S    
C170  C250  A    
C395  H224  S    
C384  H191  S    
C185  C201  A    
C80   H56   S    
O108  C356  S    
C85   C101  A    
C364  H131  S    
C153  C207  S    
O44   Zn20  S    
C39   C55   A    
C354  H100  S    
C195  O147  S    
C40   C56   A    
C343  C351  S    
C84   C106  A    
C382  H184  S    
C50   H42   S    
C318  C329  A    
C259  C275  S    
C397  H229  S    
C157  C203  S    
C235  C251  A    
C222  I6    S    
C12   O100  A    
O50   Zn26  S    
C34   C70   A    
C122  C138  A    
C45   H37   S    
C246  C262  A    
C374  H162  S    
O5    Zn9   S    
C326  H30   S    
C43   H35   S    
O126  C374  S    
C245  C261  A    
O127  C375  S    
C83   C99   A    
C384  H190  S    
C288  O52   A    
C41   H33   S    
C284  O47   A    
C84   H60   S    
C324  H28   S    
C73   H49   S    
C376  H167  S    
C209  C225  A    
C107  C129  A    
C159  O31   A    
C378  H174  S    
C145  C147  A    
C283  O48   A    
C76   C92   A    
C5    O93   A    
C31   C68   A    
C80   C118  A    
C45   C58   A    
C292  O63   A    
C49   C61   A    
O150  C398  S    
C5    O13   A    
C37   C53   A    
C82   H58   S    
C168  C210  S    
C51   C63   A    
C363  H127  S    
C250  C266  S    
O86   Zn14  S    
C52   C64   A    
C294  O69   A    
O143  C391  S    
C297  C337  A    
C313  H17   S    
C203  C219  A    
C182  H94   S    
O4    Zn23  S    
O3    Zn3   S    
C244  O116  S    
C317  H21   S    
C316  C332  A    
C282  C336  S    
C9    O17   A    
C84   C100  A    
C361  H122  S    
C378  H172  S    
C79   C95   A    
O133  C381  S    
C23   C71   S    
C100  H76   S    
C256  C272  S    
C186  O138  S    
C101  H77   S    
C273  C276  T    
C113  C123  A    
C221  I5    S    
C174  H86   S    
C397  H231  S    
C393  H217  S    
C323  C335  A    
C290  O58   A    
C243  C259  A    
O152  C400  S    
C86   H62   S    
O90   Zn18  S    
C76   H52   S    
O118  C366  S    
O114  C362  S    
O36   Zn28  S    
C389  H207  S    
C119  C125  A    
C399  H236  S    
C391  H211  S    
C60   C292  S    
C61   C293  S    
O68   Zn15  S    
C22   C350  T    
C297  H1    S    
C287  O56   A    
C146  I26   S    
C361  H123  S    
C18   C66   S    
O134  C382  S    
C162  O82   A    
C217  C233  A    
O54   Zn30  S    
O43   Zn19  S    
O131  C379  S    
C364  H132  S    
C57   C289  S    
C371  H151  S    
C226  I10   S    
C164  O84   A    
C392  H216  S    
C309  H13   S    
C78   C120  A    
C54   H46   S    
O25   Zn17  S    
C10   O18   A    
C248  O120  S    
C83   H59   S    
C85   C111  A    
O66   Zn13  S    
C48   H40   S    
C252  C268  S    
O111  C359  S    
C354  H101  S    
O2    Zn5   S    
C175  C255  A    
C87   C109  A    
O29   Zn21  S    
O46   Zn22  S    
O6    Zn29  S    
O58   Zn5   S    
C289  O57   A    
C253  C269  S    
C73   C115  A    
C304  C339  A    
O5    Zn14  S    
O32   Zn24  S    
C3    O91   A    
C28   O124  S    
C41   C57   A    
C385  H193  S    
O76   Zn4   S    
O62   Zn1   S    
C367  H139  S    
C157  O29   A    
C163  C213  S    
C282  O45   A    
C372  H154  S    
C32   C48   A    
C341  C349  S    
C44   C60   A    
C135  C151  A    
C79   C117  A    
C77   C93   A    
C153  O25   A    
C156  O28   A    
C320  C331  A    
C126  C142  A    
C181  C197  A    
C355  H105  S    
O125  C373  S    
C98   C100  A    
C244  C260  A    
C160  O80   A    
C304  C320  A    
C148  I28   S    
C169  C185  A    
C374  H160  S    
C212  C228  A    
C27   C43   A    
C86   C112  A    
C181  C261  A    
O4    Zn20  S    
C307  H11   S    
C396  H226  S    
C286  O50   A    
C384  H192  S    
C221  C237  A    
C360  H119  S    
O38   Zn30  S    
O103  Zn31  S    
C270  C271  T    
C376  H166  S    
C136  C152  A    
C177  C257  A    
C228  I12   S    
O14   Zn1   S    
C154  C208  S    
C297  C313  A    
C14   C129  S    
C187  O139  S    
C192  O144  S    
C362  H126  S    
O85   Zn13  S    
C394  H220  S    
C344  C352  S    
C373  H157  S    
C46   H38   S    
C300  H4    S    
O121  C369  S    
C353  H97   S    
C156  O76   A    
C363  H129  S    
O79   Zn7   S    
C7    C124  S    
O98   Zn26  S    
C31   O127  S    
O97   Zn25  S    
C255  C271  S    
C400  H238  S    
C144  I24   S    
C378  H173  S    
C168  O88   A    
C241  C257  A    
C16   O104  A    
C215  C231  A    
C287  O51   A    
C301  C317  A    
O71   Zn12  S    
C146  C148  A    
C303  C319  A    
C389  H205  S    
C176  C192  A    
C369  H145  S    
C26   O122  S    
C249  C265  S    
C262  C278  S    
C167  O87   A    
O116  C364  S    
C319  H23   S    
O124  C372  S    
C381  H183  S    
C175  H87   S    
O33   Zn25  S    
C176  H88   S    
O122  C370  S    
C355  H103  S    
C389  H206  S    
C245  O117  S    
C109  C111  A    
C264  C280  S    
C47   C60   A    
C293  O70   A    
O7    Zn27  S    
O2    Zn2   S    
C391  H213  S    
C160  O32   A    
C370  H148  S    
C81   C107  A    
C38   C54   A    
C76   C114  A    
C39   C72   A    
C292  O60   A    
C321  H25   S    
C80   C96   A    
C36   O132  S    
C371  H153  S    
C151  I31   S    
C337  C345  S    
C9    C134  S    
C282  O42   A    
C199  O151  S    
O23   Zn12  S    
O149  C397  S    
C368  H143  S    
C224  I8    S    
C211  C227  A    
C326  C333  A    
C162  C216  S    
C192  C208  A    
C170  C186  A    
C234  O106  S    
C21   C349  T    
C305  C321  A    
C63   C295  S    
C379  H175  S    
C97   C99   A    
O4    Zn7   S    
C87   H63   S    
C110  C112  A    
C88   H64   S    
C24   C72   S    
C322  C334  A    
C34   C50   A    
C303  H7    S    
C288  O55   A    
C241  O113  S    
C178  H90   S    
C308  C344  A    
C390  H210  S    
C133  C149  A    
C218  C234  A    
C64   C296  S    
C183  C199  A    
C230  I14   S    
C149  I29   S    
O130  C378  S    
C375  H163  S    
C372  H156  S    
C305  H9    S    
C312  C328  A    
C173  C189  A    
C254  C270  S    
C155  O75   A    
C124  C140  A    
C235  O107  S    
C51   H43   S    
O15   Zn4   S    
C381  H182  S    
O65   Zn14  S    
C195  C211  A    
C96   H72   S    
C49   H41   S    
O1    Zn6   S    
C14   O102  A    
C3    O11   A    
C53   C62   A    
C323  H27   S    
O107  C355  S    
O3    Zn8   S    
C13   O21   A    
C396  H228  S    
C1    O9    A    
C55   C64   A    
C94   H70   S    
C298  H2    S    
O59   Zn8   S    
C56   C63   A    
C261  C277  S    
C104  H80   S    
O96   Zn24  S    
C163  O83   A    
C303  C340  A    
O128  C376  S    
O75   Zn3   S    
O61   Zn2   S    
O72   Zn11  S    
C12   O20   A    
O56   Zn32  S    
C301  H5    S    
C284  O44   A    
C155  C205  S    
C7    O15   A    
C17   C65   S    
C174  C190  A    
C237  O109  S    
C174  C254  A    
C46   C57   A    
C50   C62   A    
C150  C152  A    
C316  H20   S    
O45   Zn21  S    
C102  H78   S    
O40   Zn32  S    
O2    Zn21  S    
O39   Zn31  S    
C81   H57   S    
C359  H115  S    
C314  C330  A    
O24   Zn11  S    
O113  C361  S    
C188  O140  S    
C400  H240  S    
C180  C196  A    
C7    O95   A    
C16   O24   A    
C362  H125  S    
C184  H96   S    
C180  H92   S    
C134  C150  A    
C365  H133  S    
C132  C148  A    
C181  H93   S    
O7    Zn16  S    
C220  C236  A    
O12   Zn7   S    
C220  I4    S    
C111  C133  A    
O13   Zn2   S    
C77   C119  A    
C308  C324  A    
O8    Zn28  S    
C8    O96   A    
C137  I17   S    
C155  O27   A    
C353  H98   S    
C380  H179  S    
C283  O43   A    
C388  H203  S    
O138  C386  S    
C257  C273  S    
C338  C346  S    
C171  C187  A    
C141  I21   S    
O148  C396  S    
C172  H84   S    
C201  C217  A    
C11   O99   A    
C242  O114  S    
C173  H85   S    
C166  O38   A    
O48   Zn24  S    
C239  C255  A    
C299  C315  A    
O4    Zn4   S    
C171  H83   S    
C222  C238  A    
C113  C115  A    
C85   H61   S    
C172  C188  A    
C375  H165  S    
C183  C263  A    
O7    Zn11  S    
C205  C221  A    
C383  H187  S    
C162  O34   A    
C243  O115  S    
C129  C145  A    
O22   Zn9   S    
O70   Zn9   S    
C398  H234  S    
C298  C338  A    
C318  H22   S    
C55   H47   S    
C266  C267  T    
C56   H48   S    
C29   C66   A    
C18   C346  T    
O83   Zn11  S    
C197  C213  A    
C387  H199  S    
C232  I16   S    
C239  O111  S    
C377  H169  S    
C394  H222  S    
C77   H53   S    
C314  H18   S    
C154  O26   A    
C216  C232  A    
C397  H230  S    
C182  C198  A    
C340  C348  S    
O16   Zn3   S    
C75   H51   S    
C112  C134  A    
C379  H177  S    
O1    Zn1   S    
O112  C360  S    
C374  H161  S    
C214  C230  A    
