data_mof_unit_pretest_1367.cif
_audit_creation_date              2012-12-11T14:36:15-0500
_audit_creation_method            fapswitch 2.2
_symmetry_space_group_name_H-M    P1
_symmetry_Int_Tables_number       1
_space_group_crystal_system       triclinic
_cell_length_a                    13.520913
_cell_length_b                    13.494693
_cell_length_c                    27.496569
_cell_angle_alpha                 91.237719
_cell_angle_beta                  90.653513
_cell_angle_gamma                 59.962511
_cell_volume                      4342.22713582

loop_
_atom_site_label
_atom_site_type_symbol
_atom_type_description
_atom_site_fract_x
_atom_site_fract_y
_atom_site_fract_z
_atom_type_partial_charge
C1    C     C_R   0.620730 0.101894 0.570232 0.548378
C2    C     C_1   0.631728 0.733178 0.616322 0.068721
C3    C     C_3   0.727486 0.552845 0.766590 -0.081674
C4    C     C_3   0.684679 0.650198 0.805598 -0.074993
C5    C     C_3   0.614134 0.624814 0.739189 0.218072
C6    C     C_3   0.666251 0.683166 0.710393 0.127101
C7    C     C_3   0.569800 0.720079 0.778672 -0.099445
C8    C     C_3   0.625231 0.776721 0.750148 0.207555
C9    C     C_1   0.691587 0.629867 0.857851 -0.018315
C10   C     C_1   0.650670 0.705991 0.658262 0.114690
C11   C     C_3   0.059371 0.187475 0.732845 0.263133
C12   C     C_R   0.599757 0.779919 0.568738 0.553078
C13   C     C_3   0.120322 0.087528 0.768762 0.283260
C14   C     C_1   0.089057 0.202517 0.900564 0.044925
C15   C     C_1   0.230285 0.139432 0.617071 0.080678
C16   C     C_3   0.070014 0.270277 0.769998 -0.087579
C17   C     C_3   0.133448 0.168844 0.805370 -0.054385
C18   C     C_3   0.186917 0.236771 0.747714 0.200831
C19   C     C_3   0.175128 0.157036 0.710659 0.085711
C20   C     C_3   0.250670 0.137700 0.783504 -0.144780
C21   C     C_3   0.235554 0.058707 0.746405 0.199830
C22   C     C_1   0.112097 0.182801 0.857934 0.039092
C23   C     C_R   0.278063 0.122172 0.569518 0.541506
C24   C     C_1   0.201569 0.149109 0.658888 0.133245
C25   C     C_3   0.634377 0.280520 0.742587 -0.078232
C26   C     C_3   0.552569 0.264886 0.776348 0.224820
C27   C     C_1   0.685125 0.205559 0.904453 0.053589
C28   C     C_1   0.638817 0.136322 0.617992 0.062194
C29   C     C_3   0.734492 0.202037 0.776486 0.264943
C30   C     C_3   0.652450 0.186722 0.809635 -0.003162
C31   C     C_3   0.757851 0.094013 0.746420 -0.075813
C32   C     C_3   0.656388 0.172335 0.713083 0.015101
C33   C     C_3   0.674685 0.078851 0.780065 -0.163105
C34   C     C_R   0.622628 0.101854 0.432302 0.560843
C35   C     C_3   0.574989 0.158166 0.746620 0.257918
C36   C     C_1   0.663874 0.195139 0.862561 0.053221
C37   C     C_1   0.649684 0.156737 0.660149 0.075148
C38   C     C_R   0.742790 0.694848 0.363019 0.176154
C39   C     C_R   0.746747 0.689620 0.311838 0.002013
C40   C     C_R   0.758443 0.664994 0.209873 -0.029562
C41   C     C_R   0.840659 0.678681 0.235173 -0.073329
C42   C     C_R   0.831292 0.698992 0.285137 0.291002
C43   C     C_R   0.769489 0.643261 0.159688 -0.134145
C44   C     C_R   0.684769 0.633329 0.134311 -0.018646
C45   C     C_R   0.604439 0.771421 0.431706 0.578015
C46   C     C_R   0.579863 0.665756 0.362626 0.246887
C47   C     C_R   0.575464 0.666695 0.311316 -0.012672
C48   C     C_R   0.661280 0.677382 0.286139 -0.099901
C49   C     C_R   0.486088 0.663827 0.284333 0.244274
C50   C     C_R   0.484774 0.669503 0.233079 0.244182
C51   C     C_R   0.576836 0.667193 0.208951 0.025112
C52   C     C_R   0.664964 0.670730 0.235083 -0.001875
C53   C     C_R   0.584352 0.656435 0.158446 -0.062938
C54   C     C_R   0.648433 0.701444 0.386823 0.011057
C55   C     C_R   0.209946 0.055483 0.359105 0.198872
C56   C     C_R   0.275089 0.121442 0.431780 0.548176
C57   C     C_R   0.189013 0.068480 0.308714 0.010006
C58   C     C_R   0.160164 0.090784 0.206856 0.036690
C59   C     C_R   0.189256 0.987083 0.228945 -0.099523
C60   C     C_R   0.204308 0.975908 0.278898 -0.092655
C61   C     C_R   0.140263 0.104717 0.156346 0.207282
C62   C     C_R   0.104374 0.212854 0.136185 0.019850
C63   C     C_R   0.159613 0.256063 0.366807 0.221394
C64   C     C_R   0.147149 0.268356 0.316146 0.036942
C65   C     C_R   0.161279 0.173617 0.287122 -0.054322
C66   C     C_R   0.124547 0.370840 0.293144 0.286162
C67   C     C_3   0.779240 0.614248 0.738142 0.206431
C68   C     C_R   0.111445 0.379319 0.242998 -0.087285
C69   C     C_R   0.121808 0.287638 0.214716 -0.041421
C70   C     C_R   0.147804 0.183909 0.236241 0.017845
C71   C     C_R   0.102517 0.300574 0.165120 -0.140272
C72   C     C_R   0.207783 0.145740 0.386602 0.000327
C73   C     C_R   0.556763 0.246416 0.366291 0.244672
C74   C     C_R   0.563330 0.262486 0.316173 -0.031198
C75   C     C_R   0.572399 0.283755 0.213615 0.031274
C76   C     C_R   0.470571 0.355674 0.240475 0.276479
C77   C     C_R   0.468080 0.344384 0.290636 -0.065705
C78   C     C_3   0.738922 0.709913 0.778008 -0.100853
C79   C     C_R   0.583746 0.290515 0.162238 0.243974
C80   C     C_R   0.690299 0.218015 0.139694 -0.000384
C81   C     C_R   0.747679 0.080085 0.363764 -0.147135
C82   C     C_R   0.759740 0.100970 0.315467 0.014370
C83   C     C_R   0.664306 0.188746 0.290598 -0.016025
C84   C     C_R   0.862515 0.030762 0.290533 0.238647
C85   C     C_R   0.867791 0.043460 0.241025 -0.071510
C86   C     C_R   0.772004 0.125271 0.215827 -0.040343
C87   C     C_R   0.669389 0.200228 0.239998 -0.022270
C88   C     C_R   0.780523 0.133615 0.166609 -0.160542
C89   C     C_1   0.698142 0.605531 0.900055 0.024964
C90   C     C_R   0.644274 0.146510 0.387945 0.024671
C91   C     C_R   0.047580 0.236477 0.949360 0.555559
C92   C     C_R   0.711621 0.562316 0.948180 0.549532
C93   C     C_R   0.720876 0.224723 0.951383 0.551447
C94   C     C_R   0.048734 0.245146 0.088427 0.574743
C95   C     C_R   0.707924 0.574497 0.086839 0.537075
C96   C     C_R   0.720068 0.235031 0.090297 0.565468
Cr1   Cr    Cr6+3 0.417550 0.169090 0.500530 1.147266
Cr2   Cr    Cr6+3 0.669180 0.913420 0.499920 1.129498
Cr3   Cr    Cr6+3 0.413260 0.917540 0.499520 1.154199
Cr4   Cr    Cr6+3 0.909170 0.177380 0.020380 1.117747
Cr5   Cr    Cr6+3 0.912710 0.429210 0.018220 1.060699
Cr6   Cr    Cr6+3 0.657170 0.432570 0.019030 1.123748
H1    H     H_    0.789414 0.746569 0.794266 0.152875
H2    H     H_    0.327560 0.115551 0.805830 0.119696
H3    H     H_    0.001876 0.357795 0.780614 0.187478
H4    H     H_    0.621405 0.360974 0.726821 0.192350
H5    H     H_    0.688400 0.997473 0.795363 0.138765
H6    H     H_    0.843332 0.025813 0.733903 0.210587
H7    H     H_    0.846162 0.628285 0.141049 0.133166
H8    H     H_    0.909113 0.680318 0.215696 0.157008
H9    H     H_    0.516728 0.653248 0.138253 0.228719
H10   H     H_    0.200359 0.913437 0.208055 0.197180
H11   H     H_    0.229750 0.893011 0.293474 0.205205
H12   H     H_    0.077420 0.383286 0.149775 0.157545
H13   H     H_    0.093524 0.458348 0.225928 0.173050
H14   H     H_    0.387816 0.397972 0.309144 0.220467
H15   H     H_    0.862245 0.076046 0.149718 0.177170
H16   H     H_    0.484935 0.762237 0.796507 0.133353
H17   H     H_    0.947226 0.988125 0.222023 0.161834
H18   H     H_    0.816096 0.007223 0.381893 0.211485
H19   H     H_    0.769600 0.459866 0.773312 0.204118
O1    O     O_R   0.301710 0.195650 0.554160 -0.484773
O2    O     O_R   0.658900 0.818120 0.449760 -0.465540
O3    O     O_R   0.503220 0.801620 0.445520 -0.433187
O4    O     O_R   0.319370 0.022040 0.450020 -0.435678
O5    O     O_3   0.499990 0.000010 0.499990 -0.308142
O6    O     O_R   0.818720 0.150820 0.967160 -0.489147
O7    O     O_R   0.006410 0.181720 0.970200 -0.473695
O8    O     O_R   0.027890 0.334070 0.964920 -0.498537
O9    O     O_R   0.809600 0.521790 0.967960 -0.495015
O10   O     O_R   0.635520 0.542770 0.964420 -0.487995
O11   O     O_R   0.665950 0.325030 0.970100 -0.483683
O12   O     O_R   0.522390 0.158990 0.550460 -0.483402
O13   O     O_R   0.816620 0.158530 0.074540 -0.517291
O14   O     O_R   0.004460 0.188870 0.069750 -0.444523
O15   O     O_R   0.025800 0.341780 0.072300 -0.522100
O16   O     O_R   0.807650 0.528950 0.067500 -0.504416
O17   O     O_R   0.633420 0.550490 0.071810 -0.494416
O18   O     O_R   0.664000 0.332180 0.069640 -0.442687
O19   O     O_3   0.826350 0.346390 0.019210 -0.284763
O20   O     O_R   0.694390 0.003530 0.554040 -0.489685
O21   O     O_R   0.657700 0.819660 0.549320 -0.486277
O22   O     O_R   0.501930 0.803280 0.552920 -0.479526
O23   O     O_R   0.318170 0.023580 0.549580 -0.495337
O24   O     O_R   0.303010 0.193990 0.446760 -0.473925
O25   O     O_R   0.523600 0.157450 0.450900 -0.428578
O26   O     O_R   0.695690 0.001860 0.446640 -0.508883
O27   O     O_3   0.221154 0.315044 0.735452 -0.580081
H20   H     H_    0.209620 0.361952 0.765333 0.376060
Cl1   Cl    Cl    0.416365 0.375839 0.796446 -0.550314
O28   O     O_3   0.490086 0.136804 0.729105 -0.598651
H21   H     H_    0.445287 0.142315 0.758141 0.347111
Cl2   Cl    Cl    0.834806 0.236725 0.802436 -0.573308
Cl3   Cl    Cl    0.916795 0.545080 0.710574 -0.514016
Cl4   Cl    Cl    0.862581 0.671376 0.398751 -0.426685
O29   O     O_3   0.900960 0.735549 0.305652 -0.547458
H22   H     H_    0.852344 0.801447 0.327453 0.362366
O30   O     O_3   0.397585 0.672247 0.205106 -0.632812
H23   H     H_    0.326973 0.702443 0.224484 0.389472
Cl5   Cl    Cl    0.371137 0.659237 0.312601 -0.473886
Cl6   Cl    Cl    0.521453 0.600580 0.398945 -0.447292
Cl7   Cl    Cl    0.160780 0.987636 0.118586 -0.575734
O31   O     O_3   0.239456 0.953886 0.381652 -0.624607
H24   H     H_    0.188021 0.926550 0.369389 0.380364
O32   O     O_3   0.571955 0.893504 0.740653 -0.627077
H25   H     H_    0.543998 0.932319 0.772678 0.321807
Cl8   Cl    Cl    0.122230 0.488617 0.323481 -0.338451
O33   O     O_3   0.125477 0.351465 0.396550 -0.559147
H26   H     H_    0.104637 0.335888 0.428814 0.344127
Cl9   Cl    Cl    0.468792 0.381824 0.124105 -0.458786
O34   O     O_3   0.463636 0.322403 0.393894 -0.623089
H27   H     H_    0.439900 0.401026 0.383450 0.376210
Cl10  Cl    Cl    0.339499 0.462162 0.216254 -0.440813
Cl11  Cl    Cl    0.986976 0.924969 0.319397 -0.560123
O35   O     O_3   0.549056 0.581232 0.717971 -0.650331
H28   H     H_    0.512176 0.565959 0.745507 0.351633
Cl12  Cl    Cl    0.080683 0.983815 0.782897 -0.486528
Cl13  Cl    Cl    0.938639 0.220303 0.695324 -0.499546
O36   O     O_3   0.321629 0.949218 0.732296 -0.628164
H29   H     H_    0.323412 0.897813 0.757835 0.350605

loop_
_geom_bond_atom_site_label_1
_geom_bond_atom_site_label_2
_ccdc_geom_bond_type
C66   C68   A    
O34   H27   S    
O32   H25   S    
Cr4   O6    S    
C34   O25   A    
C41   C42   A    
C83   C87   A    
O31   H24   S    
C33   H5    S    
Cr1   O12   S    
C74   C83   A    
C43   C44   A    
C2    C12   S    
C20   C21   S    
C96   O18   A    
C34   C90   S    
C81   C82   A    
C7    C8    S    
Cr3   O4    S    
C85   C86   A    
C45   O2    A    
C81   H18   S    
C11   C19   S    
Cr1   O1    S    
C66   Cl8   S    
C67   Cl3   S    
C79   Cl9   S    
Cr3   O22   S    
O29   H22   S    
C19   C21   S    
Cr6   O11   S    
C73   C90   A    
C18   O27   S    
Cr6   O17   S    
C5    C6    S    
C86   C88   A    
Cr2   O26   S    
C65   C70   A    
C17   C20   S    
C85   H17   S    
C18   C19   S    
C73   C74   A    
C56   O24   A    
C69   C71   A    
C39   C42   A    
Cr4   O19   S    
C44   C53   A    
C40   C43   A    
C31   C32   S    
C16   C17   S    
C56   C72   S    
C46   Cl6   S    
C1    C28   S    
C94   O15   A    
O28   H21   S    
C31   C33   S    
C49   Cl5   S    
C73   O34   S    
C93   O11   A    
C55   C72   A    
Cr4   O14   S    
C88   H15   S    
Cr5   O9    S    
C53   H9    S    
C25   C32   S    
C15   C23   S    
C59   C60   A    
Cr2   O21   S    
C8    C78   S    
C5    O35   S    
C7    H16   S    
C46   C54   A    
C60   H11   S    
C61   C62   A    
C67   C78   S    
C35   O28   S    
C38   Cl4   S    
C4    C7    S    
C1    O12   A    
Cr5   O19   S    
Cr4   O13   S    
C25   H4    S    
C50   C51   A    
C23   O1    A    
C76   C77   A    
C45   O3    A    
C25   C29   S    
Cr2   O2    S    
C3    C67   S    
C95   O16   A    
C91   O7    A    
C61   Cl7   S    
C32   C35   S    
O33   H26   S    
Cr3   O5    S    
C26   Cl1   S    
C92   O10   A    
C84   C85   A    
C47   C49   A    
C9    C89   T    
C5    C7    S    
Cr5   O16   S    
C86   C87   A    
C68   C69   A    
C57   C60   A    
C6    C8    S    
C25   C26   S    
C40   C52   A    
C74   C77   A    
C50   O30   S    
C79   C80   A    
C71   H12   S    
C51   C53   A    
C64   C66   A    
C42   O29   S    
C75   C76   A    
C93   O6    A    
C4    C78   S    
C29   C30   S    
C34   O26   A    
Cr3   O23   S    
C47   C48   A    
C38   C54   A    
C21   O36   S    
C29   C31   S    
C84   Cl11  S    
C59   H10   S    
C13   C21   S    
C11   Cl13  S    
Cr6   O19   S    
C32   C37   S    
Cr6   O10   S    
C89   C92   S    
O36   H29   S    
C16   H3    S    
C91   O8    A    
C81   C90   A    
Cr2   O5    S    
C75   C87   A    
C40   C41   A    
C45   C54   S    
C26   C30   S    
C82   C84   A    
C41   H8    S    
C62   C94   S    
Cr2   O20   S    
C63   O33   S    
O30   H23   S    
C49   C50   A    
C23   O23   A    
C27   C93   S    
C80   C96   S    
C3    C4    S    
C77   H14   S    
C31   H6    S    
C29   Cl2   S    
Cr5   O15   S    
C46   C47   A    
C76   Cl10  S    
C95   O17   A    
C30   C33   S    
C78   H1    S    
Cr4   O7    S    
Cr1   O24   S    
C16   C18   S    
C58   C70   A    
C57   C65   A    
Cr1   O5    S    
C3    C5    S    
C6    C10   S    
C96   O13   A    
C20   H2    S    
C30   C36   S    
C27   C36   T    
C17   C22   S    
C12   O22   A    
C13   C17   S    
C94   O14   A    
C64   C65   A    
C14   C22   T    
C55   C57   A    
C19   C24   S    
C58   C59   A    
C55   O31   S    
C51   C52   A    
C80   C88   A    
O35   H28   S    
C6    C67   S    
C15   C24   T    
C11   C13   S    
C38   C39   A    
C28   C37   T    
C58   C61   A    
C13   Cl12  S    
C33   C35   S    
C12   O21   A    
C62   C71   A    
C18   C20   S    
Cr6   O18   S    
C69   C70   A    
C14   C91   S    
C11   C16   S    
C1    O20   A    
C8    O32   S    
C68   H13   S    
C63   C64   A    
Cr1   O25   S    
C26   C35   S    
C48   C52   A    
C63   C72   A    
C56   O4    A    
C82   C83   A    
C44   C95   S    
C92   O9    A    
C39   C48   A    
C43   H7    S    
C4    C9    S    
C75   C79   A    
O27   H20   S    
C3    H19   S    
Cr5   O8    S    
Cr3   O3    S    
C2    C10   T    
