data_mof_unit_pretest_1750.cif
_audit_creation_date              2012-12-10T16:50:29-0500
_audit_creation_method            fapswitch 2.2
_symmetry_space_group_name_H-M    P1
_symmetry_Int_Tables_number       1
_space_group_crystal_system       triclinic
_cell_length_a                    18.880329
_cell_length_b                    18.864454
_cell_length_c                    18.752377
_cell_angle_alpha                 109.38789
_cell_angle_beta                  109.368467
_cell_angle_gamma                 109.656341
_cell_volume                      5141.51169832

loop_
_atom_site_label
_atom_site_type_symbol
_atom_type_description
_atom_site_fract_x
_atom_site_fract_y
_atom_site_fract_z
_atom_type_partial_charge
C1    C     C_R   0.383309 0.381200 0.502755 0.925042
C2    C     C_R   0.596384 0.339847 0.614619 -0.141352
C3    C     C_2   0.258392 0.179940 0.505445 -0.153307
C4    C     C_R   0.619300 0.500335 0.619654 0.877363
C5    C     C_2   0.181989 0.175720 0.488144 -0.332909
C6    C     C_2   0.319963 0.241428 0.494714 -0.161208
C7    C     C_2   0.324190 0.317864 0.511836 -0.330786
C8    C     C_2   0.173213 0.492830 0.250340 -0.155904
C9    C     C_2   0.185132 0.509708 0.190094 -0.340866
C10   C     C_2   0.245932 0.504325 0.322991 -0.154251
C11   C     C_2   0.306077 0.488391 0.310700 -0.334940
C12   C     C_R   0.758428 0.580880 0.755502 0.074456
C13   C     C_2   0.746702 0.829943 0.510455 0.194687
C14   C     C_2   0.817385 0.825711 0.512941 -0.407299
C15   C     C_2   0.688428 0.765260 0.521803 -0.151910
C16   C     C_R   0.616948 0.619081 0.497552 0.945590
C17   C     C_2   0.673569 0.683668 0.487262 -0.400276
C18   C     C_R   0.995527 0.381157 0.876078 0.930619
C19   C     C_R   0.877647 0.500132 0.877562 0.880067
C20   C     C_R   0.999201 0.618978 0.118473 0.914026
C21   C     C_R   0.116861 0.502188 0.118679 0.928632
C22   C     C_R   0.997330 0.116510 0.618819 0.924315
C23   C     C_R   0.812078 0.500412 0.812078 -0.207051
C24   C     C_R   0.118648 0.116651 0.497293 0.933714
C25   C     C_R   0.002557 0.883211 0.381163 0.951768
C26   C     C_R   0.881280 0.883982 0.503242 0.923431
C27   C     C_2   0.920268 0.179049 0.673388 -0.157906
C28   C     C_R   0.378077 0.497332 0.379621 0.936973
C29   C     C_2   0.992718 0.175244 0.687005 -0.333637
C30   C     C_2   0.919832 0.240682 0.745181 -0.157946
C31   C     C_2   0.991816 0.317582 0.804223 -0.333427
C32   C     C_2   0.076224 0.811535 0.332074 -0.150547
C33   C     C_2   0.009797 0.826602 0.313597 -0.397774
C34   C     C_R   0.742232 0.420182 0.738381 0.076213
C35   C     C_2   0.081452 0.753626 0.261071 0.190370
C36   C     C_2   0.005915 0.682973 0.192921 -0.413044
C37   C     C_R   0.773745 0.661495 0.759397 -0.145473
C38   C     C_R   0.841405 0.739842 0.833697 -0.143509
C39   C     C_R   0.894965 0.739695 0.905203 -0.144766
C40   C     C_R   0.884035 0.661211 0.900576 -0.145707
C41   C     C_R   0.818612 0.580755 0.823431 0.075152
C42   C     C_3   0.729934 0.900864 0.500864 -0.336166
C43   C     C_3   0.654577 0.904252 0.512676 -0.929155
C44   C     C_3   0.168669 0.771037 0.266678 -0.329487
C45   C     C_R   0.673683 0.420301 0.679299 0.077062
C46   C     C_3   0.248144 0.847433 0.353202 -0.926487
C47   C     C_R   0.684572 0.500603 0.685997 -0.205928
C48   C     C_R   0.738580 0.339585 0.722278 -0.142418
C49   C     C_R   0.664045 0.261215 0.655190 -0.145722
C50   C     C_R   0.592046 0.261349 0.603039 -0.146144
H1    H     H_    0.533112 0.200520 0.552565 0.130738
H2    H     H_    0.656727 0.783912 0.557383 0.182884
H3    H     H_    0.734539 0.665400 0.705430 0.151865
H4    H     H_    0.699734 0.662306 0.446137 0.163722
H5    H     H_    0.860808 0.135286 0.610712 0.161717
H6    H     H_    0.048939 0.211910 0.752115 0.159464
H7    H     H_    0.860019 0.224459 0.747540 0.156908
H8    H     H_    0.048337 0.337637 0.796013 0.159065
H9    H     H_    0.127176 0.842953 0.399159 0.181163
H10   H     H_    0.961882 0.800814 0.246462 0.162341
H11   H     H_    0.946172 0.666442 0.195547 0.151406
H12   H     H_    0.162059 0.212072 0.459619 0.157922
H13   H     H_    0.851431 0.800797 0.836208 0.137682
H14   H     H_    0.945984 0.800532 0.963973 0.137705
H15   H     H_    0.927045 0.664840 0.958326 0.152921
H16   H     H_    0.792954 0.335824 0.760505 0.142249
H17   H     H_    0.661764 0.200277 0.644582 0.130834
H18   H     H_    0.538372 0.336341 0.572717 0.142578
H19   H     H_    0.274360 0.136360 0.524277 0.163206
H20   H     H_    0.593138 0.841536 0.464372 0.269492
H21   H     H_    0.668195 0.919529 0.579929 0.258351
H22   H     H_    0.646444 0.956295 0.502317 0.252239
H23   H     H_    0.363580 0.225394 0.476060 0.156508
H24   H     H_    0.789377 0.965197 0.549904 0.196229
H25   H     H_    0.715588 0.890753 0.434720 0.225363
H26   H     H_    0.245903 0.908348 0.366422 0.264022
H27   H     H_    0.251741 0.834408 0.407504 0.258958
H28   H     H_    0.307884 0.856339 0.349723 0.256557
H29   H     H_    0.174259 0.712020 0.256206 0.204457
H30   H     H_    0.171273 0.784872 0.214184 0.223509
H31   H     H_    0.287768 0.337859 0.540186 0.158053
H32   H     H_    0.111426 0.474693 0.248736 0.165608
H33   H     H_    0.249402 0.537476 0.197340 0.159065
H34   H     H_    0.248057 0.522378 0.385348 0.164693
H35   H     H_    0.298573 0.460775 0.245981 0.158288
H36   H     H_    0.833752 0.781875 0.530998 0.149189
O1    O     O_R   0.409870 0.358470 0.449260 -0.622713
O2    O     O_R   0.948030 0.090450 0.538510 -0.621315
O3    O     O_R   0.141850 0.090470 0.551380 -0.618118
O4    O     O_R   0.409230 0.460600 0.550770 -0.623315
O5    O     O_R   0.039050 0.090460 0.448590 -0.621677
O6    O     O_R   0.051970 0.909550 0.461490 -0.623931
O7    O     O_R   0.949170 0.909540 0.358700 -0.620154
O8    O     O_R   0.960950 0.909540 0.551410 -0.615579
O9    O     O_R   0.858150 0.909530 0.448620 -0.630019
O10   O     O_R   0.591360 0.448940 0.540280 -0.624974
O11   O     O_R   0.590720 0.551070 0.641790 -0.624842
O12   O     O_R   0.048480 0.460610 0.906920 -0.619040
O13   O     O_R   0.590770 0.539400 0.449230 -0.618256
O14   O     O_R   0.590130 0.641530 0.550740 -0.630168
O15   O     O_R   0.409280 0.448930 0.358210 -0.621682
O16   O     O_R   0.408640 0.551060 0.459720 -0.618436
O17   O     O_R   0.946350 0.358500 0.906960 -0.621332
O18   O     O_R   0.854760 0.448970 0.905840 -0.624629
O19   O     O_R   0.956890 0.551080 0.905790 -0.622735
O20   O     O_R   0.945260 0.539450 0.086770 -0.614784
O21   O     O_R   0.047380 0.641560 0.086730 -0.637718
O22   O     O_R   0.036850 0.448980 0.087900 -0.612674
O23   O     O_R   0.138970 0.551100 0.087860 -0.629531
O24   O     O_R   0.050830 0.090460 0.641300 -0.621049
Zn1   Zn    Zn3+2 0.500430 0.431810 0.432220 0.953448
Zn2   Zn    Zn3+2 0.499570 0.568190 0.567780 0.946206
Zn3   Zn    Zn3+2 0.928680 0.431850 0.996880 0.952242
Zn4   Zn    Zn3+2 0.065060 0.568210 0.996820 0.940835
Zn5   Zn    Zn3+2 0.068640 0.000010 0.568630 0.951841
Zn6   Zn    Zn3+2 0.931360 0.999990 0.431370 0.944969

loop_
_geom_bond_atom_site_label_1
_geom_bond_atom_site_label_2
_ccdc_geom_bond_type
C26   O8    A    
O3    Zn5   S    
C1    O1    A    
C1    O4    A    
C22   C29   S    
C27   C29   D    
O16   Zn2   S    
C35   C36   D    
O4    Zn2   S    
C3    C6    S    
C24   O3    A    
C46   H26   S    
C25   O7    A    
C39   H14   S    
C42   H25   S    
C37   C38   A    
C8    H32   S    
C31   H8    S    
O17   Zn3   S    
C2    H18   S    
C30   C31   D    
C27   H5    S    
O12   Zn4   S    
O1    Zn1   S    
C30   H7    S    
O5    Zn6   S    
C12   C37   A    
C2    C50   A    
C4    O10   A    
C28   O15   A    
C8    C9    D    
C22   O24   A    
C22   O2    A    
C20   O21   A    
C37   H3    S    
C13   C14   D    
C27   C30   S    
C12   C47   A    
C13   C42   S    
C44   C46   S    
C20   O20   A    
C45   C47   A    
C2    C45   A    
C38   C39   A    
O10   Zn1   S    
C42   H24   S    
O20   Zn3   S    
C32   C35   S    
O19   Zn4   S    
C44   H30   S    
C14   H36   S    
C39   C40   A    
C46   H28   S    
O11   Zn2   S    
C16   O14   A    
O7    Zn6   S    
O22   Zn3   S    
O2    Zn6   S    
C19   C23   S    
O21   Zn4   S    
C12   C41   A    
C19   O18   A    
O9    Zn6   S    
C23   C34   A    
O13   Zn1   S    
C50   H1    S    
C34   C45   A    
C15   H2    S    
C14   C26   S    
C35   C44   S    
O23   Zn4   S    
C9    H33   S    
C19   O19   A    
C48   C49   A    
C7    H31   S    
O14   Zn2   S    
C43   H20   S    
C40   H15   S    
C13   C15   S    
C34   C48   A    
C42   C43   S    
C36   H11   S    
C24   O5    A    
C6    H23   S    
C38   H13   S    
C26   O9    A    
C15   C17   D    
C43   H22   S    
C40   C41   A    
C25   O6    A    
C43   H21   S    
C49   H17   S    
C3    H19   S    
C1    C7    S    
C44   H29   S    
C3    C5    D    
C46   H27   S    
C21   O23   A    
O8    Zn5   S    
C16   O13   A    
C6    C7    D    
C29   H6    S    
C33   H10   S    
C23   C41   A    
C32   C33   D    
C9    C21   S    
C16   C17   S    
C5    C24   S    
C11   C28   S    
C11   H35   S    
O15   Zn1   S    
C17   H4    S    
C10   H34   S    
C5    H12   S    
C18   O17   A    
O6    Zn5   S    
C21   O22   A    
C10   C11   D    
O18   Zn3   S    
C20   C36   S    
C28   O16   A    
C8    C10   S    
C49   C50   A    
C18   C31   S    
C18   O12   A    
C32   H9    S    
C48   H16   S    
C4    O11   A    
O24   Zn5   S    
C25   C33   S    
C4    C47   S    
