data_mof_unit_pretest_1371.cif
_audit_creation_date              2012-10-26T19:56:13-0400
_audit_creation_method            fapswitch 2.2
_symmetry_space_group_name_H-M    P1
_symmetry_Int_Tables_number       1
_space_group_crystal_system       triclinic
_cell_length_a                    10.823217
_cell_length_b                    10.615762
_cell_length_c                    9.449472
_cell_angle_alpha                 90.77819
_cell_angle_beta                  89.999201
_cell_angle_gamma                 90.475361
_cell_volume                      1085.57560156

loop_
_atom_site_label
_atom_site_type_symbol
_atom_type_description
_atom_site_fract_x
_atom_site_fract_y
_atom_site_fract_z
_atom_type_partial_charge
C1    C     C_R   0.498646 0.259476 0.499079 0.538378
C2    C     C_3   0.405580 0.041628 0.579733 -0.123750
C3    C     C_3   0.501735 0.877617 0.502477 0.048939
C4    C     C_3   0.498265 0.122383 0.497523 0.048939
C5    C     C_3   0.514419 0.962469 0.634361 -0.112744
C6    C     C_3   0.485581 0.037530 0.365639 -0.112744
C7    C     C_3   0.450309 0.601903 0.052172 -0.024741
C8    C     C_3   0.549691 0.398097 0.947828 -0.024741
C9    C     C_3   0.390062 0.506167 0.950962 0.477689
C10   C     C_3   0.609938 0.493833 0.049038 0.477689
C11   C     C_3   0.561866 0.595666 0.950473 -0.048953
C12   C     C_R   0.501354 0.740524 0.500921 0.538378
C13   C     C_3   0.438134 0.404334 0.049527 -0.048952
C14   C     C_R   0.262633 0.495301 0.499678 0.535424
C15   C     C_R   0.737367 0.504699 0.500322 0.535425
C16   C     C_R   0.138612 0.292247 0.036126 -0.036212
C17   C     C_R   0.861388 0.707752 0.963874 -0.036213
C18   C     C_R   0.108878 0.379378 0.142905 0.484619
C19   C     C_R   0.891121 0.620622 0.857095 0.484618
C20   C     C_R   0.115775 0.345293 0.285595 0.033630
C21   C     C_R   0.884225 0.654707 0.714405 0.033630
C22   C     C_R   0.158148 0.225107 0.320702 -0.155765
C23   C     C_R   0.871357 0.506656 0.500544 -0.003697
C24   C     C_R   0.841852 0.774893 0.679298 -0.155765
C25   C     C_R   0.189643 0.138973 0.213503 -0.147599
C26   C     C_R   0.810357 0.861026 0.786497 -0.147599
C27   C     C_R   0.178795 0.172014 0.071459 -0.205259
C28   C     C_R   0.821205 0.827986 0.928541 -0.205258
C29   C     C_R   0.931787 0.435878 0.396343 -0.092952
C30   C     C_R   0.068213 0.564122 0.603657 -0.092952
C31   C     C_R   0.128643 0.493344 0.499456 -0.003697
C32   C     C_R   0.940061 0.572376 0.605035 0.000032
C33   C     C_R   0.059939 0.427624 0.394965 0.000032
C34   C     C_3   0.607007 0.045547 0.551947 -0.129552
C35   C     C_3   0.392993 0.954453 0.448053 -0.129552
C36   C     C_3   0.594420 0.958372 0.420266 -0.123750
Cu1   Cu    Cu3+1 0.500030 0.499990 0.643150 1.005200
Cu2   Cu    Cu3+1 0.499970 0.500010 0.356850 1.005199
F1    F     F_    0.272433 0.515900 0.896047 -0.600711
F2    F     F_    0.727566 0.484099 0.103953 -0.600711
F3    F     F_    0.072323 0.496836 0.108390 -0.553927
F4    F     F_    0.927675 0.503162 0.891609 -0.553926
H1    H     H_    0.202026 0.104679 0.988832 0.124715
H2    H     H_    0.837616 0.803284 0.569740 0.112877
H3    H     H_    0.219594 0.045477 0.239923 0.128294
H4    H     H_    0.780406 0.954523 0.760077 0.128294
H5    H     H_    0.878609 0.383266 0.317777 0.186675
H6    H     H_    0.121391 0.616734 0.682223 0.186674
H7    H     H_    0.671922 0.921000 0.355645 0.109041
H8    H     H_    0.328078 0.079000 0.644355 0.109041
H9    H     H_    0.694236 0.088307 0.592273 0.106037
H10   H     H_    0.305764 0.911693 0.407727 0.106036
H11   H     H_    0.526458 0.928962 0.744263 0.119431
H12   H     H_    0.797974 0.895321 0.011168 0.124715
H13   H     H_    0.473542 0.071038 0.255737 0.119431
H14   H     H_    0.407142 0.686810 0.100207 0.125621
H15   H     H_    0.592858 0.313190 0.899793 0.125621
H16   H     H_    0.611003 0.676719 0.903252 0.114489
H17   H     H_    0.388997 0.323280 0.096748 0.114488
H18   H     H_    0.130695 0.317698 0.926012 0.205959
H19   H     H_    0.869304 0.682301 0.073988 0.205959
H20   H     H_    0.162384 0.196717 0.430260 0.112877
N1    N     N_3   0.500090 0.499970 0.858290 -0.266702
N2    N     N_3   0.499910 0.500030 0.141710 -0.266702
O1    O     O_R   0.500060 0.316850 0.620870 -0.512416
O2    O     O_R   0.499940 0.683150 0.379130 -0.512416
O3    O     O_R   0.500000 0.316860 0.379090 -0.506992
O4    O     O_R   0.500000 0.683140 0.620910 -0.506993
O5    O     O_R   0.319670 0.500010 0.620890 -0.441133
O6    O     O_R   0.680330 0.499990 0.379110 -0.441134
O7    O     O_R   0.319620 0.500010 0.379110 -0.493943
O8    O     O_R   0.680380 0.499990 0.620890 -0.493942

loop_
_geom_bond_atom_site_label_1
_geom_bond_atom_site_label_2
_ccdc_geom_bond_type
C2    C35   S    
Cu2   O6    S    
C8    C13   S    
Cu1   O5    S    
C14   O7    A    
C6    H13   S    
C7    C11   S    
C15   O8    A    
C12   O4    A    
C34   H9    S    
C29   H5    S    
C23   C29   A    
C5    H11   S    
C19   C21   A    
C24   C26   A    
C11   N1    S    
C30   C31   A    
Cu1   O4    S    
C29   C33   A    
C9    F1    S    
C6    C35   S    
C10   F2    S    
C16   H18   S    
C9    C13   S    
C3    C12   S    
C2    H8    S    
C17   C19   A    
Cu2   O2    S    
C22   C25   A    
Cu1   O1    S    
C1    O1    A    
C31   C33   A    
C11   H16   S    
C14   C31   S    
C18   C20   A    
C19   F4    S    
C17   H19   S    
C16   C27   A    
C15   C23   S    
C7    H14   S    
Cu1   N1    S    
Cu2   N2    S    
C21   C32   S    
C4    C34   S    
C4    C6    S    
C18   F3    S    
C28   H12   S    
C12   O2    A    
C2    C4    S    
Cu1   Cu2   S    
C8    H15   S    
C22   H20   S    
C3    C35   S    
C5    C34   S    
C20   C33   S    
C16   C18   A    
C20   C22   A    
C24   H2    S    
C14   O5    A    
Cu1   O8    S    
C2    C5    S    
C25   H3    S    
C30   H6    S    
C7    C9    S    
C15   O6    A    
Cu2   O7    S    
C9    N1    S    
C17   C28   A    
C10   N2    S    
C3    C5    S    
C13   H17   S    
C25   C27   A    
C26   C28   A    
C1    C4    S    
C23   C32   A    
C30   C32   A    
C13   N2    S    
C3    C36   S    
C1    O3    A    
C6    C36   S    
C34   C36   S    
C7    N2    S    
C10   C11   S    
C26   H4    S    
C8    N1    S    
C27   H1    S    
Cu2   O3    S    
C8    C10   S    
C21   C24   A    
C35   H10   S    
C36   H7    S    
