data_mof_unit_pretest_1429.cif
_audit_creation_date              2012-12-10T19:31:29-0500
_audit_creation_method            fapswitch 2.2
_symmetry_space_group_name_H-M    P1
_symmetry_Int_Tables_number       1
_space_group_crystal_system       triclinic
_cell_length_a                    18.888117
_cell_length_b                    15.719797
_cell_length_c                    14.936415
_cell_angle_alpha                 90.479223
_cell_angle_beta                  90.697645
_cell_angle_gamma                 90.109834
_cell_volume                      4434.3880792

loop_
_atom_site_label
_atom_site_type_symbol
_atom_type_description
_atom_site_fract_x
_atom_site_fract_y
_atom_site_fract_z
_atom_type_partial_charge
C1    C     C_R   0.499817 0.337522 0.499684 0.895169
C2    C     C_3   0.511134 0.970704 0.416923 -0.314119
C3    C     C_3   0.497433 0.082837 0.500373 0.071079
C4    C     C_3   0.496389 0.917183 0.500726 0.068204
C5    C     C_1   0.497898 0.173535 0.499415 0.002575
C6    C     C_1   0.497445 0.826480 0.501296 0.005381
C7    C     C_3   0.509822 0.415155 0.971927 0.454331
C8    C     C_3   0.490672 0.574625 0.028380 0.430936
C9    C     C_3   0.561171 0.466753 0.032454 0.496920
C10   C     C_3   0.439155 0.523348 0.968490 0.438366
C11   C     C_3   0.446788 0.444593 0.030069 -0.444279
C12   C     C_R   0.499876 0.662487 0.500356 0.904373
C13   C     C_3   0.554230 0.545765 0.971020 -0.494199
C14   C     C_3   0.498972 0.496899 0.090120 -0.109558
C15   C     C_3   0.501766 0.493668 0.909831 -0.186378
C16   C     C_R   0.364326 0.502005 0.499235 0.911520
C17   C     C_R   0.635675 0.501662 0.500666 0.902810
C18   C     C_1   0.499511 0.498882 0.189930 0.193303
C19   C     C_1   0.500700 0.497760 0.810028 0.122193
C20   C     C_R   0.253214 0.535039 0.577633 -0.263856
C21   C     C_R   0.745221 0.542709 0.423512 -0.254268
C22   C     C_R   0.183807 0.563288 0.577297 -0.237905
C23   C     C_3   0.545779 0.973310 0.557129 0.596554
C24   C     C_R   0.814731 0.570861 0.425321 -0.239610
C25   C     C_R   0.148329 0.580681 0.496352 -0.079857
C26   C     C_R   0.852235 0.578685 0.506703 -0.083863
C27   C     C_R   0.184681 0.571716 0.414695 0.403652
C28   C     C_R   0.817832 0.559745 0.587771 0.418326
C29   C     C_R   0.252629 0.535601 0.414865 0.347761
C30   C     C_R   0.749864 0.523450 0.584764 0.344424
C31   C     C_R   0.288371 0.521105 0.496985 -0.206122
C32   C     C_R   0.711910 0.519324 0.502757 -0.218133
C33   C     C_R   0.928650 0.597145 0.504120 0.318824
C34   C     C_3   0.448009 0.026733 0.443973 0.597258
C35   C     C_R   0.071908 0.598554 0.498334 0.317829
C36   C     C_3   0.182382 0.667809 0.299641 0.111248
C37   C     C_3   0.147239 0.747018 0.339816 -0.367691
C38   C     C_3   0.178519 0.828326 0.301427 -0.983219
C39   C     C_3   0.823591 0.637858 0.718559 0.127797
C40   C     C_3   0.858030 0.722415 0.692583 -0.383389
C41   C     C_3   0.828349 0.796325 0.747275 -0.962954
C42   C     C_3   0.263865 0.438411 0.302189 0.112201
C43   C     C_3   0.317396 0.406654 0.233700 -0.317529
C44   C     C_3   0.292813 0.323805 0.189241 -0.981452
C45   C     C_3   0.561546 0.027719 0.474484 -0.321051
C46   C     C_3   0.727459 0.408195 0.670707 0.137168
C47   C     C_3   0.688520 0.378347 0.753707 -0.314671
C48   C     C_3   0.690740 0.281746 0.762464 -1.025405
C49   C     C_3   0.638465 0.003001 0.656398 0.067630
C50   C     C_3   0.714329 0.994752 0.622813 -0.331831
C51   C     C_3   0.762790 0.061881 0.665455 -0.970326
C52   C     C_3   0.359886 0.996596 0.338297 0.063387
C53   C     C_3   0.377487 0.001359 0.238784 -0.317004
C54   C     C_3   0.335994 0.935204 0.184156 -0.990595
C55   C     C_3   0.674749 0.419524 0.006126 0.094138
C56   C     C_3   0.432267 0.972255 0.526630 -0.320358
C57   C     C_3   0.741624 0.384432 0.050799 -0.314465
C58   C     C_3   0.798505 0.364291 0.982132 -0.973585
C59   C     C_3   0.326517 0.575787 0.998240 0.104179
C60   C     C_3   0.263425 0.514722 0.993919 -0.367403
C61   C     C_3   0.205898 0.541363 0.059320 -0.952330
C62   C     C_3   0.500489 0.301241 0.869404 0.079431
C63   C     C_3   0.419432 0.298589 0.859740 -0.370366
C64   C     C_3   0.397001 0.262995 0.768317 -0.928272
C65   C     C_3   0.483622 0.717294 0.994433 0.098328
C66   C     C_3   0.455275 0.802503 0.028212 -0.337695
C67   C     C_1   0.498774 0.248742 0.499164 -0.184154
C68   C     C_3   0.461673 0.871300 0.957252 -0.963255
C69   C     C_1   0.498634 0.751273 0.501101 -0.174113
C70   C     C_3   0.482684 0.029339 0.584168 -0.317818
H1    H     H_    0.279427 0.524388 0.641464 0.199025
H2    H     H_    0.240939 0.671402 0.309347 0.158717
H3    H     H_    0.089430 0.745141 0.325133 0.244203
H4    H     H_    0.155210 0.748065 0.413628 0.214978
H5    H     H_    0.235983 0.832515 0.317690 0.264051
H6    H     H_    0.151687 0.884497 0.331032 0.270728
H7    H     H_    0.170863 0.829555 0.227593 0.269004
H8    H     H_    0.834761 0.626430 0.790652 0.164140
H9    H     H_    0.764903 0.642640 0.711647 0.160517
H10   H     H_    0.916145 0.718805 0.704334 0.247941
H11   H     H_    0.848069 0.734815 0.620400 0.217108
H12   H     H_    0.717341 0.540178 0.359732 0.198111
H13   H     H_    0.770252 0.801520 0.736272 0.267582
H14   H     H_    0.853595 0.856692 0.726270 0.272274
H15   H     H_    0.839457 0.786861 0.819706 0.267259
H16   H     H_    0.210813 0.443706 0.269496 0.175421
H17   H     H_    0.261216 0.390382 0.356804 0.119247
H18   H     H_    0.325061 0.455562 0.181504 0.219804
H19   H     H_    0.369183 0.395834 0.267798 0.240787
H20   H     H_    0.284738 0.273956 0.240423 0.276307
H21   H     H_    0.333550 0.301214 0.141725 0.265991
H22   H     H_    0.242507 0.334067 0.151596 0.268261
H23   H     H_    0.598297 0.586587 0.947983 0.168348
H24   H     H_    0.784536 0.391307 0.677633 0.148953
H25   H     H_    0.704382 0.374681 0.611018 0.118263
H26   H     H_    0.713377 0.408185 0.813935 0.214254
H27   H     H_    0.632439 0.399184 0.749610 0.228362
H28   H     H_    0.663530 0.251031 0.704256 0.265818
H29   H     H_    0.663285 0.262592 0.824446 0.268969
H30   H     H_    0.746409 0.259299 0.766306 0.274995
H31   H     H_    0.638641 0.993533 0.730031 0.165445
H32   H     H_    0.618883 0.069052 0.644714 0.121204
H33   H     H_    0.734958 0.930500 0.639121 0.235478
H34   H     H_    0.402967 0.403434 0.052804 0.173849
H35   H     H_    0.714799 0.002053 0.548916 0.217049
H36   H     H_    0.744740 0.126613 0.646774 0.266294
H37   H     H_    0.817627 0.052891 0.641208 0.268313
H38   H     H_    0.763087 0.056035 0.739527 0.269418
H39   H     H_    0.302269 0.007942 0.346450 0.167752
H40   H     H_    0.370447 0.930898 0.363001 0.122137
H41   H     H_    0.364430 0.065837 0.213486 0.236640
H42   H     H_    0.435054 0.990416 0.229682 0.216850
H43   H     H_    0.349567 0.870009 0.206726 0.267145
H44   H     H_    0.349489 0.940942 0.112349 0.271330
H45   H     H_    0.613951 0.052760 0.454490 0.155303
H46   H     H_    0.278192 0.945638 0.191288 0.273409
H47   H     H_    0.521633 0.944458 0.349173 0.157017
H48   H     H_    0.472613 0.055307 0.652179 0.153302
H49   H     H_    0.688822 0.479183 0.970806 0.128002
H50   H     H_    0.654600 0.371589 0.956859 0.174535
H51   H     H_    0.762767 0.432019 0.099739 0.228044
H52   H     H_    0.728354 0.325417 0.087561 0.236154
H53   H     H_    0.779449 0.314351 0.934609 0.275116
H54   H     H_    0.846720 0.340560 0.016995 0.271894
H55   H     H_    0.812609 0.422356 0.944332 0.268587
H56   H     H_    0.379560 0.947618 0.546021 0.157434
H57   H     H_    0.307507 0.641329 0.984692 0.163284
H58   H     H_    0.349139 0.576640 0.067630 0.148493
H59   H     H_    0.240743 0.513763 0.924892 0.239797
H60   H     H_    0.281476 0.449402 0.010308 0.219293
H61   H     H_    0.227403 0.544334 0.128754 0.274594
H62   H     H_    0.162004 0.494299 0.056750 0.272844
H63   H     H_    0.184519 0.604774 0.041142 0.262021
H64   H     H_    0.520562 0.235519 0.859305 0.168851
H65   H     H_    0.525455 0.339233 0.816263 0.133448
H66   H     H_    0.397168 0.257956 0.913079 0.229361
H67   H     H_    0.157761 0.570534 0.641080 0.186872
H68   H     H_    0.396997 0.363445 0.866962 0.234300
H69   H     H_    0.417682 0.303828 0.714175 0.282472
H70   H     H_    0.338321 0.261545 0.763119 0.264777
H71   H     H_    0.417276 0.197218 0.759317 0.256225
H72   H     H_    0.452479 0.698183 0.933634 0.168607
H73   H     H_    0.540243 0.725259 0.976452 0.148615
H74   H     H_    0.398674 0.795075 0.046219 0.222609
H75   H     H_    0.485427 0.822614 0.089206 0.236760
H76   H     H_    0.517982 0.880385 0.938880 0.268115
H77   H     H_    0.441057 0.932406 0.983987 0.265935
H78   H     H_    0.839156 0.586226 0.362247 0.185298
H79   H     H_    0.430421 0.853464 0.896442 0.270006
H80   H     H_    0.172742 0.667637 0.226132 0.167371
N1    N     N_R   0.032671 0.597460 0.421797 -0.114898
N2    N     N_R   0.967875 0.602052 0.580519 -0.122106
N3    N     N_R   0.962491 0.597011 0.424586 -0.190127
N4    N     N_R   0.038058 0.602916 0.577747 -0.192586
N5    N     N_1   0.500020 0.500000 0.268010 -0.098188
N6    N     N_1   0.499980 0.500000 0.731990 -0.096811
O1    O     O_R   0.500000 0.376780 0.574460 -0.630868
O2    O     O_3   0.852805 0.569011 0.669447 -0.628600
O3    O     O_3   0.285490 0.519322 0.334228 -0.634826
O4    O     O_3   0.719642 0.497218 0.663786 -0.635161
O5    O     O_3   0.595998 0.938260 0.616917 -0.643491
O6    O     O_3   0.396738 0.061698 0.385565 -0.642228
O7    O     O_3   0.623979 0.435744 0.072488 -0.625533
O8    O     O_3   0.375329 0.553906 0.930726 -0.650155
O9    O     O_3   0.523040 0.327759 0.955632 -0.641480
O10   O     O_3   0.477593 0.656778 0.063097 -0.649162
O11   O     O_R   0.500000 0.623220 0.425540 -0.606669
O12   O     O_R   0.500010 0.376780 0.425520 -0.607706
O13   O     O_R   0.499990 0.623220 0.574480 -0.602623
O14   O     O_R   0.398130 0.499990 0.574490 -0.620249
O15   O     O_R   0.601870 0.500010 0.425510 -0.617223
O16   O     O_R   0.398140 0.499990 0.425550 -0.568595
O17   O     O_R   0.601860 0.500010 0.574450 -0.569724
O18   O     O_3   0.152155 0.592401 0.334077 -0.637138
Zn1   Zn    Zn3+2 0.499990 0.500000 0.599450 0.978147
Zn2   Zn    Zn3+2 0.500010 0.500000 0.400550 0.996716

loop_
_geom_bond_atom_site_label_1
_geom_bond_atom_site_label_2
_ccdc_geom_bond_type
N5    Zn2   S    
C30   O4    S    
C6    C69   T    
C66   C68   S    
C37   H4    S    
N6    Zn1   S    
C34   C56   S    
C8    C13   S    
C23   C45   S    
C27   C29   A    
C14   C18   S    
C42   O3    S    
C35   N4    A    
C5    C67   T    
C36   H80   S    
C12   O11   A    
C61   H63   S    
C29   O3    S    
C38   H6    S    
C53   C54   S    
C16   C31   S    
C7    C11   S    
C22   H67   S    
C58   H53   S    
C62   C63   S    
C43   H18   S    
C36   C37   S    
C24   C26   A    
C15   C19   S    
C10   C15   S    
C49   H31   S    
C65   H73   S    
C11   C14   S    
C33   N3    A    
C66   H74   S    
C64   H71   S    
C59   H57   S    
C41   H13   S    
C54   H43   S    
O12   Zn2   S    
C55   H50   S    
C9    O7    S    
C9    C13   S    
C66   H75   S    
C68   H79   S    
C61   H62   S    
C57   H52   S    
C59   O8    S    
C46   H25   S    
C51   H38   S    
C22   C25   A    
C54   H46   S    
C50   H35   S    
C8    C14   S    
C47   H26   S    
C40   H10   S    
C20   H1    S    
C11   H34   S    
C42   H16   S    
C56   H56   S    
C49   O5    S    
C36   O18   S    
C44   H22   S    
C38   H5    S    
C2    C34   S    
C7    C15   S    
C7    O9    S    
C59   C60   S    
C4    C56   S    
C19   N6    T    
C23   C70   S    
C35   N1    A    
C27   O18   S    
C2    H47   S    
C17   O17   A    
O14   Zn1   S    
O17   Zn1   S    
C2    C45   S    
C48   H30   S    
C21   C32   A    
C39   H8    S    
C3    C70   S    
C4    C6    S    
C24   H78   S    
C60   H60   S    
C49   H32   S    
C36   H2    S    
C4    C23   S    
C55   H49   S    
C3    C34   S    
C3    C5    S    
C59   H58   S    
C41   H14   S    
C65   O10   S    
C3    C45   S    
C13   H23   S    
C60   C61   S    
C39   H9    S    
C62   H65   S    
C2    C4    S    
C43   C44   S    
C37   C38   S    
C16   O16   A    
C26   C33   S    
C47   C48   S    
C46   H24   S    
C52   H40   S    
C46   O4    S    
C28   O2    S    
C50   C51   S    
O13   Zn1   S    
C9    C14   S    
C43   H19   S    
C68   H77   S    
C44   H21   S    
C8    O10   S    
C25   C35   S    
C53   H42   S    
C8    C10   S    
C40   C41   S    
C12   C69   S    
O1    Zn1   S    
C49   C50   S    
C56   C70   S    
C13   C15   S    
C39   O2    S    
C63   H68   S    
C42   C43   S    
C20   C22   A    
C39   C40   S    
C44   H20   S    
C52   C53   S    
C64   H70   S    
C7    C9    S    
C48   H29   S    
C37   H3    S    
C46   C47   S    
C10   O8    S    
C58   H54   S    
C40   H11   S    
N2    N4    A    
C45   H45   S    
C34   O6    S    
C33   N2    A    
C47   H27   S    
C60   H59   S    
C17   O15   A    
C68   H76   S    
C12   O13   A    
C38   H7    S    
C25   C27   A    
C41   H15   S    
O15   Zn2   S    
C26   C28   A    
C1    O12   A    
C63   H66   S    
C62   H64   S    
C55   C57   S    
C55   O7    S    
C28   C30   A    
C29   C31   A    
C30   C32   A    
C65   H72   S    
C53   H41   S    
C57   C58   S    
C52   H39   S    
C70   H48   S    
C51   H36   S    
C54   H44   S    
C1    O1    A    
C1    C67   S    
C48   H28   S    
N1    N3    A    
C10   C11   S    
C61   H61   S    
C57   H51   S    
C63   C64   S    
C16   O14   A    
C50   H33   S    
C62   O9    S    
C21   H12   S    
C58   H55   S    
C51   H37   S    
C65   C66   S    
C21   C24   A    
C17   C32   S    
C42   H17   S    
C64   H69   S    
C18   N5    T    
O16   Zn2   S    
C52   O6    S    
O11   Zn2   S    
C23   O5    S    
C20   C31   A    
