data_mof_unit_pretest_413.cif
_audit_creation_date              2012-12-11T17:05:33-0500
_audit_creation_method            fapswitch 2.2
_symmetry_space_group_name_H-M    P1
_symmetry_Int_Tables_number       1
_space_group_crystal_system       triclinic
_cell_length_a                    6.964706
_cell_length_b                    14.529936
_cell_length_c                    16.026729
_cell_angle_alpha                 90.178766
_cell_angle_beta                  90.070569
_cell_angle_gamma                 90.03269
_cell_volume                      1621.84321462

loop_
_atom_site_label
_atom_site_type_symbol
_atom_type_description
_atom_site_fract_x
_atom_site_fract_y
_atom_site_fract_z
_atom_type_partial_charge
O1    O     O_R   0.494380 0.415640 0.412830 -0.543813
O2    O     O_R   0.823960 0.405540 0.586560 -0.544139
O3    O     O_R   0.994270 0.584360 0.587170 -0.519665
C1    C     C_R   0.655204 0.383268 0.614967 0.735351
O4    O     O_R   0.824090 0.404620 0.413450 -0.549571
O5    O     O_R   0.994400 0.583430 0.412820 -0.542650
C2    C     C_R   0.655279 0.382500 0.384472 0.667842
O6    O     O_R   0.494250 0.416570 0.587180 -0.531624
O7    O     O_3   0.660800 0.558670 0.500000 -0.337138
V1    V     V_3+5 0.935650 0.489120 0.500000 1.433818
O8    O     O_R   0.324110 0.594460 0.413440 -0.541451
C3    C     C_R   0.155029 0.616276 0.384484 0.679277
O9    O     O_R   0.323980 0.595380 0.586550 -0.510535
C4    C     C_R   0.156449 0.617179 0.616032 0.696741
V2    V     V_3+5 0.435660 0.510880 0.500000 1.479654
O10   O     O_3   0.160640 0.441330 0.500000 -0.381277
C5    C     C_3   0.013219 0.652518 0.757465 -0.299688
H1    H     H_    0.869153 0.640007 0.730728 0.214448
H2    H     H_    0.060968 0.585309 0.782828 0.172717
C6    C     C_3   0.995061 0.723834 0.829257 -0.316103
H3    H     H_    0.036104 0.691171 0.889396 0.147385
H4    H     H_    0.842503 0.745811 0.834853 0.163949
H5    H     H_    0.924933 0.770979 0.630354 0.190210
H6    H     H_    0.913416 0.879410 0.733787 0.142192
C7    C     C_3   0.070558 0.780491 0.656433 -0.350444
C8    C     C_3   0.356151 0.704800 0.728514 0.121937
C9    C     C_3   0.151594 0.686927 0.687706 0.008906
C10   C     C_3   0.124670 0.808491 0.812476 0.070794
C11   C     C_3   0.062227 0.852121 0.728468 -0.320687
C12   C     C_3   0.334477 0.772735 0.803525 -0.347120
H7    H     H_    0.376240 0.738785 0.862908 0.154357
H8    H     H_    0.435069 0.831868 0.797584 0.160360
H9    H     H_    0.157557 0.807568 0.603968 0.153456
H10   H     H_    0.157443 0.911339 0.713626 0.158961
C13   C     C_R   0.272522 0.816005 0.240053 0.099516
C14   C     C_R   0.118390 0.815908 0.183737 -0.109917
C15   C     C_R   0.966760 0.754185 0.199543 -0.175951
H11   H     H_    0.844298 0.751736 0.158161 0.134744
C16   C     C_R   0.977810 0.690414 0.265476 -0.175005
H12   H     H_    0.862969 0.641039 0.273004 0.127050
C17   C     C_R   0.141141 0.686179 0.317440 -0.108576
C18   C     C_R   0.283885 0.752658 0.305059 0.104416
C19   C     C_3   0.494564 0.740488 0.293544 -0.406066
C20   C     C_3   0.482302 0.809876 0.223007 -0.400384
H13   H     H_    0.531050 0.669879 0.271976 0.166571
H14   H     H_    0.578174 0.765837 0.348096 0.177950
H15   H     H_    0.512423 0.779747 0.160547 0.173135
H16   H     H_    0.558122 0.875512 0.236919 0.166667
C21   C     C_R   0.499042 0.318714 0.743465 0.171787
C22   C     C_R   0.647665 0.316906 0.684737 -0.115357
C23   C     C_R   0.795990 0.252476 0.697412 -0.202405
H17   H     H_    0.915957 0.249310 0.654736 0.124793
C24   C     C_R   0.784199 0.187014 0.761914 -0.122946
H18   H     H_    0.895671 0.135465 0.766914 0.121044
C25   C     C_R   0.624732 0.184709 0.816119 -0.115464
C26   C     C_R   0.488801 0.255125 0.808035 0.075580
C27   C     C_3   0.274851 0.251358 0.803607 -0.213005
C28   C     C_3   0.286391 0.320342 0.732062 -0.445928
H19   H     H_    0.221163 0.182449 0.784205 0.111967
H20   H     H_    0.223786 0.389096 0.745861 0.206867
H21   H     H_    0.243114 0.290703 0.670878 0.152431
C29   C     C_R   0.490713 0.251783 0.308874 0.102272
C30   C     C_R   0.647192 0.311740 0.317400 -0.104049
C31   C     C_R   0.799723 0.300862 0.260527 -0.179230
H22   H     H_    0.922967 0.345811 0.264264 0.131375
C32   C     C_R   0.788352 0.236619 0.194452 -0.167380
H23   H     H_    0.904200 0.233261 0.149723 0.143484
C33   C     C_R   0.623456 0.181730 0.182850 -0.108544
C34   C     C_R   0.479053 0.188539 0.243309 0.094108
C35   C     C_3   0.269636 0.205046 0.232164 -0.410416
C36   C     C_3   0.282243 0.273531 0.303797 -0.400158
H24   H     H_    0.182542 0.143152 0.247178 0.169849
H25   H     H_    0.237152 0.237779 0.171170 0.179864
H26   H     H_    0.202996 0.251087 0.360361 0.171340
H27   H     H_    0.256335 0.345902 0.284496 0.167612
O11   O     O_R   0.771490 0.080820 0.910070 -0.518838
O12   O     O_R   0.441590 0.092730 0.083780 -0.538849
O13   O     O_R   0.271350 0.913900 0.084390 -0.539774
C37   C     C_R   0.610688 0.115169 0.112489 0.703673
O14   O     O_R   0.441780 0.091820 0.910670 -0.544654
O15   O     O_R   0.271540 0.912980 0.910040 -0.544526
C38   C     C_R   0.610800 0.113967 0.882123 0.716291
O16   O     O_R   0.771300 0.081740 0.084420 -0.536090
O17   O     O_3   0.604960 0.938700 0.997240 -0.379798
V3    V     V_3+5 0.330090 0.008230 0.997220 1.435156
O18   O     O_R   0.941820 0.901930 0.910640 -0.547118
C39   C     C_R   0.111122 0.878883 0.882575 0.656701
O19   O     O_R   0.941630 0.902840 0.083750 -0.546462
C40   C     C_R   0.110445 0.880984 0.112655 0.685944
V4    V     V_3+5 0.830090 0.986410 0.997190 1.428729
O20   O     O_3   0.105080 0.055990 0.997200 -0.344456
C41   C     C_2   0.182435 0.289317 0.881365 0.822354
O21   O     O_2   0.056863 0.245167 0.916296 -0.557513
O22   O     O_R   0.240667 0.374427 0.913720 -0.650708
H28   H     H_    0.167792 0.392074 0.966092 0.290307
C42   C     C_2   0.498609 0.745306 0.665887 0.714084
O23   O     O_2   0.616145 0.695757 0.631598 -0.547843
O24   O     O_R   0.495089 0.839262 0.646806 -0.691852
H29   H     H_    0.596266 0.857135 0.604408 0.275240
I1    I     I_    0.476069 0.577004 0.778303 -0.470087

loop_
_geom_bond_atom_site_label_1
_geom_bond_atom_site_label_2
_ccdc_geom_bond_type
C14   C40   S    
C32   C33   A    
C25   C26   A    
C27   C41   S    
C17   C18   A    
C13   C14   A    
C1    O6    A    
V3    O20   S    
C16   C17   A    
C24   H18   S    
C8    C9    S    
C29   C30   A    
C10   C11   S    
C15   H11   S    
O5    C3    A    
C12   H7    S    
C27   H19   S    
C28   H20   S    
V2    O10   S    
C5    C6    S    
C26   C27   S    
C21   C22   A    
C13   C18   A    
H6    C11   S    
O8    V2    S    
C33   C34   A    
C37   O16   A    
C42   O24   S    
C35   C36   S    
O1    V2    S    
C4    C9    S    
C12   H8    S    
O7    V1    S    
C20   H15   S    
C33   C37   S    
C24   C25   A    
C32   H23   S    
O12   V3    S    
O9    C4    A    
C7    C11   S    
O22   H28   S    
O17   V4    S    
C35   H25   S    
C22   C23   A    
O12   C37   A    
O13   C40   A    
C8    C42   S    
C23   H17   S    
C5    C9    S    
O17   V3    S    
O14   C38   A    
O18   V4    S    
O11   C38   A    
C16   H12   S    
O4    C2    A    
O18   C39   A    
C6    C10   S    
C11   H10   S    
C21   C28   S    
C29   C34   A    
C1    C22   S    
C23   C24   A    
C31   C32   A    
O2    C1    A    
C19   C20   S    
O14   V3    S    
C8    I1    S    
C42   O23   D    
C10   C39   S    
C41   O22   S    
C5    H1    S    
C6    H3    S    
C25   C38   S    
C13   C20   S    
C19   H13   S    
C2    C30   S    
O15   C39   A    
O3    C4    A    
O13   V3    S    
O19   V4    S    
C8    C12   S    
O6    V2    S    
O9    V2    S    
C18   C19   S    
V4    O20   S    
O2    V1    S    
C3    C17   S    
O16   V4    S    
C14   C15   A    
O1    C2    A    
C6    H4    S    
O5    V1    S    
C36   H26   S    
O8    C3    A    
C7    C9    S    
C21   C26   A    
C31   H22   S    
C10   C12   S    
O7    V2    S    
O4    V1    S    
C15   C16   A    
O3    V1    S    
V1    O10   S    
C36   H27   S    
C27   C28   S    
C28   H21   S    
C41   O21   D    
C5    H2    S    
C29   C36   S    
H5    C7    S    
C34   C35   S    
C19   H14   S    
C30   C31   A    
O19   C40   A    
O24   H29   S    
O11   V4    S    
C35   H24   S    
O15   V3    S    
C20   H16   S    
C7    H9    S    
