data_mof_unit_pretest_860.cif
_audit_creation_date              2012-12-11T14:01:21-0500
_audit_creation_method            fapswitch 2.2
_symmetry_space_group_name_H-M    P1
_symmetry_Int_Tables_number       1
_space_group_crystal_system       triclinic
_cell_length_a                    19.008807
_cell_length_b                    10.923654
_cell_length_c                    18.712989
_cell_angle_alpha                 90.322201
_cell_angle_beta                  89.784108
_cell_angle_gamma                 89.700435
_cell_volume                      3885.52783684

loop_
_atom_site_label
_atom_site_type_symbol
_atom_type_description
_atom_site_fract_x
_atom_site_fract_y
_atom_site_fract_z
_atom_type_partial_charge
C1    C     C_R   0.271633 0.044612 0.852692 0.595300
C2    C     C_R   0.728435 0.044542 0.147413 0.596407
C3    C     C_R   0.771633 0.544612 0.852692 0.595301
C4    C     C_R   0.228435 0.544542 0.147413 0.596406
C5    C     C_R   0.479007 0.052498 0.075581 -0.084842
C6    C     C_R   0.505176 0.060624 0.929083 -0.078574
C7    C     C_R   0.979008 0.552498 0.075581 -0.084841
C8    C     C_R   0.005176 0.560624 0.929083 -0.078574
C9    C     C_R   0.979017 0.664475 0.040217 -0.101442
C10   C     C_R   0.994239 0.668814 0.967543 -0.094628
C11   C     C_R   0.479017 0.164475 0.040217 -0.101444
C12   C     C_R   0.494239 0.168814 0.967543 -0.094630
C13   C     C_2   0.248899 0.577742 0.919842 -0.092543
C14   C     C_2   0.751470 0.576654 0.080158 -0.090541
C15   C     C_2   0.748899 0.077742 0.919842 -0.092544
C16   C     C_2   0.251470 0.076654 0.080158 -0.090545
C17   C     C_2   0.254962 0.596958 0.080883 0.007618
C18   C     C_2   0.745203 0.596948 0.919685 0.008092
C19   C     C_2   0.754962 0.096958 0.080883 0.007619
C20   C     C_2   0.245203 0.096948 0.919685 0.008092
C21   C     C_2   0.292887 0.523129 0.037096 -0.207840
C22   C     C_2   0.707342 0.523213 0.962714 -0.211029
C23   C     C_2   0.792887 0.023128 0.037096 -0.207841
C24   C     C_2   0.207342 0.023212 0.962714 -0.211028
C25   C     C_2   0.303878 0.550177 0.961643 -0.138747
C26   C     C_2   0.696515 0.549349 0.038388 -0.140198
C27   C     C_2   0.803878 0.050177 0.961643 -0.138747
C28   C     C_2   0.196516 0.049349 0.038388 -0.140199
C29   C     C_2   0.458663 0.827934 0.566093 -0.126168
C30   C     C_2   0.481829 0.840346 0.412462 -0.116042
C31   C     C_2   0.958663 0.327934 0.566093 -0.126168
C32   C     C_2   0.981829 0.340346 0.412462 -0.116042
C33   C     C_2   0.454387 0.743130 0.445227 -0.115244
C34   C     C_2   0.430596 0.749696 0.519356 -0.153693
C35   C     C_2   0.954387 0.243130 0.445227 -0.115245
C36   C     C_2   0.930596 0.249696 0.519356 -0.153693
C37   C     C_2   0.245130 0.558655 0.583267 0.011134
C38   C     C_2   0.761423 0.548590 0.409246 0.009187
C39   C     C_2   0.745131 0.058655 0.583267 0.011134
C40   C     C_2   0.261423 0.048590 0.409246 0.009187
C41   C     C_2   0.201744 0.472680 0.433515 -0.062806
C42   C     C_2   0.777166 0.525287 0.566078 -0.112564
C43   C     C_2   0.701744 0.972679 0.433515 -0.062806
C44   C     C_2   0.277166 0.025288 0.566078 -0.112564
C45   C     C_R   0.472243 0.822714 0.852675 0.549025
C46   C     C_R   0.528482 0.821963 0.146783 0.534695
C47   C     C_R   0.972243 0.322713 0.852675 0.549025
C48   C     C_R   0.028482 0.321963 0.146783 0.534695
C49   C     C_2   0.168249 0.554557 0.474524 -0.150465
C50   C     C_2   0.830871 0.537488 0.520634 -0.195329
C51   C     C_2   0.668249 0.054557 0.474524 -0.150465
C52   C     C_2   0.330871 0.037488 0.520634 -0.195329
C53   C     C_2   0.182212 0.574062 0.550616 -0.151343
C54   C     C_2   0.818830 0.578280 0.447777 -0.189711
C55   C     C_2   0.682212 0.074062 0.550615 -0.151342
C56   C     C_2   0.318830 0.078281 0.447777 -0.189711
C57   C     C_R   0.260781 0.635407 0.851138 0.558174
C58   C     C_R   0.739370 0.635058 0.148953 0.554811
C59   C     C_R   0.760781 0.135407 0.851138 0.558175
C60   C     C_R   0.239370 0.135057 0.148953 0.554810
C61   C     C_R   0.290878 0.998928 0.639910 0.549643
C62   C     C_R   0.704005 0.987243 0.356452 0.590728
C63   C     C_R   0.790878 0.498927 0.639910 0.549642
C64   C     C_R   0.204005 0.487243 0.356452 0.590727
C65   C     C_R   0.438237 0.819611 0.640050 0.545060
C66   C     C_R   0.526919 0.824855 0.350380 0.539534
C67   C     C_R   0.938237 0.319611 0.640050 0.545060
C68   C     C_R   0.026919 0.324855 0.350380 0.539533
C69   C     C_R   0.259865 0.632705 0.647044 0.515142
C70   C     C_R   0.741058 0.631595 0.351486 0.563797
C71   C     C_R   0.759865 0.132705 0.647044 0.515141
C72   C     C_R   0.241058 0.131595 0.351486 0.563797
C73   C     C_R   0.502239 0.828916 0.073684 0.001921
C74   C     C_R   0.502035 0.832972 0.924327 -0.003156
C75   C     C_R   0.002239 0.328916 0.073684 0.001921
C76   C     C_R   0.002035 0.332972 0.924327 -0.003156
C77   C     C_R   0.493801 0.942349 0.038265 0.019662
C78   C     C_R   0.500616 0.945456 0.962979 0.019177
C79   C     C_R   0.993801 0.442349 0.038265 0.019663
C80   C     C_R   0.000616 0.445456 0.962979 0.019176
C81   C     C_R   0.509457 0.722592 0.960853 -0.161778
C82   C     C_R   0.507483 0.720254 0.033838 -0.158785
C83   C     C_R   0.009457 0.222592 0.960853 -0.161778
C84   C     C_R   0.007483 0.220254 0.033838 -0.158785
Cr1   Cr    Cr6+3 0.230530 0.836340 0.748870 1.019183
Cr2   Cr    Cr6+3 0.769470 0.836340 0.251130 1.030882
Cr3   Cr    Cr6+3 0.730530 0.336340 0.748870 1.019183
Cr4   Cr    Cr6+3 0.269470 0.336340 0.251130 1.030882
Cr5   Cr    Cr6+3 0.387420 0.989430 0.750820 1.033344
Cr6   Cr    Cr6+3 0.612580 0.989430 0.249180 1.048082
Cr7   Cr    Cr6+3 0.887420 0.489430 0.750820 1.033344
Cr8   Cr    Cr6+3 0.112580 0.489430 0.249180 1.048083
Cr9   Cr    Cr6+3 0.385640 0.677860 0.749230 1.034394
Cr10  Cr    Cr6+3 0.614360 0.677860 0.250770 1.077097
Cr11  Cr    Cr6+3 0.885640 0.177860 0.749230 1.034394
Cr12  Cr    Cr6+3 0.114360 0.177860 0.250770 1.077097
H1    H     H_    0.512450 0.635432 0.932989 0.144595
H2    H     H_    0.513473 0.631668 0.058921 0.144464
H3    H     H_    0.012450 0.135432 0.932989 0.144595
H4    H     H_    0.013473 0.131668 0.058921 0.144464
H5    H     H_    0.133813 0.622309 0.450405 0.171214
H6    H     H_    0.884615 0.535759 0.539929 0.145874
H7    H     H_    0.633813 0.122308 0.450405 0.171214
H8    H     H_    0.384615 0.035759 0.539929 0.145874
H9    H     H_    0.142085 0.629866 0.576688 0.148959
H10   H     H_    0.854092 0.650332 0.430511 0.174215
H11   H     H_    0.642084 0.129866 0.576688 0.148959
H12   H     H_    0.354092 0.150332 0.430511 0.174215
H13   H     H_    0.230114 0.396050 0.456091 0.138106
H14   H     H_    0.722860 0.535588 0.549168 0.125950
H15   H     H_    0.730113 0.896050 0.456091 0.138106
H16   H     H_    0.222860 0.035589 0.549168 0.125949
H17   H     H_    0.465930 0.052881 0.131876 0.132927
H18   H     H_    0.518809 0.068511 0.873170 0.135405
H19   H     H_    0.965930 0.552881 0.131876 0.132927
H20   H     H_    0.018809 0.568511 0.873170 0.135405
H21   H     H_    0.968313 0.748280 0.069531 0.124034
H22   H     H_    0.996769 0.756200 0.940677 0.126612
H23   H     H_    0.468313 0.248280 0.069531 0.124033
H24   H     H_    0.496768 0.256200 0.940678 0.126612
H25   H     H_    0.311161 0.433966 0.054851 0.159668
H26   H     H_    0.689062 0.434534 0.944139 0.160384
H27   H     H_    0.811160 0.933966 0.054851 0.159668
H28   H     H_    0.189062 0.934534 0.944139 0.160385
H29   H     H_    0.357497 0.549813 0.941339 0.174651
H30   H     H_    0.642998 0.548747 0.058879 0.172314
H31   H     H_    0.857496 0.049813 0.941339 0.174651
H32   H     H_    0.142998 0.048747 0.058879 0.172315
H33   H     H_    0.195630 0.576129 0.941261 0.109974
H34   H     H_    0.804692 0.574954 0.058579 0.110681
H35   H     H_    0.695630 0.076129 0.941261 0.109973
H36   H     H_    0.304692 0.074953 0.058579 0.110681
H37   H     H_    0.455050 0.653395 0.419888 0.195732
H38   H     H_    0.394682 0.680722 0.538256 0.196944
H39   H     H_    0.955050 0.153395 0.419888 0.195732
H40   H     H_    0.894682 0.180722 0.538256 0.196944
H41   H     H_    0.476938 0.931619 0.435353 0.099975
H42   H     H_    0.496537 0.897056 0.550596 0.108835
H43   H     H_    0.976938 0.431619 0.435353 0.099975
H44   H     H_    0.996538 0.397056 0.550596 0.108835
O1    O     O_R   0.215090 0.709860 0.828130 -0.523006
O2    O     O_R   0.784910 0.709860 0.171870 -0.528748
O3    O     O_R   0.715090 0.209860 0.828130 -0.523006
O4    O     O_R   0.284910 0.209860 0.171870 -0.528747
O5    O     O_R   0.445660 0.919250 0.676780 -0.514008
O6    O     O_R   0.554340 0.919250 0.323220 -0.529184
O7    O     O_R   0.945660 0.419250 0.676780 -0.514008
O8    O     O_R   0.054340 0.419250 0.323220 -0.529184
O9    O     O_R   0.456260 0.718170 0.670000 -0.485136
O10   O     O_R   0.543740 0.718170 0.330000 -0.493320
O11   O     O_R   0.956260 0.218170 0.670000 -0.485136
O12   O     O_R   0.043740 0.218170 0.330000 -0.493320
O13   O     O_R   0.320940 0.626760 0.674370 -0.520312
O14   O     O_R   0.679060 0.626760 0.325630 -0.443295
O15   O     O_R   0.820940 0.126760 0.674370 -0.520312
O16   O     O_R   0.179060 0.126760 0.325630 -0.443296
O17   O     O_3   0.334530 0.834540 0.749640 -0.292280
O18   O     O_3   0.665470 0.834540 0.250360 -0.302305
O19   O     O_3   0.834530 0.334540 0.749640 -0.292280
O20   O     O_3   0.165470 0.334540 0.250360 -0.302304
O21   O     O_R   0.236990 0.958390 0.823710 -0.513970
O22   O     O_R   0.763010 0.958390 0.176290 -0.518092
O23   O     O_R   0.736990 0.458390 0.823710 -0.513970
O24   O     O_R   0.263010 0.458390 0.176290 -0.518092
O25   O     O_R   0.332380 0.074750 0.830850 -0.455108
O26   O     O_R   0.667620 0.074750 0.169150 -0.450615
O27   O     O_R   0.832380 0.574750 0.830850 -0.455108
O28   O     O_R   0.167620 0.574750 0.169150 -0.450613
O29   O     O_R   0.445800 0.917770 0.825070 -0.506345
O30   O     O_R   0.554200 0.917770 0.174930 -0.509631
O31   O     O_R   0.945800 0.417770 0.825070 -0.506345
O32   O     O_R   0.054200 0.417770 0.174930 -0.509630
O33   O     O_R   0.456410 0.716580 0.829970 -0.516051
O34   O     O_R   0.543590 0.716580 0.170030 -0.520783
O35   O     O_R   0.956410 0.216580 0.829970 -0.516051
O36   O     O_R   0.043590 0.216580 0.170030 -0.520783
O37   O     O_R   0.321080 0.625290 0.822650 -0.482148
O38   O     O_R   0.678920 0.625290 0.177350 -0.478185
O39   O     O_R   0.821080 0.125290 0.822650 -0.482148
O40   O     O_R   0.178920 0.125290 0.177350 -0.478185
O41   O     O_R   0.214930 0.711450 0.668160 -0.523105
O42   O     O_R   0.785070 0.711450 0.331840 -0.541681
O43   O     O_R   0.714930 0.211450 0.668160 -0.523104
O44   O     O_R   0.285070 0.211450 0.331840 -0.541681
O45   O     O_R   0.236850 0.959870 0.675420 -0.488381
O46   O     O_R   0.763150 0.959870 0.324580 -0.466062
O47   O     O_R   0.736850 0.459870 0.675420 -0.488381
O48   O     O_R   0.263150 0.459870 0.324580 -0.466063
O49   O     O_R   0.332230 0.076350 0.670880 -0.503354
O50   O     O_R   0.667770 0.076350 0.329120 -0.488865
O51   O     O_R   0.832230 0.576350 0.670880 -0.503354
O52   O     O_R   0.167770 0.576350 0.329120 -0.488864
C85   C     C_2   0.303592 0.480103 0.556260 0.198454
H45   H     H_    0.324031 0.407921 0.590068 0.128578
O53   O     O_2   0.332525 0.500512 0.499251 -0.533484
C86   C     C_2   0.721129 0.433960 0.422804 0.226973
H46   H     H_    0.741357 0.365688 0.459437 0.120464
O54   O     O_2   0.665784 0.413216 0.392272 -0.471853
C87   C     C_2   0.803592 0.980104 0.556259 0.198453
H47   H     H_    0.824032 0.907924 0.590068 0.128579
O55   O     O_2   0.832524 0.000513 0.499250 -0.533485
C88   C     C_2   0.221129 0.933960 0.422804 0.226973
H48   H     H_    0.241357 0.865688 0.459438 0.120464
O56   O     O_2   0.165785 0.913214 0.392270 -0.471853
C89   C     C_2   0.235792 0.724912 0.061334 0.213915
H49   H     H_    0.258660 0.767612 0.014562 0.104992
O57   O     O_2   0.195307 0.785070 0.098377 -0.488297
C90   C     C_2   0.764331 0.724357 0.940506 0.211382
H50   H     H_    0.740972 0.767293 0.987369 0.106075
O58   O     O_2   0.805369 0.783747 0.904484 -0.499360
C91   C     C_2   0.735793 0.224912 0.061335 0.213916
H51   H     H_    0.758659 0.267611 0.014561 0.104993
O59   O     O_2   0.695311 0.285073 0.098380 -0.488298
C92   C     C_2   0.264331 0.224357 0.940506 0.211382
H52   H     H_    0.240972 0.267293 0.987369 0.106075
O60   O     O_2   0.305369 0.283747 0.904484 -0.499360

loop_
_geom_bond_atom_site_label_1
_geom_bond_atom_site_label_2
_ccdc_geom_bond_type
C16   C28   D    
Cr3   O23   S    
C38   C70   S    
Cr9   O33   S    
C72   O16   A    
C37   C69   S    
Cr8   O8    S    
C9    H21   S    
Cr9   O9    S    
C35   C36   S    
C53   H9    S    
C11   H23   S    
C2    O22   A    
Cr7   O7    S    
C81   C82   A    
C3    O27   A    
C62   O50   A    
C77   C78   A    
C31   C67   S    
C29   H42   S    
Cr2   O2    S    
C50   C54   S    
C7    C79   A    
C88   O56   D    
C19   C91   S    
Cr5   O49   S    
Cr7   O27   S    
C47   C76   S    
C66   O10   A    
Cr3   O43   S    
C8    C10   A    
C92   O60   D    
C75   C84   A    
Cr4   O44   S    
C13   C57   S    
C34   H38   S    
C51   H7    S    
Cr12  O12   S    
C26   H30   S    
C24   H28   S    
Cr1   O21   S    
C3    C18   S    
C18   C90   S    
C5    H17   S    
C16   C60   S    
C7    H19   S    
Cr11  O11   S    
C25   H29   S    
C56   H12   S    
Cr11  O35   S    
C12   H24   S    
C52   C56   S    
C27   H31   S    
C70   O42   A    
C6    H18   S    
C91   H51   S    
Cr3   O19   S    
C90   H50   S    
C40   C56   D    
C4    O24   A    
Cr2   O22   S    
C23   C27   S    
C18   C22   D    
Cr12  O36   S    
C9    C10   A    
C2    O26   A    
Cr7   O19   S    
C68   O8    A    
C3    O23   A    
C62   O46   A    
C37   C53   D    
C44   C52   D    
C1    O21   A    
C87   H47   S    
Cr10  O18   S    
C30   H41   S    
C48   O32   A    
Cr6   O26   S    
C61   O49   A    
C47   O31   A    
C82   H2    S    
C48   C75   S    
C13   C25   D    
C28   H32   S    
Cr1   O17   S    
C36   H40   S    
C76   C83   A    
C41   C49   D    
C64   O52   A    
C87   O55   D    
C61   O45   A    
C22   H26   S    
C89   O57   D    
Cr1   O45   S    
C14   C58   S    
C39   C55   D    
C88   H48   S    
C54   H10   S    
C67   O11   A    
C84   H4    S    
C32   C35   D    
C71   O43   A    
C72   O44   A    
C32   H43   S    
C86   O54   D    
C21   C25   S    
C35   H39   S    
Cr9   O37   S    
C92   H52   S    
Cr3   O47   S    
C41   H13   S    
C51   C55   S    
C85   O53   D    
Cr4   O24   S    
Cr7   O51   S    
C29   C34   D    
C69   O13   A    
C46   O30   A    
C55   H11   S    
C45   C74   S    
C37   C85   S    
Cr6   O18   S    
Cr5   O5    S    
C68   O12   A    
C45   O33   A    
C10   H22   S    
Cr2   O46   S    
Cr8   O28   S    
C15   C27   D    
C83   C84   A    
C38   C54   D    
C1    O25   A    
Cr10  O14   S    
C71   O15   A    
C20   C24   D    
Cr6   O30   S    
C46   O34   A    
C33   C34   S    
C58   O38   A    
C64   O48   A    
C14   C26   D    
Cr9   O17   S    
Cr2   O18   S    
Cr5   O25   S    
C30   C66   S    
C22   C26   S    
C42   C50   D    
C29   C65   S    
C4    C17   S    
C44   H16   S    
C89   H49   S    
Cr11  O39   S    
Cr12  O20   S    
Cr10  O34   S    
C50   H6    S    
C63   O47   A    
C5    C11   A    
C67   O7    A    
Cr11  O19   S    
C76   C80   A    
C74   C81   A    
C5    C77   A    
C6    C12   A    
C73   C82   A    
C19   C23   D    
C8    C80   A    
Cr6   O50   S    
C7    C9    A    
C14   H34   S    
C39   C87   S    
C52   H8    S    
C1    C20   S    
Cr1   O41   S    
C58   O2    A    
C40   C72   S    
C30   C33   D    
C91   O59   D    
C2    C19   S    
C70   O14   A    
C15   C59   S    
C33   H37   S    
C24   C28   S    
C40   C88   S    
C86   H46   S    
Cr10  O38   S    
C45   O29   A    
C23   H27   S    
C11   C12   A    
Cr5   O17   S    
C13   H33   S    
Cr7   O31   S    
C44   C61   S    
C60   O40   A    
C41   C64   S    
C57   O1    A    
Cr8   O20   S    
Cr12  O40   S    
C59   O39   A    
C42   H14   S    
Cr5   O29   S    
Cr6   O6    S    
C75   C79   A    
C60   O4    A    
C32   C68   S    
C57   O37   A    
C43   C51   D    
Cr12  O16   S    
C81   H1    S    
Cr8   O32   S    
C63   O51   A    
C17   C89   S    
C38   C86   S    
Cr9   O13   S    
Cr11  O15   S    
Cr4   O20   S    
C21   H25   S    
C16   H36   S    
C17   C21   D    
C66   O6    A    
C49   C53   S    
C6    C78   A    
C8    H20   S    
C59   O3    A    
C79   C80   A    
C43   H15   S    
C4    O28   A    
Cr1   O1    S    
Cr4   O48   S    
C15   H35   S    
C43   C62   S    
C73   C77   A    
C90   O58   D    
C85   H45   S    
C74   C78   A    
C69   O41   A    
Cr2   O42   S    
C65   O9    A    
C39   C71   S    
C31   C36   D    
C83   H3    S    
Cr10  O10   S    
Cr3   O3    S    
C31   H44   S    
C65   O5    A    
C42   C63   S    
Cr4   O4    S    
C46   C73   S    
C47   O35   A    
Cr8   O52   S    
C49   H5    S    
C20   C92   S    
C48   O36   A    
