data_mof_unit_pretest_391.cif
_audit_creation_date              2013-03-05T15:51:41-0500
_audit_creation_method            fapswitch 2.2
_symmetry_space_group_name_H-M    P1
_symmetry_Int_Tables_number       1
_space_group_crystal_system       triclinic
_cell_length_a                    30.151295
_cell_length_b                    22.534973
_cell_length_c                    18.080608
_cell_angle_alpha                 89.63584
_cell_angle_beta                  123.233903
_cell_angle_gamma                 89.963638
_cell_volume                      10275.3561852

loop_
_atom_site_label
_atom_site_type_symbol
_atom_site_description
_atom_site_fract_x
_atom_site_fract_y
_atom_site_fract_z
_atom_type_partial_charge
C1    C     C_R   0.544436 0.582544 0.741642 -0.144667
C2    C     C_R   0.461249 0.403981 0.272862 -0.127239
C3    C     C_R   0.456602 0.583952 0.259484 -0.083322
C4    C     C_R   0.538977 0.404430 0.728225 -0.130152
C5    C     C_R   0.043090 0.085288 0.738991 -0.117944
C6    C     C_R   0.964667 0.898329 0.282066 -0.096409
C7    C     C_R   0.955855 0.084471 0.259022 -0.082632
C8    C     C_R   0.036653 0.896772 0.718105 -0.127906
H1    H     H_    0.518976 0.579208 0.766253 0.113353
H2    H     H_    0.489095 0.398369 0.253773 0.089364
H3    H     H_    0.483278 0.582053 0.237165 0.104095
H4    H     H_    0.511683 0.399798 0.748651 0.096555
H5    H     H_    0.016731 0.084154 0.762001 0.106057
H6    H     H_    0.995404 0.888585 0.270511 0.119740
H7    H     H_    0.981657 0.082819 0.234907 0.106700
H8    H     H_    0.008950 0.888101 0.736588 0.097193
N1    N     N_R   0.532910 0.558440 0.665240 -0.049346
N2    N     N_R   0.467090 0.441560 0.334760 -0.044238
N3    N     N_R   0.467090 0.558440 0.334760 -0.048046
N4    N     N_R   0.532910 0.441560 0.665240 -0.045753
N5    N     N_R   0.032910 0.058440 0.665240 -0.045726
N6    N     N_R   0.967090 0.941560 0.334760 -0.050296
N7    N     N_R   0.967090 0.058440 0.334760 -0.048134
N8    N     N_R   0.032910 0.941560 0.665240 -0.045514
C9    C     C_R   0.643647 0.583703 0.572016 -0.112618
C10   C     C_R   0.367426 0.397089 0.428794 -0.066837
C11   C     C_R   0.371341 0.607035 0.427053 -0.088264
C12   C     C_R   0.635143 0.400124 0.573908 -0.028376
C13   C     C_R   0.143730 0.083533 0.571958 -0.130305
C14   C     C_R   0.865087 0.899965 0.428308 -0.070295
C15   C     C_R   0.854383 0.077466 0.427439 -0.111881
C16   C     C_R   0.144062 0.916579 0.571376 -0.094806
H9    H     H_    0.677339 0.582925 0.639721 0.113068
H10   H     H_    0.336835 0.386022 0.361785 0.138901
H11   H     H_    0.342552 0.619001 0.358968 0.108052
H12   H     H_    0.666290 0.391278 0.641743 0.122982
H13   H     H_    0.177558 0.082519 0.639559 0.115827
H14   H     H_    0.833555 0.890410 0.361289 0.135540
H15   H     H_    0.820523 0.071553 0.360669 0.127171
H16   H     H_    0.178896 0.918617 0.637923 0.108218
N9    N     N_R   0.597030 0.558910 0.545540 -0.050559
N10   N     N_R   0.402970 0.441090 0.454460 -0.055824
N11   N     N_R   0.402970 0.558910 0.454460 -0.047563
N12   N     N_R   0.597030 0.441090 0.545540 -0.058995
N13   N     N_R   0.097030 0.058910 0.545540 -0.049212
N14   N     N_R   0.902970 0.941090 0.454460 -0.057478
N15   N     N_R   0.902970 0.058910 0.454460 -0.048213
N16   N     N_R   0.097030 0.941090 0.545540 -0.052643
C17   C     C_R   0.594358 0.582600 0.424903 -0.026102
C18   C     C_R   0.416540 0.399081 0.576332 -0.059659
C19   C     C_R   0.422449 0.607241 0.574925 -0.027476
C20   C     C_R   0.585288 0.399322 0.426261 -0.146560
C21   C     C_R   0.094315 0.082701 0.424845 -0.042155
C22   C     C_R   0.913737 0.902033 0.575662 -0.063283
C23   C     C_R   0.904398 0.080588 0.574133 -0.061555
C24   C     C_R   0.093764 0.916609 0.424604 -0.074003
H17   H     H_    0.583563 0.578111 0.357503 0.117762
H18   H     H_    0.430673 0.390717 0.644484 0.106508
H19   H     H_    0.442036 0.619576 0.643422 0.119737
H20   H     H_    0.571492 0.390178 0.358560 0.103056
H21   H     H_    0.083467 0.078493 0.357362 0.114430
H22   H     H_    0.926269 0.895439 0.643500 0.115464
H23   H     H_    0.917700 0.081365 0.642978 0.135401
H24   H     H_    0.082976 0.920588 0.357045 0.101689
N17   N     N_R   0.566200 0.559270 0.454460 -0.060185
N18   N     N_R   0.433800 0.440730 0.545540 -0.052111
N19   N     N_R   0.433800 0.559270 0.545540 -0.052391
N20   N     N_R   0.566200 0.440730 0.454460 -0.050493
N21   N     N_R   0.066200 0.059270 0.454460 -0.057570
N22   N     N_R   0.933800 0.940730 0.545540 -0.051396
N23   N     N_R   0.933800 0.059270 0.545540 -0.051916
N24   N     N_R   0.066200 0.940730 0.454460 -0.055015
C25   C     C_R   0.382454 0.584328 0.258822 -0.136363
C26   C     C_R   0.612893 0.401802 0.727943 -0.104330
C27   C     C_R   0.617598 0.584731 0.739301 -0.100327
C28   C     C_R   0.386907 0.402921 0.272060 -0.104002
C29   C     C_R   0.882550 0.085791 0.261388 -0.112006
C30   C     C_R   0.109515 0.894775 0.714164 -0.073695
C31   C     C_R   0.116957 0.086216 0.737962 -0.098337
C32   C     C_R   0.889138 0.898568 0.278131 -0.104429
H25   H     H_    0.341153 0.581691 0.236235 0.121965
H26   H     H_    0.653571 0.395012 0.748817 0.112139
H27   H     H_    0.658636 0.582715 0.760047 0.120264
H28   H     H_    0.346142 0.397607 0.251279 0.113984
H29   H     H_    0.841401 0.083049 0.240004 0.140226
H30   H     H_    0.147319 0.884409 0.724080 0.111689
H31   H     H_    0.158147 0.084018 0.759551 0.126858
H32   H     H_    0.848745 0.891600 0.258144 0.109611
N25   N     N_R   0.421050 0.559750 0.334770 -0.047064
N26   N     N_R   0.578950 0.440250 0.665230 -0.047715
N27   N     N_R   0.578950 0.559750 0.665230 -0.045490
N28   N     N_R   0.421050 0.440250 0.334770 -0.047615
N29   N     N_R   0.921050 0.059750 0.334770 -0.047084
N30   N     N_R   0.078950 0.940250 0.665230 -0.047656
N31   N     N_R   0.078950 0.059750 0.665230 -0.045682
N32   N     N_R   0.921050 0.940250 0.334770 -0.047085
C33   C     C_R   0.597309 0.600267 0.789562 0.064528
C34   C     C_R   0.412339 0.376504 0.235379 0.073067
C35   C     C_R   0.403404 0.600866 0.209537 0.060321
C36   C     C_R   0.587507 0.376202 0.765439 0.071017
C37   C     C_R   0.095817 0.103514 0.786394 0.059066
C38   C     C_R   0.916563 0.869023 0.247166 0.065881
C39   C     C_R   0.902791 0.102471 0.211356 0.055831
C40   C     C_R   0.083119 0.864707 0.746483 0.058081
C41   C     C_R   0.643401 0.598845 0.497152 0.099623
C42   C     C_R   0.376429 0.369613 0.504878 0.105250
C43   C     C_R   0.383205 0.638455 0.501970 0.078371
C44   C     C_R   0.627502 0.372075 0.500213 0.118660
C45   C     C_R   0.143409 0.098782 0.497072 0.099606
C46   C     C_R   0.872563 0.873850 0.503818 0.112572
C47   C     C_R   0.853223 0.089621 0.501213 0.071221
C48   C     C_R   0.142664 0.899870 0.496290 0.127368
Ni1   Ni    Ni4+2 0.483090 0.500000 0.604440 0.249148
Ni2   Ni    Ni4+2 0.516910 0.500000 0.395560 0.219222
Ni3   Ni    Ni4+2 0.983090 0.000000 0.604440 0.252394
Ni4   Ni    Ni4+2 0.016910 0.000000 0.395560 0.218124
Ni5   Ni    Ni4+2 0.586780 0.500000 0.604440 0.240526
Ni6   Ni    Ni4+2 0.413220 0.500000 0.395560 0.251114
Ni7   Ni    Ni4+2 0.086780 0.000000 0.604440 0.230018
Ni8   Ni    Ni4+2 0.913220 0.000000 0.395560 0.247748
C49   C     C_R   0.324878 0.791753 0.435855 -0.149061
C50   C     C_R   0.642485 0.215354 0.453876 -0.107221
C51   C     C_R   0.785446 0.625331 0.575495 -0.132745
C52   C     C_R   0.344201 0.208741 0.483416 -0.078868
C53   C     C_R   0.720134 0.152514 0.422090 -0.146547
C54   C     C_R   0.281799 0.884338 0.551803 -0.142889
C55   C     C_R   0.285567 0.122156 0.573411 -0.142647
C56   C     C_R   0.846457 0.711887 0.492493 -0.059159
H33   H     H_    0.309800 0.821062 0.379171 0.140197
H34   H     H_    0.617407 0.180125 0.410645 0.135742
H35   H     H_    0.823631 0.621807 0.637573 0.147847
H36   H     H_    0.347035 0.170683 0.449908 0.164093
H37   H     H_    0.690360 0.177148 0.364017 0.133236
H38   H     H_    0.321410 0.896162 0.605584 0.139207
H39   H     H_    0.324007 0.116601 0.634499 0.143106
H40   H     H_    0.854025 0.672570 0.466849 0.167979
C57   C     C_R   0.347741 0.737761 0.437282 -0.174754
C58   C     C_R   0.620608 0.270427 0.449209 -0.166194
C59   C     C_R   0.740867 0.602088 0.569058 -0.135908
C60   C     C_R   0.364162 0.263185 0.478732 -0.065794
C61   C     C_R   0.761420 0.126443 0.421678 -0.146491
C62   C     C_R   0.238419 0.903039 0.553538 -0.165733
C63   C     C_R   0.240766 0.099851 0.567271 -0.189717
C64   C     C_R   0.865463 0.766564 0.486258 -0.074824
H41   H     H_    0.352801 0.727715 0.383827 0.139259
H42   H     H_    0.578096 0.276360 0.405170 0.141823
H43   H     H_    0.746492 0.577095 0.624854 0.159809
H44   H     H_    0.385899 0.266259 0.447174 0.189704
H45   H     H_    0.761423 0.131231 0.362131 0.150281
H46   H     H_    0.245095 0.932248 0.605990 0.133495
H47   H     H_    0.246225 0.073719 0.622081 0.142990
H48   H     H_    0.890641 0.768890 0.460828 0.181904
C65   C     C_R   0.361513 0.696018 0.504701 -0.035563
C66   C     C_R   0.653155 0.317363 0.501318 -0.036852
C67   C     C_R   0.689843 0.615418 0.495060 -0.056264
C68   C     C_R   0.354719 0.314180 0.511960 -0.080612
C69   C     C_R   0.804710 0.101585 0.499601 -0.020069
C70   C     C_R   0.187422 0.881966 0.490647 -0.033484
C71   C     C_R   0.189811 0.115159 0.494762 -0.045888
C72   C     C_R   0.850588 0.818469 0.509731 -0.081637
C73   C     C_R   0.355597 0.710687 0.574907 0.342496
C74   C     C_R   0.708332 0.309021 0.559672 0.371192
C75   C     C_R   0.684588 0.645453 0.421504 0.335251
C76   C     C_R   0.330901 0.309879 0.560587 0.339148
C77   C     C_R   0.801794 0.094968 0.575003 0.360183
C78   C     C_R   0.179529 0.845597 0.420870 0.355006
C79   C     C_R   0.184527 0.146734 0.422284 0.337565
C80   C     C_R   0.820937 0.815611 0.548398 0.346384
C81   C     C_R   0.335401 0.766226 0.575008 -0.223405
C82   C     C_R   0.729600 0.253095 0.564871 -0.190287
C83   C     C_R   0.730096 0.664355 0.426503 -0.211931
C84   C     C_R   0.313446 0.254434 0.568733 -0.239930
C85   C     C_R   0.761196 0.124316 0.575740 -0.229633
C86   C     C_R   0.223053 0.829787 0.417547 -0.235236
C87   C     C_R   0.230085 0.165087 0.426922 -0.222645
C88   C     C_R   0.804363 0.760236 0.558491 -0.253524
H49   H     H_    0.761430 0.125748 0.635865 0.183155
H50   H     H_    0.217492 0.798091 0.368293 0.175040
H51   H     H_    0.226002 0.193967 0.375257 0.190691
H52   H     H_    0.778414 0.757603 0.582506 0.182041
H53   H     H_    0.327115 0.775450 0.625100 0.183249
H54   H     H_    0.772211 0.246737 0.606107 0.159470
H55   H     H_    0.725869 0.692272 0.373851 0.193101
H56   H     H_    0.291502 0.251082 0.600104 0.184629
C89   C     C_R   0.316913 0.805143 0.503184 0.072487
C90   C     C_R   0.696979 0.206712 0.511549 0.111205
C91   C     C_R   0.779505 0.659515 0.506179 0.069473
C92   C     C_R   0.317472 0.204862 0.526260 0.024914
C93   C     C_R   0.722555 0.155982 0.501123 0.053246
C94   C     C_R   0.274377 0.845624 0.485805 0.071650
C95   C     C_R   0.279867 0.157528 0.505202 0.074498
C96   C     C_R   0.814817 0.709099 0.526586 0.024368
C97   C     C_R   0.372464 0.620137 0.115519 0.093646
C98   C     C_R   0.605294 0.324296 0.824862 0.096206
C99   C     C_R   0.629241 0.619243 0.882887 0.097468
C100  C     C_R   0.394189 0.323882 0.177992 0.098414
C101  C     C_R   0.869017 0.120857 0.117637 0.100545
C102  C     C_R   0.098837 0.806618 0.793138 0.100793
C103  C     C_R   0.127631 0.123697 0.878717 0.098668
C104  C     C_R   0.899956 0.813683 0.195148 0.082640
C105  C     C_R   0.367662 0.654392 0.983580 -0.123921
C106  C     C_R   0.598717 0.260419 0.926752 -0.154908
C107  C     C_R   0.637770 0.647122 0.019575 -0.133112
C108  C     C_R   0.405368 0.251207 0.091004 -0.147184
C109  C     C_R   0.850130 0.133540 0.969433 -0.116304
C110  C     C_R   0.083968 0.724214 0.864112 -0.143156
C111  C     C_R   0.138981 0.147625 0.018731 -0.130334
C112  C     C_R   0.912800 0.737527 0.114210 -0.126917
C113  C     C_R   0.397348 0.633488 0.070701 -0.154296
C114  C     C_R   0.582676 0.310841 0.873155 -0.161829
C115  C     C_R   0.606738 0.626955 0.932681 -0.162462
C116  C     C_R   0.421392 0.303178 0.140317 -0.162895
C117  C     C_R   0.885533 0.118061 0.058644 -0.149239
C118  C     C_R   0.068129 0.778747 0.819854 -0.159538
C119  C     C_R   0.106870 0.127980 0.931596 -0.159082
C120  C     C_R   0.928906 0.790051 0.162288 -0.115979
C121  C     C_R   0.317155 0.625571 0.069914 -0.144771
C122  C     C_R   0.642461 0.285375 0.828022 -0.141784
C123  C     C_R   0.683495 0.629750 0.922882 -0.140792
C124  C     C_R   0.351780 0.290919 0.167375 -0.134352
C125  C     C_R   0.817015 0.138124 0.085704 -0.145940
C126  C     C_R   0.144164 0.777403 0.807923 -0.139894
C127  C     C_R   0.180884 0.137297 0.915239 -0.137167
C128  C     C_R   0.855912 0.782552 0.181785 -0.137212
C129  C     C_R   0.286324 0.643438 0.980886 0.127818
C130  C     C_R   0.657691 0.233130 0.878997 0.127586
C131  C     C_R   0.715990 0.645839 0.011734 0.126529
C132  C     C_R   0.337284 0.236530 0.123113 0.126904
C133  C     C_R   0.779767 0.146926 0.995838 0.127685
C134  C     C_R   0.159096 0.721029 0.847812 0.124343
C135  C     C_R   0.214676 0.151437 0.004163 0.127966
C136  C     C_R   0.840847 0.727838 0.138019 0.131168
C137  C     C_R   0.312610 0.661772 0.939712 0.101468
C138  C     C_R   0.637445 0.222721 0.932532 0.120085
C139  C     C_R   0.691809 0.658791 0.058125 0.106855
C140  C     C_R   0.362625 0.218624 0.080166 0.116889
C141  C     C_R   0.797524 0.149591 0.938195 0.103502
C142  C     C_R   0.130303 0.696305 0.881181 0.113286
C143  C     C_R   0.192370 0.161419 0.054198 0.105048
C144  C     C_R   0.868017 0.707332 0.099441 0.100818
C145  C     C_R   0.230612 0.650976 0.936042 -0.111733
C146  C     C_R   0.697714 0.195222 0.887052 -0.116620
C147  C     C_R   0.770809 0.656714 0.051423 -0.122001
C148  C     C_R   0.294283 0.202970 0.112232 -0.114534
C149  C     C_R   0.726596 0.160630 0.964774 -0.115698
C150  C     C_R   0.205855 0.692306 0.865148 -0.115426
C151  C     C_R   0.268757 0.163686 0.040258 -0.122558
C152  C     C_R   0.795781 0.696508 0.123189 -0.111919
C153  C     C_R   0.712892 0.193270 0.825072 0.351092
C154  C     C_R   0.199155 0.621970 0.961962 0.341706
C155  C     C_R   0.273744 0.208935 0.166516 0.370618
C156  C     C_R   0.800970 0.632002 0.019957 0.344574
C157  C     C_R   0.230658 0.705314 0.818748 0.333979
C158  C     C_R   0.702460 0.144866 0.011255 0.352723
C159  C     C_R   0.773097 0.704843 0.173873 0.364502
C160  C     C_R   0.297237 0.141382 0.004212 0.352340
C161  C     C_R   0.762670 0.169558 0.851340 -0.276816
C162  C     C_R   0.148934 0.644882 0.933100 -0.293712
C163  C     C_R   0.223311 0.186948 0.137410 -0.297315
C164  C     C_R   0.849544 0.657587 0.045191 -0.287031
C165  C     C_R   0.283786 0.689005 0.856531 -0.265492
C166  C     C_R   0.657477 0.175972 0.993443 -0.311917
C167  C     C_R   0.721584 0.684944 0.141115 -0.296483
C168  C     C_R   0.344274 0.169101 0.025521 -0.302061
H57   H     H_    0.774738 0.168450 0.804848 0.183678
H58   H     H_    0.125153 0.623682 0.953808 0.187948
H59   H     H_    0.207601 0.191782 0.178525 0.191724
H60   H     H_    0.872266 0.639574 0.020349 0.186114
H61   H     H_    0.303181 0.699603 0.822355 0.199959
H62   H     H_    0.639587 0.165428 0.030054 0.181460
H63   H     H_    0.704186 0.691696 0.179374 0.193796
H64   H     H_    0.365688 0.153084 0.997158 0.182192
H65   H     H_    0.660813 0.297285 0.792948 0.138638
H66   H     H_    0.298138 0.619485 0.105254 0.124971
H67   H     H_    0.329048 0.308740 0.191687 0.139189
H68   H     H_    0.700182 0.629031 0.883380 0.123389
H69   H     H_    0.169564 0.799907 0.792427 0.127527
H70   H     H_    0.805661 0.146920 0.131756 0.120988
H71   H     H_    0.832031 0.802290 0.202575 0.136371
H72   H     H_    0.195822 0.140156 0.873184 0.122934
H73   H     H_    0.553530 0.339855 0.871426 0.125708
H74   H     H_    0.439877 0.629836 0.103417 0.139546
H75   H     H_    0.454526 0.327310 0.147581 0.120022
H76   H     H_    0.565026 0.619270 0.904221 0.135547
H77   H     H_    0.032487 0.799315 0.808510 0.124596
H78   H     H_    0.925517 0.104663 0.081173 0.134212
H79   H     H_    0.963292 0.812557 0.171737 0.146440
H80   H     H_    0.065858 0.117627 0.905587 0.132825
H81   H     H_    0.388012 0.666876 0.951672 0.155002
H82   H     H_    0.582177 0.252023 0.966010 0.131405
H83   H     H_    0.619186 0.655361 0.055614 0.158398
H84   H     H_    0.425808 0.237046 0.060060 0.132760
H85   H     H_    0.863926 0.133572 0.925288 0.159009
H86   H     H_    0.060800 0.704695 0.887240 0.139692
H87   H     H_    0.121832 0.153416 0.057508 0.158193
H88   H     H_    0.934638 0.721271 0.086749 0.145455
N33   N     N_R   0.676375 0.208896 0.733716 0.229800
O1    O     O_R   0.693825 0.229378 0.686954 -0.429190
O2    O     O_R   0.626152 0.196992 0.694595 -0.380599
N34   N     N_R   0.215180 0.566440 0.009664 0.231926
O3    O     O_R   0.198647 0.551775 0.060331 -0.385305
O4    O     O_R   0.241056 0.527386 0.994528 -0.369359
N35   N     N_R   0.305520 0.230967 0.254790 0.212390
O5    O     O_R   0.283767 0.261792 0.287512 -0.440480
O6    O     O_R   0.355281 0.215893 0.304977 -0.443472
N36   N     N_R   0.785638 0.577845 0.970168 0.231564
O7    O     O_R   0.799302 0.567921 0.914413 -0.395366
O8    O     O_R   0.763602 0.535369 0.988042 -0.376341
N37   N     N_R   0.201348 0.729249 0.730208 0.236832
O9    O     O_R   0.225170 0.760920 0.701649 -0.390203
O10   O     O_R   0.152362 0.713601 0.674588 -0.346231
N38   N     N_R   0.720523 0.094811 0.070966 0.228229
O11   O     O_R   0.713212 0.093447 0.135535 -0.422213
O12   O     O_R   0.738980 0.047689 0.055257 -0.386108
N39   N     N_R   0.803563 0.727043 0.262355 0.215815
O13   O     O_R   0.780751 0.758350 0.292802 -0.438411
O14   O     O_R   0.852831 0.710834 0.315407 -0.428184
N40   N     N_R   0.281635 0.087878 0.952871 0.228631
O15   O     O_R   0.293292 0.080037 0.894135 -0.417475
O16   O     O_R   0.261222 0.044066 0.971644 -0.388701
N41   N     N_R   0.363522 0.667856 0.640345 0.223979
O17   O     O_R   0.384091 0.684216 0.721751 -0.403316
O18   O     O_R   0.341473 0.615890 0.615970 -0.344878
N42   N     N_R   0.743294 0.356960 0.610227 0.226329
O19   O     O_R   0.735007 0.410030 0.576134 -0.404737
O20   O     O_R   0.787160 0.346222 0.685986 -0.362534
N43   N     N_R   0.634190 0.664598 0.346964 0.221198
O21   O     O_R   0.603198 0.697280 0.359250 -0.382435
O22   O     O_R   0.624379 0.660303 0.267583 -0.409767
N44   N     N_R   0.321501 0.361125 0.597462 0.237950
O23   O     O_R   0.309540 0.412192 0.556767 -0.341267
O24   O     O_R   0.318809 0.355397 0.666574 -0.369663
N45   N     N_R   0.839140 0.059723 0.650507 0.227643
O25   O     O_R   0.852705 0.075247 0.729459 -0.409645
O26   O     O_R   0.852866 0.007431 0.639495 -0.349399
N46   N     N_R   0.129094 0.819190 0.358637 0.222766
O27   O     O_R   0.114223 0.812558 0.276690 -0.404647
O28   O     O_R   0.102376 0.792817 0.386392 -0.354359
N47   N     N_R   0.134189 0.167491 0.349306 0.222959
O29   O     O_R   0.103664 0.199073 0.363997 -0.368040
O30   O     O_R   0.123887 0.165502 0.269431 -0.405122
N48   N     N_R   0.804404 0.868217 0.571725 0.250284
O31   O     O_R   0.789800 0.915275 0.521448 -0.337217
O32   O     O_R   0.796622 0.866557 0.635747 -0.352802

loop_
_geom_bond_atom_site_label_1
_geom_bond_atom_site_label_2
_geom_bond_distance
_ccdc_geom_bond_type
N21   Ni4   1.847304 S    
C158  N38   1.440061 S    
C56   C96   1.392175 A    
C21   N21   1.333660 A    
C31   H31   1.079603 S    
C9    C41   1.389893 A    
C89   C94   1.459073 S    
N35   O6    1.301168 A    
N45   O25   1.301526 A    
C2    C34   1.388688 A    
C48   C70   1.464615 S    
C92   C95   1.449768 S    
C143  C163  1.392140 A    
C116  H75   1.081124 S    
C157  C165  1.401559 A    
C14   H14   1.076741 S    
C39   C101  1.476178 S    
N42   O19   1.301559 A    
C24   N24   1.331348 A    
C3    N3    1.342011 A    
N29   Ni8   1.828329 S    
C64   C72   1.401335 A    
C5    H5    1.080590 S    
C134  C150  1.420121 A    
C49   H33   1.083327 S    
C110  C118  1.395168 A    
C63   H47   1.081491 S    
C8    H8    1.073737 S    
C28   H28   1.077412 S    
N6    N32   1.388597 A    
C62   C70   1.405044 A    
C25   H25   1.078892 S    
C118  H77   1.080898 S    
C5    C37   1.393711 A    
C78   C86   1.392402 A    
C146  C149  1.408768 A    
N44   O23   1.301401 A    
N13   N21   1.377660 A    
N26   Ni5   1.828329 S    
C161  H57   1.084032 S    
C80   N48   1.437991 S    
N48   O31   1.301228 A    
C26   C36   1.393808 A    
N31   Ni7   1.838370 S    
C12   N12   1.335080 A    
C65   C73   1.416267 A    
C106  C138  1.400001 A    
N35   O5    1.301035 A    
C22   N22   1.333681 A    
C108  C116  1.393507 A    
N36   O7    1.301519 A    
C57   C65   1.404750 A    
C110  C142  1.402288 A    
C55   C63   1.388106 A    
C8    C40   1.397953 A    
N15   N23   1.377790 A    
C60   C68   1.399446 A    
C61   C69   1.405622 A    
C159  C167  1.400060 A    
C160  C168  1.398297 A    
C108  H84   1.083807 S    
C133  C141  1.409757 A    
C102  C118  1.404334 A    
C66   C74   1.410444 A    
N34   O3    1.301486 A    
C156  C164  1.399111 A    
C137  C165  1.395964 A    
C21   C45   1.384085 A    
C23   C47   1.388123 A    
C146  C153  1.424740 A    
C40   C102  1.482129 S    
C135  C151  1.413307 A    
N46   O27   1.301294 A    
C87   H51   1.085091 S    
C150  C157  1.426122 A    
N22   Ni3   1.847304 S    
C35   C97   1.483374 S    
C148  C151  1.409677 A    
C26   N26   1.340964 A    
C129  C137  1.412908 A    
C32   H32   1.075676 S    
C33   C99   1.478526 S    
C12   C44   1.379294 A    
C71   C79   1.417066 A    
C72   C80   1.405980 A    
N14   N22   1.377660 A    
C3    H3    1.080563 S    
N11   Ni6   1.835803 S    
C100  C116  1.403704 A    
C5    N5    1.341730 A    
C54   H38   1.083341 S    
C19   C43   1.382433 A    
N41   O17   1.301365 A    
C106  H82   1.083866 S    
C74   N42   1.439320 S    
C111  H87   1.083704 S    
C28   C34   1.394319 A    
C112  H88   1.083809 S    
C23   N23   1.337498 A    
N18   Ni1   1.847304 S    
C138  C166  1.393868 A    
N1    N27   1.388600 A    
C99   C123  1.400353 A    
N1    Ni1   1.846650 S    
C97   C121  1.402529 A    
C103  C119  1.404405 A    
C30   N30   1.332577 A    
C101  C125  1.395442 A    
N4    Ni1   1.835291 S    
C130  C146  1.418335 A    
C6    H6    1.078556 S    
C51   C59   1.387358 A    
C17   H17   1.080790 S    
N38   O11   1.301577 A    
C22   C46   1.369591 A    
C49   C57   1.391143 A    
C54   C94   1.398536 A    
N28   Ni6   1.838371 S    
N40   O16   1.301645 A    
C20   H20   1.076597 S    
C21   H21   1.081087 S    
C53   C61   1.379909 A    
C23   H23   1.078719 S    
C155  N35   1.430499 S    
C24   H24   1.081189 S    
C164  H60   1.084045 S    
C165  H61   1.084082 S    
C27   N27   1.329735 A    
C73   C81   1.391970 A    
C151  C160  1.425415 A    
C167  H63   1.084355 S    
C29   H29   1.080385 S    
C7    C39   1.396590 A    
C82   H54   1.084195 S    
C124  H67   1.075380 S    
N33   O2    1.301603 A    
C107  C115  1.395938 A    
C125  H70   1.079008 S    
C24   C48   1.376406 A    
N16   N24   1.377790 A    
C105  C113  1.396040 A    
N37   O10   1.301631 A    
C110  H86   1.083768 S    
C30   C40   1.392643 A    
C163  H59   1.084326 S    
C112  C144  1.402058 A    
C69   C77   1.420337 A    
C52   C92   1.393113 A    
N5    N31   1.388600 A    
C67   C75   1.417519 A    
C55   C95   1.393171 A    
N7    N29   1.388560 A    
C32   C38   1.397124 A    
C136  C152  1.421590 A    
C4    N4    1.337819 A    
C98   C114  1.403231 A    
C59   C67   1.408975 A    
N14   Ni8   1.826274 S    
C19   N19   1.331995 A    
C126  H69   1.075196 S    
C91   C96   1.447208 S    
C43   C65   1.465603 S    
N15   Ni8   1.835803 S    
C41   C67   1.469800 S    
C147  C152  1.414049 A    
C122  H65   1.078448 S    
C42   C68   1.447834 S    
C76   C84   1.393995 A    
C4    H4    1.075782 S    
C13   H13   1.080706 S    
C162  H58   1.083965 S    
C46   C72   1.443938 S    
C10   N10   1.345047 A    
C79   C87   1.392805 A    
C80   C88   1.392162 A    
C139  C167  1.392891 A    
C83   H55   1.085174 S    
C114  H73   1.081511 S    
C77   N45   1.436162 S    
C14   N14   1.342403 A    
C37   C103  1.472592 S    
C1    N1    1.344484 A    
C130  C138  1.417581 A    
N2    N28   1.388597 A    
C64   H48   1.082954 S    
C58   C66   1.403568 A    
C76   N44   1.440492 S    
C58   H42   1.083780 S    
C7    N7    1.347268 A    
C7    H7    1.081071 S    
C104  C120  1.403687 A    
C122  C130  1.402878 A    
C134  C142  1.413719 A    
C3    C35   1.393092 A    
C88   H52   1.084568 S    
C44   C66   1.449248 S    
C126  C134  1.403020 A    
N42   O20   1.301424 A    
C15   C47   1.382477 A    
C31   C37   1.393141 A    
N9    Ni5   1.826274 S    
C13   N13   1.336361 A    
C121  C129  1.403011 A    
C45   C71   1.469637 S    
C148  C155  1.425722 A    
N5    Ni3   1.846650 S    
C10   C42   1.388928 A    
C152  C159  1.425454 A    
N44   O24   1.301468 A    
C14   C46   1.383254 A    
C57   H41   1.083054 S    
C55   H39   1.083421 S    
C56   H40   1.083047 S    
N48   O32   1.301356 A    
C129  C145  1.418790 A    
C6    N6    1.340797 A    
C27   C33   1.391289 A    
C124  C132  1.401236 A    
C107  H83   1.083804 S    
N33   O1    1.299097 A    
C155  C163  1.400667 A    
N7    Ni4   1.835290 S    
C127  C135  1.391394 A    
N36   O8    1.301659 A    
N27   Ni5   1.838370 S    
C75   C83   1.391990 A    
C86   H50   1.084390 S    
C111  C143  1.403854 A    
N13   Ni7   1.826274 S    
C109  C117  1.402843 A    
N39   O13   1.301224 A    
C168  H64   1.084033 S    
C15   N15   1.331082 A    
C16   N16   1.343091 A    
N2    Ni2   1.846652 S    
C26   H26   1.077863 S    
N34   O4    1.301673 A    
N16   Ni7   1.835806 S    
N45   O26   1.300865 A    
C61   H45   1.081403 S    
C145  C150  1.415211 A    
C18   H18   1.075597 S    
C1    H1    1.080313 S    
C50   C58   1.385303 A    
N46   O28   1.301535 A    
N10   Ni6   1.826274 S    
C17   C41   1.384366 A    
C22   H22   1.076525 S    
N3    Ni2   1.835290 S    
C54   C62   1.390621 A    
C31   N31   1.325621 A    
C38   C104  1.479885 S    
C166  H62   1.084043 S    
C105  C137  1.402452 A    
N47   O29   1.301405 A    
C74   C82   1.392766 A    
C11   C43   1.394803 A    
N23   Ni3   1.836117 S    
C59   H43   1.081106 S    
C82   C90   1.401470 A    
C111  C119  1.397464 A    
C144  C164  1.394598 A    
C109  C141  1.407261 A    
C81   H53   1.084553 S    
C78   N46   1.437634 S    
C86   C94   1.399336 A    
C140  C168  1.394044 A    
C141  C161  1.398020 A    
C103  C127  1.396095 A    
C9    N9    1.335593 A    
C101  C117  1.404515 A    
C70   C78   1.415731 A    
C16   C48   1.389399 A    
C51   H35   1.083476 S    
C52   C60   1.389274 A    
C145  C154  1.424983 A    
C153  C161  1.406488 A    
C159  N39   1.432967 S    
C63   C71   1.408523 A    
C149  C158  1.424424 A    
N24   Ni4   1.836120 S    
C156  N36   1.439464 S    
C11   H11   1.079728 S    
C62   H46   1.082590 S    
C90   C93   1.448474 S    
C158  C166  1.397025 A    
C47   C69   1.471673 S    
C25   N25   1.335869 A    
N43   O21   1.301419 A    
C131  C147  1.417617 A    
C27   H27   1.079255 S    
C29   N29   1.324116 A    
C123  H68   1.075870 S    
N38   O12   1.301666 A    
C50   C90   1.394259 A    
C81   C89   1.399173 A    
C11   N11   1.343514 A    
C12   H12   1.077079 S    
C125  C133  1.391458 A    
C18   C42   1.368206 A    
C115  H76   1.081001 S    
C123  C131  1.398151 A    
C153  N33   1.436414 S    
C2    N2    1.340469 A    
N17   Ni2   1.847304 S    
C60   H44   1.081391 S    
C79   N47   1.435111 S    
C98   C122  1.398646 A    
N37   O9    1.301681 A    
C107  C139  1.402786 A    
C52   H36   1.083134 S    
C17   N17   1.333079 A    
C102  C126  1.403160 A    
C128  C136  1.404237 A    
C87   C95   1.397563 A    
C88   C96   1.402614 A    
C117  H78   1.081741 S    
C77   C85   1.397469 A    
C119  H80   1.081207 S    
C135  C143  1.410916 A    
C120  H79   1.081187 S    
C85   C93   1.396625 A    
C108  C140  1.401643 A    
C8    N8    1.346985 A    
C10   H10   1.077059 S    
C15   H15   1.081079 S    
N41   O18   1.301508 A    
C132  C148  1.419574 A    
C32   N32   1.337951 A    
C20   N20   1.337497 A    
C30   H30   1.077535 S    
C73   N41   1.436631 S    
C112  C120  1.394096 A    
C6    C38   1.393308 A    
C13   C45   1.389664 A    
C106  C114  1.391281 A    
C100  C124  1.399147 A    
C160  N40   1.439809 S    
C121  H66   1.075367 S    
N39   O14   1.301229 A    
C157  N37   1.439573 S    
C104  C128  1.402040 A    
C1    C33   1.393850 A    
N9    N17   1.377660 A    
C127  H72   1.077040 S    
C128  H71   1.075196 S    
N4    N26   1.388563 A    
C113  H74   1.081108 S    
C34   C100  1.475242 S    
C99   C115  1.404444 A    
N40   O15   1.301540 A    
N3    N25   1.388560 A    
N8    N30   1.388563 A    
C56   C64   1.388967 A    
N30   Ni7   1.828330 S    
C84   H56   1.084456 S    
C97   C113  1.404888 A    
C85   H49   1.083933 S    
C75   N43   1.434764 S    
C18   N18   1.331627 A    
C68   C76   1.410393 A    
C28   N28   1.336709 A    
N11   N19   1.377790 A    
N47   O30   1.301267 A    
C154  N34   1.439427 S    
C4    C36   1.382987 A    
N12   N20   1.377790 A    
C19   H19   1.078293 S    
C109  H85   1.083513 S    
C2    H2    1.076116 S    
C136  C144  1.414624 A    
C53   H37   1.084134 S    
C25   C35   1.394642 A    
C105  H81   1.083790 S    
C147  C156  1.425229 A    
N32   Ni8   1.838371 S    
C36   C98   1.470307 S    
C131  C139  1.411895 A    
C83   C91   1.397117 A    
N19   Ni1   1.836117 S    
C133  C149  1.411086 A    
N43   O22   1.301264 A    
N12   Ni5   1.835806 S    
C84   C92   1.401892 A    
N6    Ni4   1.846652 S    
C50   H34   1.083423 S    
C142  C162  1.395339 A    
C16   H16   1.080978 S    
C51   C91   1.392015 A    
C132  C140  1.415474 A    
C29   C39   1.390377 A    
C49   C89   1.398454 A    
N25   Ni6   1.828327 S    
C20   C44   1.381301 A    
N8    Ni3   1.835291 S    
C9    H9    1.080472 S    
N10   N18   1.377660 A    
C53   C93   1.392991 A    
C154  C162  1.400458 A    
N20   Ni2   1.836120 S    
