data_mof_unit_pretest_1541.cif
_audit_creation_date              2012-12-10T17:17:17-0500
_audit_creation_method            fapswitch 2.2
_symmetry_space_group_name_H-M    P1
_symmetry_Int_Tables_number       1
_space_group_crystal_system       triclinic
_cell_length_a                    18.871509
_cell_length_b                    19.049029
_cell_length_c                    18.936133
_cell_angle_alpha                 110.08267
_cell_angle_beta                  109.597225
_cell_angle_gamma                 109.991457
_cell_volume                      5157.19525492

loop_
_atom_site_label
_atom_site_type_symbol
_atom_type_description
_atom_site_fract_x
_atom_site_fract_y
_atom_site_fract_z
_atom_type_partial_charge
C1    C     C_R   0.116208 0.119608 0.497777 0.855242
C2    C     C_R   0.269251 0.025778 0.694369 -0.017892
C3    C     C_R   0.187336 0.005128 0.689536 -0.052096
C4    C     C_R   0.168786 0.980517 0.746687 -0.103717
C5    C     C_R   0.234038 0.981351 0.810624 0.302780
C6    C     C_R   0.310144 0.990064 0.807187 -0.106295
C7    C     C_R   0.183942 0.171858 0.419629 0.327380
C8    C     C_R   0.249589 0.235468 0.420620 0.363387
C9    C     C_R   0.313018 0.315797 0.498773 -0.262922
C10   C     C_R   0.311030 0.334741 0.576536 -0.160489
C11   C     C_R   0.241251 0.273543 0.574029 0.371951
C12   C     C_R   0.118456 0.000489 0.619562 0.838869
C13   C     C_R   0.180862 0.189277 0.496990 -0.313482
C14   C     C_R   0.744555 0.921758 0.236856 0.291179
C15   C     C_R   0.682528 0.923060 0.172263 0.393209
C16   C     C_R   0.687617 0.002724 0.186565 -0.273317
C17   C     C_R   0.756295 0.082170 0.265254 -0.157279
C18   C     C_R   0.823457 0.081157 0.325844 0.384971
C19   C     C_R   0.815859 0.000841 0.313098 -0.280269
C20   C     C_R   0.830169 0.751291 0.513528 0.341197
C21   C     C_R   0.766572 0.685898 0.513105 0.361463
C22   C     C_R   0.687721 0.684078 0.499727 -0.199650
C23   C     C_R   0.881079 0.881029 0.499522 0.814298
C24   C     C_R   0.672101 0.745639 0.484460 -0.168064
C25   C     C_R   0.733948 0.810028 0.482630 -0.079582
C26   C     C_R   0.814054 0.813370 0.498590 -0.211158
C27   C     C_R   0.501229 0.880931 0.882920 0.858451
C28   C     C_R   0.380156 0.996550 0.878441 0.919021
C29   C     C_R   0.499765 0.118951 0.118482 0.899156
C30   C     C_R   0.619383 0.001534 0.119697 0.868446
C31   C     C_R   0.500008 0.618353 0.619125 0.754501
C32   C     C_R   0.380953 0.380714 0.498616 0.875048
C33   C     C_R   0.499713 0.381448 0.380873 0.927672
C34   C     C_R   0.881576 0.000018 0.380696 0.864119
C35   C     C_R   0.619508 0.617785 0.499491 0.829749
C36   C     C_R   0.581764 0.822536 0.825039 -0.033564
C37   C     C_R   0.581214 0.758915 0.758917 -0.091647
C38   C     C_R   0.500071 0.684499 0.687013 -0.115285
C39   C     C_R   0.419272 0.673287 0.679705 -0.041667
C40   C     C_R   0.419735 0.737254 0.745271 -0.065662
C41   C     C_R   0.500992 0.812417 0.816877 -0.072125
C42   C     C_R   0.496053 0.256164 0.175222 -0.127995
C43   C     C_R   0.500329 0.322432 0.242155 0.279257
C44   C     C_R   0.499017 0.314514 0.313105 -0.237264
C45   C     C_R   0.300557 0.069009 0.653822 -0.164952
C46   C     C_R   0.497668 0.242720 0.319675 0.330166
C47   C     C_R   0.500539 0.180289 0.257005 0.323154
C48   C     C_R   0.498352 0.185960 0.184097 -0.235433
C49   C     C_R   0.365303 0.061964 0.636076 0.249196
C50   C     C_R   0.402233 0.017163 0.663520 0.384314
C51   C     C_R   0.381633 0.987715 0.716507 0.265450
C52   C     C_R   0.321434 0.000949 0.740340 -0.101664
Cu1   Cu    Cu3+1 0.999980 0.061790 0.561790 1.195289
Cu2   Cu    Cu3+1 0.000020 0.938210 0.438210 1.168239
Cu3   Cu    Cu3+1 0.438200 0.938230 0.000040 1.186067
Cu4   Cu    Cu3+1 0.561800 0.061850 0.000040 1.094155
Cu5   Cu    Cu3+1 0.438190 0.500100 0.438300 1.140079
Cu6   Cu    Cu3+1 0.561810 0.500080 0.561880 1.152864
H1    H     H_    0.610703 0.742841 0.473245 0.217686
O1    O     O_R   0.090150 0.142360 0.552170 -0.505602
O2    O     O_R   0.552230 0.962090 0.909900 -0.544887
O3    O     O_R   0.357630 0.947820 0.909860 -0.553377
O4    O     O_R   0.462000 0.052220 0.909860 -0.541826
O5    O     O_R   0.447770 0.037990 0.090190 -0.517950
O6    O     O_R   0.552150 0.142390 0.090190 -0.602237
O7    O     O_R   0.538000 0.947860 0.090220 -0.523601
O8    O     O_R   0.642370 0.052260 0.090230 -0.597559
O9    O     O_R   0.447810 0.590260 0.538090 -0.570392
O10   O     O_R   0.552200 0.590240 0.642450 -0.589534
O11   O     O_R   0.357640 0.409920 0.447920 -0.526139
O12   O     O_R   0.090180 0.037990 0.447810 -0.556105
O13   O     O_R   0.462030 0.409900 0.552280 -0.579969
O14   O     O_R   0.447800 0.409940 0.357730 -0.527641
O15   O     O_R   0.552190 0.409920 0.462090 -0.534808
O16   O     O_R   0.537970 0.590270 0.447900 -0.570935
O17   O     O_R   0.642360 0.590260 0.552260 -0.547314
O18   O     O_R   0.090170 0.052200 0.642360 -0.497255
O19   O     O_R   0.090200 0.947840 0.538010 -0.585678
O20   O     O_R   0.909820 0.962010 0.552190 -0.581112
O21   O     O_R   0.909850 0.857640 0.447830 -0.527802
O22   O     O_R   0.909800 0.052160 0.461990 -0.559588
O23   O     O_R   0.909830 0.947800 0.357640 -0.527316
O24   O     O_R   0.447850 0.857690 0.909890 -0.584615
C53   C     C_2   0.081689 0.950871 0.740515 0.498147
H2    H     H_    0.055746 0.898461 0.752290 0.143764
O25   O     O_2   0.039895 0.986059 0.726410 -0.492870
Cl1   Cl    Cl    0.227958 0.307708 0.666307 -0.364025
Cl2   Cl    Cl    0.729746 0.819778 0.222494 -0.443122
Cl3   Cl    Cl    0.598908 0.823773 0.072386 -0.401864
C54   C     C_2   0.755374 0.164848 0.285952 0.536331
H3    H     H_    0.723726 0.175510 0.234726 0.061784
O26   O     O_2   0.787145 0.221438 0.361457 -0.419932
Cl4   Cl    Cl    0.921529 0.180918 0.413302 -0.439226
Cl5   Cl    Cl    0.931114 0.756082 0.534879 -0.510680
Cl6   Cl    Cl    0.784990 0.604253 0.524477 -0.432454
C55   C     C_2   0.712274 0.870658 0.460445 0.514991
H4    H     H_    0.753524 0.913466 0.447076 0.060826
O27   O     O_2   0.647041 0.872933 0.455824 -0.472952
C56   C     C_2   0.667234 0.899792 0.902045 0.524096
H5    H     H_    0.719434 0.933808 0.892829 0.100767
O28   O     O_2   0.680958 0.924098 0.976416 -0.501812
C57   C     C_2   0.279948 0.134996 0.645972 0.458711
H6    H     H_    0.283728 0.151274 0.597516 0.091977
O29   O     O_2   0.264680 0.176299 0.698098 -0.458685
C58   C     C_2   0.665003 0.770546 0.762585 0.411752
H7    H     H_    0.668154 0.752594 0.703231 0.064871
O30   O     O_2   0.729840 0.796898 0.830754 -0.474077
C59   C     C_2   0.333285 0.597016 0.602031 0.503967
H8    H     H_    0.280246 0.606689 0.571788 0.112306
O31   O     O_2   0.319749 0.522892 0.573315 -0.554859
C60   C     C_2   0.334922 0.725967 0.738637 0.427760
H9    H     H_    0.324956 0.780830 0.755173 0.115603
O32   O     O_2   0.276536 0.655819 0.717588 -0.474293
C61   C     C_2   0.486259 0.260216 0.095603 0.537274
H10   H     H_    0.519706 0.322404 0.100922 0.134283
O33   O     O_2   0.437820 0.194489 0.022801 -0.516374
Cl7   Cl    Cl    0.507963 0.415975 0.237192 -0.526585
Cl8   Cl    Cl    0.488913 0.228060 0.404575 -0.375767
Cl9   Cl    Cl    0.510920 0.097109 0.273099 -0.430901
Cl10  Cl    Cl    0.401576 0.109853 0.580297 -0.427168
Cl11  Cl    Cl    0.477535 0.001055 0.634303 -0.363855
Cl12  Cl    Cl    0.416519 0.917816 0.734221 -0.639875
Cl13  Cl    Cl    0.221047 0.977501 0.898292 -0.493327
Cl14  Cl    Cl    0.102167 0.073269 0.318483 -0.404724
Cl15  Cl    Cl    0.254960 0.212473 0.324157 -0.426216
C62   C     C_2   0.381671 0.419211 0.659791 0.604438
H11   H     H_    0.414060 0.477626 0.658632 0.070620
O34   O     O_2   0.407561 0.423643 0.730418 -0.429916

loop_
_geom_bond_atom_site_label_1
_geom_bond_atom_site_label_2
_ccdc_geom_bond_type
C7    C13   A    
Cu3   Cu4   S    
C62   H11   S    
C60   H9    S    
C7    Cl14  S    
C61   H10   S    
Cu5   Cu6   S    
Cu6   O17   S    
C7    C8    A    
C32   O13   A    
Cu1   Cu2   S    
C22   C35   S    
C58   O30   D    
C35   O16   A    
C1    O12   A    
C36   C37   A    
Cu1   O20   S    
C53   O25   D    
C5    C6    A    
C49   Cl10  S    
C16   C30   S    
Cu4   O6    S    
Cu3   O3    S    
C59   H8    S    
C46   Cl8   S    
Cu1   O22   S    
C18   C19   A    
C23   C26   S    
Cu5   O14   S    
C3    C12   S    
C27   O2    A    
C9    C32   S    
C42   C61   S    
C6    C28   S    
Cu2   O12   S    
C56   H5    S    
C11   Cl1   S    
C16   C17   A    
C55   O27   D    
C8    Cl15  S    
C34   O22   A    
Cu5   O11   S    
C9    C10   A    
C30   O8    A    
C47   Cl9   S    
C29   O5    A    
C2    C45   A    
C21   C22   A    
C12   O18   A    
C36   C41   A    
C31   O9    A    
C50   Cl11  S    
Cu1   O1    S    
C44   C46   A    
C50   C51   A    
C40   C60   S    
Cu2   O21   S    
Cu3   O5    S    
C39   C59   S    
C35   O17   A    
C29   C48   S    
C51   C52   A    
C53   H2    S    
C45   C57   S    
C1    O1    A    
C39   C40   A    
C8    C9    A    
C32   O11   A    
C21   Cl6   S    
C25   C26   A    
C12   O19   A    
Cu1   O18   S    
C43   C44   A    
C37   C58   S    
C37   C38   A    
C15   Cl3   S    
C27   C41   S    
C54   O26   D    
C47   C48   A    
C4    C53   S    
C45   C49   A    
C55   H4    S    
C17   C18   A    
Cu4   O4    S    
C60   O32   D    
C42   C48   A    
C24   C25   A    
C57   O29   D    
C30   O7    A    
C2    C52   A    
C43   Cl7   S    
C29   O6    A    
C33   O14   A    
C40   C41   A    
C56   O28   D    
C23   O21   A    
C22   C24   A    
C1    C13   S    
C42   C43   A    
Cu5   O9    S    
Cu3   O24   S    
C3    C4    A    
Cu2   O23   S    
Cu3   O7    S    
Cu6   O15   S    
C18   Cl4   S    
C20   Cl5   S    
C46   C47   A    
C62   O34   D    
C14   C15   A    
C33   C44   S    
C14   C19   A    
C17   C54   S    
C4    C5    A    
C19   C34   S    
C61   O33   D    
Cu6   O10   S    
Cu4   O8    S    
C58   H7    S    
C5    Cl13  S    
C31   C38   S    
C6    C52   A    
Cu5   O16   S    
C27   O24   A    
C2    C3    A    
C14   Cl2   S    
C11   C13   A    
Cu6   O13   S    
C54   H3    S    
C38   C39   A    
C20   C26   A    
C24   H1    S    
C59   O31   D    
C36   C56   S    
C57   H6    S    
C10   C11   A    
C28   O4    A    
C33   O15   A    
C31   O10   A    
C20   C21   A    
C25   C55   S    
C49   C50   A    
C51   Cl12  S    
Cu4   O2    S    
C34   O23   A    
C23   O20   A    
C10   C62   S    
C15   C16   A    
Cu2   O19   S    
C28   O3    A    
