data_mof_unit_pretest_1080.cif
_audit_creation_date              2012-12-10T16:56:36-0500
_audit_creation_method            fapswitch 2.2
_symmetry_space_group_name_H-M    P1
_symmetry_Int_Tables_number       1
_space_group_crystal_system       triclinic
_cell_length_a                    7.827115
_cell_length_b                    8.575519
_cell_length_c                    15.685837
_cell_angle_alpha                 91.527129
_cell_angle_beta                  85.496146
_cell_angle_gamma                 93.266449
_cell_volume                      1047.64151142

loop_
_atom_site_label
_atom_site_type_symbol
_atom_type_description
_atom_site_fract_x
_atom_site_fract_y
_atom_site_fract_z
_atom_type_partial_charge
C1    C     C_R   0.545118 0.794330 0.498610 0.948948
C2    C     C_3   0.395860 0.381173 0.029642 -0.165731
C3    C     C_1   0.504573 0.500622 0.750759 -0.195519
C4    C     C_1   0.495503 0.499949 0.249209 -0.163484
C5    C     C_3   0.340534 0.517033 0.976983 -0.165834
C6    C     C_3   0.660011 0.484602 0.022940 -0.165605
C7    C     C_3   0.503126 0.500914 0.917187 0.215040
C8    C     C_3   0.497407 0.500707 0.082744 0.211981
C9    C     C_1   0.505055 0.500838 0.826161 -0.092515
C10   C     C_1   0.495248 0.500325 0.173792 -0.084549
C11   C     C_3   0.946380 0.238072 0.398428 0.208137
C12   C     C_R   0.454649 0.205562 0.502411 0.941318
C13   C     C_3   0.054415 0.139016 0.335611 -0.894599
C14   C     C_3   0.050357 0.685862 0.643959 0.206130
C15   C     C_3   0.945785 0.797448 0.700988 -0.919850
C16   C     C_R   0.501562 0.500434 0.661858 0.885429
C17   C     C_R   0.498432 0.499576 0.338131 0.884029
C18   C     C_2   0.568434 0.957549 0.499633 -0.377678
C19   C     C_2   0.430299 0.042159 0.503529 -0.393260
C20   C     C_3   0.442082 0.636581 0.031899 -0.163134
C21   C     C_3   0.558461 0.365061 0.968029 -0.165633
C22   C     C_3   0.604690 0.620464 0.970265 -0.170078
H1    H     H_    0.690140 0.718062 0.943674 0.130564
H2    H     H_    0.921527 0.172442 0.458637 0.129949
H3    H     H_    0.177278 0.115665 0.362536 0.261172
H4    H     H_    0.983601 0.025881 0.322977 0.218053
H5    H     H_    0.082606 0.200899 0.274353 0.255752
H6    H     H_    0.176892 0.745869 0.626832 0.173963
H7    H     H_    0.063098 0.578827 0.680990 0.150428
H8    H     H_    0.817375 0.741800 0.720140 0.264898
H9    H     H_    0.012966 0.827864 0.759467 0.210933
H10   H     H_    0.929320 0.906185 0.666273 0.259004
H11   H     H_    0.310419 0.283523 0.056171 0.130171
H12   H     H_    0.394367 0.747428 0.060245 0.131884
H13   H     H_    0.606177 0.254215 0.939680 0.130996
H14   H     H_    0.790514 0.471374 0.043947 0.132240
H15   H     H_    0.210047 0.530272 0.955952 0.129123
H16   H     H_    0.698941 0.007296 0.497531 0.167576
H17   H     H_    0.299187 0.991921 0.506615 0.186564
H18   H     H_    0.825490 0.258564 0.369228 0.174453
N1    N     N_2   0.950320 0.457950 0.477300 0.162455
N2    N     N_2   0.049680 0.542050 0.522700 0.160409
O1    O     O_R   0.389250 0.738570 0.505570 -0.643018
O2    O     O_3   0.963249 0.648809 0.570812 -0.522299
O3    O     O_R   0.610750 0.261430 0.494430 -0.666303
O4    O     O_R   0.678390 0.711630 0.491020 -0.569583
O5    O     O_R   0.321610 0.288370 0.508980 -0.600617
O6    O     O_R   0.355460 0.513480 0.630490 -0.675699
O7    O     O_R   0.644540 0.486520 0.369510 -0.638137
O8    O     O_R   0.644600 0.486540 0.615950 -0.582674
O9    O     O_R   0.355400 0.513460 0.384050 -0.556038
O10   O     O_3   0.038031 0.379442 0.414208 -0.516042
Zn1   Zn    Zn3+2 0.306940 0.517990 0.509710 1.009952
Zn2   Zn    Zn3+2 0.693060 0.482010 0.490290 1.016327

loop_
_geom_bond_atom_site_label_1
_geom_bond_atom_site_label_2
_ccdc_geom_bond_type
C15   H9    S    
C3    C9    T    
C5    H15   S    
C17   O9    A    
C7    C22   S    
N1    N2    D    
N1    O10   S    
O5    Zn1   S    
C20   H12   S    
O4    Zn2   S    
C2    C21   S    
O1    Zn1   S    
C18   H16   S    
C15   H10   S    
C5    C20   S    
O8    Zn2   S    
C7    C21   S    
C11   C13   S    
C13   H3    S    
C1    C18   S    
C8    C20   S    
N2    O2    S    
C12   O5    A    
C21   H13   S    
C4    C17   S    
C19   H17   S    
C12   C19   S    
C1    O4    A    
C6    H14   S    
O3    Zn2   S    
N2    Zn1   S    
O6    Zn1   S    
N1    Zn2   S    
C13   H4    S    
C2    C5    S    
C20   C22   S    
C14   H7    S    
C4    C10   T    
C11   H18   S    
C6    C22   S    
C7    C9    S    
C11   H2    S    
C16   O6    A    
C2    H11   S    
C15   H8    S    
C14   O2    S    
C18   C19   D    
C17   O7    A    
C5    C7    S    
C22   H1    S    
C13   H5    S    
C6    C8    S    
C11   O10   S    
C14   H6    S    
C14   C15   S    
C6    C21   S    
C1    O1    A    
C8    C10   S    
C2    C8    S    
C3    C16   S    
O7    Zn2   S    
C16   O8    A    
C12   O3    A    
O9    Zn1   S    
