data_mof_unit_pretest_1204.cif
_audit_creation_date              2012-12-10T17:37:16-0500
_audit_creation_method            fapswitch 2.2
_symmetry_space_group_name_H-M    P1
_symmetry_Int_Tables_number       1
_space_group_crystal_system       triclinic
_cell_length_a                    12.4603
_cell_length_b                    13.171064
_cell_length_c                    15.847094
_cell_angle_alpha                 74.985438
_cell_angle_beta                  101.502873
_cell_angle_gamma                 117.063677
_cell_volume                      2226.82949811

loop_
_atom_site_label
_atom_site_type_symbol
_atom_type_description
_atom_site_fract_x
_atom_site_fract_y
_atom_site_fract_z
_atom_type_partial_charge
C1    C     C_R   0.855266 0.285485 0.509492 0.827093
C2    C     C_3   0.998394 0.498299 0.916462 0.120566
C3    C     C_3   0.077198 0.608076 0.016772 -0.293397
C4    C     C_3   0.000093 0.501940 0.083226 0.097755
C5    C     C_3   0.964413 0.578594 0.949258 0.157398
C6    C     C_3   0.889146 0.475349 0.015656 0.199226
C7    C     C_1   0.000067 0.498732 0.825068 0.008100
C8    C     C_1   0.999204 0.501871 0.174661 -0.001949
C9    C     C_R   0.272679 0.041389 0.453515 -0.051759
C10   C     C_R   0.228087 0.836278 0.505269 -0.197130
C11   C     C_R   0.810959 0.081011 0.588692 -0.128252
C12   C     C_R   0.000540 0.499960 0.659825 0.827872
C13   C     C_R   0.725126 0.987339 0.641735 -0.044171
C14   C     C_R   0.604493 0.970253 0.625390 -0.209234
C15   C     C_R   0.562350 0.025032 0.546207 0.036346
C16   C     C_R   0.647442 0.124034 0.496660 0.074518
C17   C     C_R   0.437178 0.985526 0.516425 -0.001024
C18   C     C_R   0.396887 0.065484 0.458602 -0.040176
C19   C     C_R   0.481477 0.163951 0.406717 -0.061675
C20   C     C_R   0.604891 0.184867 0.420452 0.096312
C21   C     C_R   0.352533 0.867376 0.535410 -0.059757
C22   C     C_R   0.187361 0.925353 0.480175 -0.097977
C23   C     C_R   0.144682 0.713211 0.497063 0.826608
C24   C     C_R   0.772774 0.159598 0.525158 -0.147623
C25   C     C_R   0.364587 0.372624 0.667659 -0.101030
C26   C     C_R   0.756029 0.646392 0.378760 0.191651
C27   C     C_R   0.671434 0.691900 0.363166 -0.255465
C28   C     C_R   0.577656 0.645166 0.415452 -0.189476
C29   C     C_R   0.560388 0.546397 0.481401 -0.013677
C30   C     C_R   0.656957 0.509800 0.504392 0.299094
C31   C     C_R   0.453837 0.488486 0.529011 -0.063838
C32   C     C_R   0.460107 0.420117 0.613203 0.048783
C33   C     C_R   0.555795 0.389849 0.638437 -0.228350
C34   C     C_R   0.999950 0.500782 0.340099 0.823784
C35   C     C_R   0.645404 0.422803 0.583842 0.161517
C36   C     C_R   0.339043 0.491071 0.496543 0.381868
C37   C     C_R   0.257347 0.381077 0.632432 0.046059
C38   C     C_3   0.035176 0.419644 0.052178 -0.165591
C39   C     C_3   0.921669 0.392731 0.983337 -0.266979
C40   C     C_1   0.000990 0.499301 0.749601 -0.124925
C41   C     C_1   0.999161 0.501456 0.250253 -0.117122
C42   C     C_3   0.108891 0.524795 0.984451 0.173626
Cu1   Cu    Cu3+1 0.098270 0.475420 0.519690 1.012425
Cu2   Cu    Cu3+1 0.901730 0.524580 0.480310 1.013018
H1    H     H_    0.857038 0.305737 0.969245 0.164920
H2    H     H_    0.542209 0.908503 0.672661 0.190456
H3    H     H_    0.183046 0.346199 0.672541 0.177593
H4    H     H_    0.554433 0.326290 0.697836 0.175169
H5    H     H_    0.067134 0.355764 0.095367 0.167072
H6    H     H_    0.521497 0.690401 0.404570 0.179747
H7    H     H_    0.677887 0.764329 0.309556 0.161562
H8    H     H_    0.141064 0.695651 0.030113 0.159862
N1    N     N_R   0.246280 0.438200 0.549540 -0.180960
N2    N     N_R   0.754330 0.561180 0.450980 -0.236476
O1    O     O_R   0.972510 0.318130 0.524770 -0.567418
O2    O     O_R   0.806530 0.359650 0.491510 -0.552672
O3    O     O_R   0.082970 0.479240 0.637550 -0.576170
O4    O     O_R   0.916990 0.520750 0.604290 -0.548968
O5    O     O_R   0.193470 0.640350 0.508490 -0.572886
O6    O     O_R   0.027490 0.681870 0.475230 -0.545581
O7    O     O_R   0.083010 0.479250 0.395710 -0.549464
O8    O     O_R   0.917030 0.520760 0.362450 -0.576103
C43   C     C_2   0.395496 0.775917 0.578220 0.862832
O9    O     O_2   0.354923 0.709768 0.645952 -0.575594
O10   O     O_R   0.483246 0.766933 0.541533 -0.775266
H9    H     H_    0.508451 0.704650 0.578511 0.332437
C44   C     C_2   0.939780 0.100636 0.603136 0.926811
O11   O     O_2   0.992561 0.114154 0.540969 -0.556575
O12   O     O_R   0.000785 0.104456 0.687258 -0.735906
H10   H     H_    0.087091 0.115752 0.688407 0.362026
C45   C     C_2   0.755792 0.903190 0.713071 0.905820
O13   O     O_2   0.834385 0.875361 0.706158 -0.546367
O14   O     O_R   0.690353 0.851348 0.786809 -0.752689
H11   H     H_    0.717899 0.794191 0.830064 0.349480
N3    N     N_3   0.684870 0.258664 0.353459 -0.577810
H12   H     H_    0.649245 0.225555 0.295719 0.222474
H13   H     H_    0.689088 0.342141 0.341360 0.281235
C46   C     C_2   0.374418 0.318932 0.762201 0.831971
O15   O     O_2   0.469990 0.357037 0.807970 -0.586567
O16   O     O_R   0.272234 0.228308 0.799977 -0.762210
H14   H     H_    0.289580 0.200241 0.864867 0.348977
N4    N     N_3   0.311752 0.535125 0.406489 -0.545550
H15   H     H_    0.354091 0.518336 0.364520 0.228018
H16   H     H_    0.330668 0.622808 0.397452 0.217603
C47   C     C_2   0.842750 0.691670 0.312695 0.881663
O17   O     O_2   0.812578 0.650929 0.246076 -0.580904
O18   O     O_R   0.954347 0.786263 0.322195 -0.731175
H17   H     H_    0.004550 0.810103 0.271445 0.333708
N5    N     N_3   0.713732 0.356206 0.611019 -0.512192
H18   H     H_    0.747455 0.358303 0.676908 0.203944
H19   H     H_    0.654674 0.269465 0.608366 0.205664
N6    N     N_3   0.768612 0.450914 0.033421 -0.536342
H20   H     H_    0.711395 0.433441 0.975907 0.254227
H21   H     H_    0.738920 0.374153 0.080358 0.221736
N7    N     N_3   0.922490 0.662323 0.892500 -0.535802
H22   H     H_    0.908547 0.705757 0.932906 0.243344
H23   H     H_    0.993398 0.724072 0.855474 0.244671
N8    N     N_3   0.229460 0.550300 0.966039 -0.545033
H24   H     H_    0.286849 0.567215 0.023554 0.230270
H25   H     H_    0.258720 0.627567 0.919562 0.235747
C48   C     C_2   0.061102 0.898406 0.492690 0.953606
O19   O     O_2   0.017864 0.835909 0.560670 -0.567126
O20   O     O_R   0.991551 0.943336 0.427995 -0.669080
H26   H     H_    0.907314 0.917416 0.444870 0.345296
C49   C     C_2   0.440465 0.233728 0.329394 0.832708
O21   O     O_2   0.484246 0.339466 0.320735 -0.592352
O22   O     O_R   0.351391 0.178000 0.266713 -0.732427
H27   H     H_    0.330471 0.234503 0.217319 0.347999
C50   C     C_2   0.237256 0.139183 0.434041 0.911007
O23   O     O_2   0.284875 0.213835 0.479200 -0.603108
O24   O     O_R   0.154225 0.148899 0.362395 -0.673633
H28   H     H_    0.139375 0.220283 0.355694 0.345712

loop_
_geom_bond_atom_site_label_1
_geom_bond_atom_site_label_2
_ccdc_geom_bond_type
O18   H17   S    
C43   O10   S    
C3    C42   S    
C48   O19   D    
O14   H11   S    
N7    H22   S    
C4    C8    S    
C14   H2    S    
C38   H5    S    
C47   O17   D    
C10   C22   A    
C23   O5    A    
C30   N2    A    
C26   C27   A    
C22   C48   S    
C30   C35   A    
C28   C29   A    
C1    O2    A    
Cu2   O6    S    
C38   C42   S    
C42   N8    S    
C38   C39   S    
C33   C35   A    
C46   O16   S    
C9    C22   A    
C15   C16   A    
C11   C24   A    
C34   O8    A    
C18   C19   A    
N3    H12   S    
C36   N1    A    
C2    C7    S    
C25   C37   A    
C7    C40   T    
C28   H6    S    
C2    C39   S    
Cu1   N1    S    
O24   H28   S    
C36   N4    S    
O22   H27   S    
C37   H3    S    
Cu1   O5    S    
C39   H1    S    
C12   O4    A    
C25   C32   A    
C16   C24   A    
C13   C14   A    
C34   C41   S    
C26   N2    A    
C5    N7    S    
C11   C44   S    
C47   O18   S    
C10   C21   A    
C9    C50   S    
C23   O6    A    
C44   O11   D    
C8    C41   T    
C4    C6    S    
Cu2   O4    S    
C45   O14   S    
C46   O15   D    
C13   C45   S    
Cu2   O8    S    
C34   O7    A    
C17   C21   A    
C25   C46   S    
C20   N3    S    
C44   O12   S    
C12   C40   S    
Cu1   Cu2   S    
C29   C30   A    
C49   O22   S    
Cu2   O2    S    
C31   C32   A    
C14   C15   A    
C16   C20   A    
N6    H21   S    
C17   C18   A    
N3    H13   S    
C12   O3    A    
C19   C49   S    
Cu1   O1    S    
C4    C38   S    
N8    H24   S    
N4    H16   S    
C2    C5    S    
N5    H19   S    
C3    C4    S    
C35   N5    S    
O20   H26   S    
Cu1   O7    S    
C15   C17   A    
C6    C39   S    
O16   H14   S    
C3    C5    S    
C3    H8    S    
N7    H23   S    
C10   C23   S    
C49   O21   D    
N8    H25   S    
C32   C33   A    
C19   C20   A    
C50   O24   S    
C1    O1    A    
C37   N1    A    
C45   O13   D    
C29   C31   A    
C50   O23   D    
C11   C13   A    
C5    C6    S    
C2    C42   S    
C26   C47   S    
C6    N6    S    
N6    H20   S    
C27   H7    S    
O10   H9    S    
O12   H10   S    
C21   C43   S    
Cu1   O3    S    
C43   O9    D    
Cu2   N2    S    
C9    C18   A    
C1    C24   S    
C48   O20   S    
N4    H15   S    
C27   C28   A    
C33   H4    S    
C31   C36   A    
N5    H18   S    
