data_mof_unit_pretest_1336.cif
_audit_creation_date              2012-10-26T19:08:24-0400
_audit_creation_method            fapswitch 2.2
_symmetry_space_group_name_H-M    P1
_symmetry_Int_Tables_number       1
_space_group_crystal_system       triclinic
_cell_length_a                    14.728566
_cell_length_b                    14.628221
_cell_length_c                    19.349068
_cell_angle_alpha                 76.818195
_cell_angle_beta                  102.88339
_cell_angle_gamma                 114.923442
_cell_volume                      3642.76731408

loop_
_atom_site_label
_atom_site_type_symbol
_atom_type_description
_atom_site_fract_x
_atom_site_fract_y
_atom_site_fract_z
_atom_type_partial_charge
C1    C     C_R   0.880350 0.311906 0.511843 0.550233
C2    C     C_R   0.290000 0.823702 0.492221 -0.141697
C3    C     C_R   0.640684 0.074513 0.522894 0.003765
C4    C     C_R   0.360771 0.919817 0.507301 0.009343
C5    C     C_R   0.677652 0.998204 0.525771 0.077118
C6    C     C_R   0.324243 0.992929 0.513515 0.059614
C7    C     C_R   0.535354 0.047077 0.521729 0.036263
C8    C     C_R   0.466843 0.945029 0.515697 0.036815
C9    C     C_R   0.506654 0.870778 0.520281 -0.150980
C10   C     C_R   0.496463 0.118060 0.527269 -0.140299
C11   C     C_R   0.609603 0.896884 0.525540 -0.123052
C12   C     C_R   0.119574 0.688004 0.489162 0.547352
C13   C     C_R   0.393674 0.091451 0.523444 -0.127398
C14   C     C_R   0.718303 0.673466 0.384487 -0.153347
C15   C     C_R   0.282052 0.327090 0.616059 -0.157679
C16   C     C_R   0.999713 0.500028 0.632433 0.546759
C17   C     C_R   0.000343 0.500072 0.367557 0.548302
C18   C     C_R   0.798373 0.641631 0.401466 0.038978
C19   C     C_R   0.201459 0.358184 0.598412 0.039510
C20   C     C_R   0.714249 0.508138 0.489457 0.035746
C21   C     C_R   0.286351 0.492656 0.511235 0.036095
C22   C     C_R   0.629421 0.536112 0.474278 0.003439
C23   C     C_R   0.812770 0.203337 0.518844 -0.029597
C24   C     C_R   0.371757 0.465524 0.527168 0.004957
C25   C     C_R   0.634004 0.621542 0.420879 0.042350
C26   C     C_R   0.367088 0.380009 0.580509 0.042716
C27   C     C_R   0.541487 0.483684 0.510115 0.025176
C28   C     C_R   0.460170 0.518620 0.491899 0.022918
C29   C     C_R   0.470217 0.605550 0.439290 -0.145597
C30   C     C_R   0.531915 0.397433 0.563297 -0.143171
C31   C     C_R   0.555069 0.655331 0.404465 -0.125784
C32   C     C_R   0.446736 0.347206 0.597751 -0.133634
C33   C     C_R   0.073127 0.478731 0.761205 -0.132963
C34   C     C_R   0.186916 0.795685 0.490656 -0.035024
C35   C     C_R   0.926964 0.521506 0.238777 -0.132323
C36   C     C_R   0.073267 0.478929 0.833132 -0.119892
C37   C     C_R   0.927052 0.521736 0.166813 -0.119411
C38   C     C_R   0.999625 0.500547 0.853618 0.033909
C39   C     C_R   0.001077 0.500777 0.146262 0.033561
C40   C     C_R   0.925748 0.521929 0.800683 -0.121508
C41   C     C_R   0.075136 0.479678 0.199165 -0.119351
C42   C     C_R   0.925618 0.521739 0.728662 -0.137511
C43   C     C_R   0.075041 0.479446 0.271220 -0.134779
C44   C     C_R   0.999365 0.500176 0.708323 0.012447
C45   C     C_R   0.782070 0.024817 0.527424 0.138155
C46   C     C_R   0.000879 0.500287 0.291631 0.011981
C47   C     C_R   0.000821 0.500852 0.070071 0.345459
C48   C     C_R   0.000014 0.500716 0.929788 0.345057
C49   C     C_3   0.848974 0.904416 0.600903 -0.320223
C50   C     C_3   0.078360 0.022551 0.500694 -0.319379
C51   C     C_R   0.218987 0.966575 0.509436 0.147449
C52   C     C_R   0.848915 0.127285 0.524105 -0.125933
C53   C     C_R   0.151236 0.866961 0.498385 -0.109163
C54   C     C_R   0.709803 0.176575 0.518257 -0.146602
Cu1   Cu    Cu3+1 0.081740 0.475680 0.518680 0.931112
Cu2   Cu    Cu3+1 0.918260 0.524320 0.481320 0.929188
H1    H     H_    0.130945 0.461776 0.747132 0.132433
H2    H     H_    0.277599 0.261501 0.656949 0.089650
H3    H     H_    0.413619 0.637639 0.423723 0.090677
H4    H     H_    0.589221 0.366321 0.579696 0.087036
H5    H     H_    0.131201 0.462109 0.872596 0.137849
H6    H     H_    0.868967 0.538320 0.127376 0.137993
H7    H     H_    0.867940 0.538862 0.814756 0.135834
H8    H     H_    0.133257 0.463280 0.185039 0.138364
H9    H     H_    0.867768 0.538485 0.689014 0.127868
H10   H     H_    0.133055 0.462957 0.310838 0.131759
H11   H     H_    0.635271 0.836601 0.528332 0.155267
H12   H     H_    0.868841 0.537938 0.252901 0.133066
H13   H     H_    0.369457 0.150091 0.527557 0.135738
H14   H     H_    0.312978 0.768399 0.481049 0.119438
H15   H     H_    0.684885 0.237750 0.511543 0.126557
H16   H     H_    0.071045 0.842972 0.498407 0.128725
H17   H     H_    0.928666 0.147319 0.524339 0.119539
H18   H     H_    0.460552 0.790513 0.522235 0.106402
H19   H     H_    0.543601 0.194750 0.537039 0.099202
H20   H     H_    0.873682 0.971634 0.496426 0.243229
H21   H     H_    0.870665 0.841598 0.597668 0.144216
H22   H     H_    0.784990 0.872281 0.632480 0.161851
H23   H     H_    0.559034 0.721500 0.364216 0.115061
H24   H     H_    0.914692 0.962809 0.628672 0.140245
H25   H     H_    0.217008 0.069603 0.567214 0.242568
H26   H     H_    0.068211 0.092594 0.503475 0.143928
H27   H     H_    0.033605 0.959203 0.538932 0.134003
H28   H     H_    0.051045 0.005229 0.444959 0.158674
H29   H     H_    0.442969 0.281298 0.638223 0.107145
H30   H     H_    0.281963 0.554534 0.470030 0.114941
H31   H     H_    0.718668 0.446183 0.530572 0.115003
H32   H     H_    0.135412 0.316681 0.625331 0.123292
H33   H     H_    0.863992 0.682551 0.374045 0.125100
H34   H     H_    0.722633 0.738914 0.343490 0.096305
N1    N     N_R   0.928944 0.521150 0.950121 -0.233245
N2    N     N_R   0.071906 0.480446 0.049735 -0.231868
N3    N     N_R   0.929346 0.521208 0.018897 -0.232665
N4    N     N_R   0.071501 0.480384 0.980961 -0.232127
N5    N     N_R   0.795420 0.560800 0.453240 -0.232628
N6    N     N_R   0.204580 0.439200 0.546760 -0.231770
N7    N     N_2   0.819508 0.949064 0.529344 -0.536306
N8    N     N_2   0.184148 0.039498 0.520153 -0.520738
O1    O     O_R   0.977910 0.338110 0.524620 -0.505251
O2    O     O_R   0.022090 0.661890 0.475380 -0.506810
O3    O     O_R   0.839850 0.379180 0.493080 -0.505775
O4    O     O_R   0.160150 0.620820 0.506920 -0.504727
O5    O     O_R   0.069040 0.479450 0.615630 -0.501964
O6    O     O_R   0.930960 0.520550 0.384370 -0.501190
O7    O     O_R   0.930990 0.520520 0.584090 -0.506838
O8    O     O_R   0.069010 0.479480 0.415910 -0.504520

loop_
_geom_bond_atom_site_label_1
_geom_bond_atom_site_label_2
_ccdc_geom_bond_type
C25   C31   A    
Cu2   N5    S    
C30   C32   A    
Cu1   Cu2   S    
C26   C32   A    
C7    C10   A    
C47   N2    A    
C14   C18   A    
C4    C8    A    
C1    O1    A    
C37   H6    S    
C50   H28   S    
C7    C8    A    
C39   C41   A    
C15   C19   A    
C19   H32   S    
Cu1   O4    S    
C40   H7    S    
C48   N4    A    
C28   C29   A    
C35   C37   A    
C17   O6    A    
C24   C26   A    
Cu2   O3    S    
C5    C11   A    
C3    C7    A    
C3    C54   A    
H25   N8    S    
C20   H31   S    
Cu1   O5    S    
C33   C36   A    
C49   H22   S    
C14   H34   S    
C54   H15   S    
C29   H3    S    
C8    C9    A    
C33   C44   A    
C48   N1    A    
C30   H4    S    
C42   H9    S    
C6    C51   A    
C16   C44   S    
C38   C48   S    
C2    C34   A    
C51   N8    S    
C40   C42   A    
C27   C30   A    
C18   N5    A    
C41   C43   A    
C42   C44   A    
C11   H11   S    
C50   H27   S    
C50   N8    S    
Cu1   O8    S    
C17   C46   S    
Cu2   O6    S    
C4    C6    A    
C52   H17   S    
C15   C26   A    
C45   C52   A    
H20   N7    S    
C5    C45   A    
C22   C25   A    
C51   C53   A    
C2    C4    A    
C12   O4    A    
N1    N3    A    
C10   H19   S    
C16   O5    A    
N2    N4    A    
C47   N3    A    
C9    C11   A    
C16   O7    A    
C20   N5    A    
C20   C22   A    
C1    C23   S    
C22   C27   A    
C15   H2    S    
C9    H18   S    
Cu2   O2    S    
C12   C34   S    
C36   H5    S    
C1    O3    A    
C50   H26   S    
C23   C54   A    
C39   C47   S    
C21   H30   S    
C33   H1    S    
C18   H33   S    
C24   C28   A    
Cu1   N6    S    
C3    C5    A    
C10   C13   A    
C31   H23   S    
C21   N6    A    
C49   H24   S    
C36   C38   A    
C37   C39   A    
C45   N7    S    
C17   O8    A    
C6    C13   A    
C38   C40   A    
C53   H16   S    
C23   C52   A    
C13   H13   S    
C35   H12   S    
C43   H10   S    
C32   H29   S    
C49   H21   S    
C14   C25   A    
C43   C46   A    
Cu2   O7    S    
C12   O2    A    
C49   N7    S    
C34   C53   A    
C29   C31   A    
C21   C24   A    
Cu1   O1    S    
C27   C28   A    
C41   H8    S    
C2    H14   S    
C35   C46   A    
C19   N6    A    
