data_mof_unit_pretest_1782.cif
_audit_creation_date              2012-10-26T18:00:01-0400
_audit_creation_method            fapswitch 2.2
_symmetry_space_group_name_H-M    P1
_symmetry_Int_Tables_number       1
_space_group_crystal_system       triclinic
_cell_length_a                    39.05325
_cell_length_b                    39.053357
_cell_length_c                    18.365126
_cell_angle_alpha                 89.999785
_cell_angle_beta                  89.999898
_cell_angle_gamma                 89.999961
_cell_volume                      28009.7650144

loop_
_atom_site_label
_atom_site_type_symbol
_atom_type_description
_atom_site_fract_x
_atom_site_fract_y
_atom_site_fract_z
_atom_type_partial_charge
C1    C     C_R   0.566238 1.000000 0.500000 0.590747
C2    C     C_R   1.000000 0.714011 0.500001 -0.020799
C3    C     C_R   0.996866 0.122217 0.434467 -0.133100
C4    C     C_R   0.122217 0.996871 0.565533 -0.133097
C5    C     C_R   0.996821 0.877783 0.565523 -0.133094
C6    C     C_R   0.877782 0.003121 0.565535 -0.133104
C7    C     C_R   0.003134 0.122217 0.565531 -0.133099
C8    C     C_R   0.377783 0.496867 0.934468 -0.133106
C9    C     C_R   0.503060 0.377781 0.934452 -0.133124
C10   C     C_R   0.622222 0.502929 0.934424 -0.133104
C11   C     C_R   0.496869 0.622218 0.934467 -0.133081
C12   C     C_R   0.622222 0.497071 0.065575 -0.133117
C13   C     C_R   0.285990 0.000001 0.499998 -0.020825
C14   C     C_R   0.496939 0.377781 0.065548 -0.133088
C15   C     C_R   0.377783 0.503133 0.065532 -0.133094
C16   C     C_R   0.503131 0.622217 0.065533 -0.133116
C17   C     C_R   0.841938 0.996416 0.433750 0.020536
C18   C     C_R   0.003643 0.841939 0.433765 0.020540
C19   C     C_R   0.158061 0.003592 0.433751 0.020535
C20   C     C_R   0.996403 0.158061 0.433752 0.020535
C21   C     C_R   0.158062 0.996409 0.566247 0.020534
C22   C     C_R   0.996357 0.841939 0.566237 0.020540
C23   C     C_R   0.841938 0.003584 0.566251 0.020535
C24   C     C_R   0.000000 0.285990 0.499999 -0.020821
C25   C     C_R   0.003597 0.158061 0.566245 0.020535
C26   C     C_R   0.341938 0.496404 0.933754 0.020535
C27   C     C_R   0.503520 0.341937 0.933735 0.020531
C28   C     C_R   0.658067 0.503385 0.933701 0.020523
C29   C     C_R   0.496406 0.658062 0.933752 0.020538
C30   C     C_R   0.658067 0.496615 0.066298 0.020524
C31   C     C_R   0.496479 0.341937 0.066265 0.020532
C32   C     C_R   0.341938 0.503596 0.066247 0.020535
C33   C     C_R   0.503593 0.658062 0.066247 0.020538
C34   C     C_R   0.823718 0.000000 0.500001 0.102431
C35   C     C_R   0.214010 0.500000 0.000000 -0.020823
C36   C     C_R   1.000000 0.823719 0.500001 0.102429
C37   C     C_R   0.176282 0.000001 0.499999 0.102432
C38   C     C_R   0.000000 0.176282 0.499999 0.102431
C39   C     C_R   0.323718 0.500000 0.000000 0.102434
C40   C     C_R   0.499999 0.323717 0.000000 0.102443
C41   C     C_R   0.676287 0.500000 1.000000 0.102460
C42   C     C_R   0.499999 0.676282 1.000000 0.102436
C43   C     C_R   0.895892 0.000000 0.500000 -0.006963
C44   C     C_R   1.000000 0.895893 0.500000 -0.006958
C45   C     C_R   0.104107 0.000000 0.500000 -0.006961
C46   C     C_R   0.499999 0.214008 0.000000 -0.020853
C47   C     C_R   1.000000 0.104107 0.499999 -0.006960
C48   C     C_R   0.395893 0.500000 0.000000 -0.006957
C49   C     C_R   0.500000 0.395892 0.000000 -0.006959
C50   C     C_R   0.604111 0.500000 1.000000 -0.006977
C51   C     C_R   0.500000 0.604108 1.000000 -0.006955
C52   C     C_R   0.767809 0.972852 0.532237 0.326028
C53   C     C_R   0.027120 0.767810 0.532342 0.326027
C54   C     C_R   0.232190 0.027145 0.532247 0.326027
C55   C     C_R   0.972859 0.232190 0.532259 0.326028
C56   C     C_R   0.232190 0.972857 0.467749 0.326028
C57   C     C_R   0.785997 0.500000 1.000000 -0.020884
C58   C     C_R   0.972879 0.767810 0.467661 0.326026
C59   C     C_R   0.767809 0.027148 0.467765 0.326029
C60   C     C_R   0.027141 0.232190 0.467738 0.326030
C61   C     C_R   0.267810 0.472858 0.032258 0.326032
C62   C     C_R   0.527177 0.267808 0.032121 0.326036
C63   C     C_R   0.732196 0.527246 0.031858 0.326033
C64   C     C_R   0.472857 0.732190 0.032254 0.326031
C65   C     C_R   0.732196 0.472754 0.968141 0.326034
C66   C     C_R   0.472821 0.267808 0.967880 0.326033
C67   C     C_R   0.267810 0.527142 0.967742 0.326030
C68   C     C_R   0.500000 0.785990 1.000000 -0.020825
C69   C     C_R   0.527142 0.732190 0.967745 0.326035
C70   C     C_R   0.732103 0.972927 0.532297 -0.028397
C71   C     C_R   0.027046 0.732104 0.532399 -0.028392
C72   C     C_R   0.267897 0.027070 0.532307 -0.028401
C73   C     C_R   0.972934 0.267897 0.532318 -0.028405
C74   C     C_R   0.267897 0.972931 0.467690 -0.028399
C75   C     C_R   0.972954 0.732104 0.467604 -0.028402
C76   C     C_R   0.732103 0.027073 0.467705 -0.028400
C77   C     C_R   0.027067 0.267897 0.467679 -0.028394
C78   C     C_R   0.232103 0.472933 0.032317 -0.028399
C79   C     C_R   0.785861 0.000000 0.500001 0.011139
C80   C     C_R   0.527102 0.232101 0.032182 -0.028401
C81   C     C_R   0.767903 0.527170 0.031921 -0.028404
C82   C     C_R   0.472932 0.767897 0.032314 -0.028398
C83   C     C_R   0.767903 0.472830 0.968078 -0.028405
C84   C     C_R   0.472897 0.232101 0.967818 -0.028402
C85   C     C_R   0.232103 0.527067 0.967683 -0.028397
C86   C     C_R   0.527068 0.767897 0.967685 -0.028397
C87   C     C_R   0.824216 0.991629 0.363058 0.044456
C88   C     C_R   0.829898 0.014741 0.305685 -0.046339
C89   C     C_R   0.813059 0.010422 0.239126 -0.093781
C90   C     C_R   0.999999 0.785862 0.500001 0.011142
C91   C     C_R   0.790613 0.982944 0.229226 -0.088584
C92   C     C_R   0.785074 0.959651 0.285772 -0.089520
C93   C     C_R   0.801887 0.963848 0.352376 -0.090656
C94   C     C_R   0.008497 0.824216 0.363093 0.044448
C95   C     C_R   0.985439 0.829898 0.305622 -0.046358
C96   C     C_R   0.989822 0.813061 0.239081 -0.093801
C97   C     C_R   0.017310 0.790615 0.229298 -0.088579
C98   C     C_R   0.040550 0.785076 0.285943 -0.089500
C99   C     C_R   0.036289 0.801889 0.352529 -0.090654
C100  C     C_R   0.175783 0.008388 0.363062 0.044452
C101  C     C_R   0.214139 0.000001 0.499998 0.011141
C102  C     C_R   0.170102 0.985283 0.305679 -0.046342
C103  C     C_R   0.186941 0.989610 0.239123 -0.093784
C104  C     C_R   0.209388 0.017089 0.229237 -0.088583
C105  C     C_R   0.214925 0.040376 0.285794 -0.089520
C106  C     C_R   0.198111 0.036171 0.352395 -0.090660
C107  C     C_R   0.991601 0.175783 0.363065 0.044451
C108  C     C_R   0.014701 0.170102 0.305672 -0.046340
C109  C     C_R   0.010368 0.186941 0.239117 -0.093783
C110  C     C_R   0.982889 0.209387 0.229242 -0.088583
C111  C     C_R   0.959606 0.214925 0.285809 -0.089516
C112  C     C_R   1.000000 0.566238 0.500000 0.590684
C113  C     C_R   0.000000 0.214139 0.499998 0.011141
C114  C     C_R   0.963817 0.198111 0.352409 -0.090660
C115  C     C_R   0.175784 0.991614 0.636935 0.044453
C116  C     C_R   0.170103 0.014720 0.694318 -0.046338
C117  C     C_R   0.186942 0.010394 0.760873 -0.093781
C118  C     C_R   0.209390 0.982915 0.770759 -0.088583
C119  C     C_R   0.214927 0.959628 0.714203 -0.089517
C120  C     C_R   0.198113 0.963832 0.647603 -0.090656
C121  C     C_R   0.991502 0.824217 0.636909 0.044446
C122  C     C_R   0.014559 0.829898 0.694380 -0.046357
C123  C     C_R   0.010176 0.813061 0.760921 -0.093796
C124  C     C_R   0.285861 0.500000 0.000000 0.011140
C125  C     C_R   0.982688 0.790615 0.770705 -0.088572
C126  C     C_R   0.959449 0.785077 0.714059 -0.089494
C127  C     C_R   0.963710 0.801890 0.647473 -0.090653
C128  C     C_R   0.824216 0.008371 0.636944 0.044455
C129  C     C_R   0.829898 0.985259 0.694316 -0.046341
C130  C     C_R   0.813059 0.989578 0.760875 -0.093783
C131  C     C_R   0.790613 0.017056 0.770776 -0.088584
C132  C     C_R   0.785074 0.040349 0.714230 -0.089522
C133  C     C_R   0.801888 0.036152 0.647626 -0.090660
C134  C     C_R   0.008399 0.175784 0.636932 0.044452
C135  C     C_R   0.499999 0.285860 0.000000 0.011140
C136  C     C_R   0.985299 0.170103 0.694325 -0.046340
C137  C     C_R   0.989632 0.186941 0.760880 -0.093789
C138  C     C_R   0.017112 0.209387 0.770754 -0.088590
C139  C     C_R   0.040394 0.214925 0.714187 -0.089521
C140  C     C_R   0.036183 0.198111 0.647588 -0.090660
C141  C     C_R   0.324217 0.491604 0.863066 0.044448
C142  C     C_R   0.329897 0.514705 0.805676 -0.046341
C143  C     C_R   0.313058 0.510374 0.739121 -0.093784
C144  C     C_R   0.290612 0.482895 0.729244 -0.088584
C145  C     C_R   0.285075 0.459611 0.785808 -0.089526
C146  C     C_R   0.714144 0.500000 1.000000 0.011152
C147  C     C_R   0.301889 0.463820 0.852408 -0.090669
C148  C     C_R   0.508235 0.324215 0.863021 0.044448
C149  C     C_R   0.485065 0.329896 0.805756 -0.046332
C150  C     C_R   0.489316 0.313057 0.739178 -0.093775
C151  C     C_R   0.516783 0.290610 0.729152 -0.088609
C152  C     C_R   0.540134 0.285072 0.785589 -0.089569
C153  C     C_R   0.536005 0.301886 0.852212 -0.090688
C154  C     C_R   0.675789 0.507951 0.862940 0.044435
C155  C     C_R   0.670109 0.484659 0.805897 -0.046324
C156  C     C_R   0.686948 0.488769 0.739277 -0.093753
C157  C     C_R   0.499999 0.714139 0.999999 0.011138
C158  C     C_R   0.709392 0.516216 0.728986 -0.088628
C159  C     C_R   0.714929 0.539687 0.785198 -0.089588
C160  C     C_R   0.698116 0.535699 0.851862 -0.090678
C161  C     C_R   0.491607 0.675784 0.863063 0.044446
C162  C     C_R   0.514709 0.670103 0.805673 -0.046331
C163  C     C_R   0.510379 0.686941 0.739117 -0.093778
C164  C     C_R   0.482899 0.709387 0.729237 -0.088583
C165  C     C_R   0.459615 0.714926 0.785799 -0.089518
C166  C     C_R   0.463823 0.698112 0.852401 -0.090662
C167  C     C_R   0.675789 0.492049 0.137059 0.044435
C168  C     C_R   0.658094 0.971417 0.474181 0.363275
C169  C     C_R   0.670109 0.515341 0.194102 -0.046329
C170  C     C_R   0.686947 0.511231 0.260722 -0.093757
C171  C     C_R   0.709392 0.483784 0.271014 -0.088630
C172  C     C_R   0.714929 0.460313 0.214801 -0.089594
C173  C     C_R   0.698116 0.464301 0.148137 -0.090685
C174  C     C_R   0.491762 0.324215 0.136979 0.044445
C175  C     C_R   0.514931 0.329895 0.194245 -0.046316
C176  C     C_R   0.510680 0.313055 0.260823 -0.093763
C177  C     C_R   0.483212 0.290609 0.270847 -0.088601
C178  C     C_R   0.459861 0.285072 0.214409 -0.089547
C179  C     C_R   0.028599 0.658096 0.474264 0.363276
C180  C     C_R   0.463991 0.301887 0.147787 -0.090670
C181  C     C_R   0.324216 0.508396 0.136934 0.044448
C182  C     C_R   0.329897 0.485294 0.194324 -0.046336
C183  C     C_R   0.313058 0.489625 0.260879 -0.093780
C184  C     C_R   0.290612 0.517105 0.270756 -0.088582
C185  C     C_R   0.285074 0.540389 0.214192 -0.089520
C186  C     C_R   0.301888 0.536180 0.147593 -0.090662
C187  C     C_R   0.508392 0.675784 0.136937 0.044448
C188  C     C_R   0.485289 0.670102 0.194326 -0.046347
C189  C     C_R   0.489619 0.686940 0.260882 -0.093791
C190  C     C_R   0.341906 0.028586 0.474192 0.363277
C191  C     C_R   0.517098 0.709386 0.270763 -0.088593
C192  C     C_R   0.540383 0.714925 0.214201 -0.089539
C193  C     C_R   0.536175 0.698112 0.147599 -0.090680
C194  C     C_R   0.971413 0.341905 0.474201 0.363278
C195  C     C_R   0.341905 0.971415 0.525805 0.363274
C196  C     C_R   0.433762 0.000000 0.500000 0.590737
C197  C     C_R   0.971400 0.658096 0.525738 0.363283
C198  C     C_R   0.658094 0.028583 0.525821 0.363277
C199  C     C_R   0.028587 0.341905 0.525797 0.363272
C200  C     C_R   0.158095 0.471413 0.974198 0.363278
C201  C     C_R   0.528564 0.158092 0.974085 0.363272
C202  C     C_R   0.841915 0.528516 0.973841 0.363267
C203  C     C_R   0.471414 0.841906 0.974197 0.363277
C204  C     C_R   0.841915 0.471484 0.026158 0.363268
C205  C     C_R   0.471435 0.158091 0.025915 0.363272
C206  C     C_R   0.158094 0.528586 0.025802 0.363276
C207  C     C_R   0.000000 0.433762 0.500000 0.590728
C208  C     C_R   0.528586 0.841905 0.025802 0.363278
C209  C     C_R   0.622352 0.971355 0.474281 0.355727
C210  C     C_R   0.028661 0.622354 0.474361 0.355729
C211  C     C_R   0.377648 0.028647 0.474293 0.355732
C212  C     C_R   0.971351 0.377648 0.474301 0.355740
C213  C     C_R   0.377648 0.971353 0.525706 0.355727
C214  C     C_R   0.971339 0.622354 0.525640 0.355743
C215  C     C_R   0.622351 0.028644 0.525720 0.355731
C216  C     C_R   0.028649 0.377648 0.525698 0.355725
C217  C     C_R   0.122352 0.471352 0.974298 0.355728
C218  C     C_R   0.066238 0.500000 0.000000 0.590737
C219  C     C_R   0.528626 0.122349 0.974188 0.355721
C220  C     C_R   0.877657 0.528578 0.973949 0.355697
C221  C     C_R   0.471352 0.877648 0.974297 0.355729
C222  C     C_R   0.877657 0.471422 0.026051 0.355700
C223  C     C_R   0.471374 0.122349 0.025813 0.355720
C224  C     C_R   0.122352 0.528648 0.025702 0.355726
C225  C     C_R   0.528648 0.877648 0.025703 0.355729
C226  C     C_R   0.604070 1.000000 0.500000 -0.099430
C227  C     C_R   1.000000 0.604072 0.500000 -0.099453
C228  C     C_R   0.395929 0.000000 0.499999 -0.099432
C229  C     C_R   0.500000 0.066237 0.000000 0.590819
C230  C     C_R   0.000000 0.395929 0.499999 -0.099439
C231  C     C_R   0.104071 0.500000 0.000000 -0.099426
C232  C     C_R   0.500000 0.104068 0.000000 -0.099405
C233  C     C_R   0.895935 0.500000 0.000000 -0.099347
C234  C     C_R   0.500000 0.895930 1.000000 -0.099430
C235  C     C_R   0.676231 0.000000 0.500001 -0.088110
C236  C     C_R   1.000000 0.676233 0.500001 -0.088117
C237  C     C_R   0.323768 0.000000 0.499999 -0.088110
C238  C     C_R   0.000000 0.323768 0.499999 -0.088114
C239  C     C_R   0.176232 0.500000 0.000000 -0.088107
C240  C     C_R   0.933764 0.500000 0.000000 0.591001
C241  C     C_R   0.500000 0.176229 0.000000 -0.088104
C242  C     C_R   0.823776 0.500000 1.000000 -0.088100
C243  C     C_R   0.500000 0.823768 1.000000 -0.088108
C244  C     C_R   1.000000 0.933669 0.500000 0.560238
C245  C     C_R   0.066331 1.000000 0.500000 0.560241
C246  C     C_R   0.000000 0.066331 0.500000 0.560241
C247  C     C_R   0.933669 1.000000 0.500000 0.560240
C248  C     C_R   0.500000 0.433669 0.000000 0.560247
C249  C     C_R   0.566332 0.500000 1.000000 0.560244
C250  C     C_R   0.500000 0.566331 1.000000 0.560244
C251  C     C_R   0.500000 0.933762 1.000000 0.590738
C252  C     C_R   0.433669 0.500000 0.000000 0.560242
C253  C     C_R   0.500000 1.000000 0.639826 0.547297
C254  C     C_R   1.000000 0.500000 0.639826 0.547271
C255  C     C_R   0.500000 1.000000 0.360174 0.547297
C256  C     C_R   0.000000 0.500000 0.360174 0.547272
C257  C     C_R   1.000000 0.500000 0.139826 0.547388
C258  C     C_R   0.500000 0.000000 0.139826 0.547322
C259  C     C_R   1.000000 0.500000 0.860174 0.547388
C260  C     C_R   0.500000 1.000000 0.860174 0.547323
C261  C     C_1   0.500000 1.000000 0.717352 0.002253
C262  C     C_R   0.714010 1.000000 0.500001 -0.020826
C263  C     C_1   1.000000 0.500000 0.717352 0.002261
C264  C     C_1   0.500000 0.000000 0.282648 0.002254
C265  C     C_1   0.000000 0.500000 0.282648 0.002261
C266  C     C_1   1.000000 0.500000 0.217352 0.002295
C267  C     C_1   0.500000 0.000000 0.217352 0.002261
C268  C     C_1   1.000000 0.500000 0.782648 0.002295
C269  C     C_1   0.500000 1.000000 0.782648 0.002261
C270  C     C_R   0.877782 0.996879 0.434465 -0.133096
C271  C     C_R   0.003178 0.877783 0.434478 -0.133092
C272  C     C_R   0.122217 0.003129 0.434466 -0.133104
Cu1   Cu    Cu3+1 0.500000 0.034230 0.500000 1.146329
Cu2   Cu    Cu3+1 0.000000 0.000000 0.427480 0.939700
Cu3   Cu    Cu3+1 0.500000 0.500000 0.072520 0.939699
Cu4   Cu    Cu3+1 0.500000 0.500000 0.927480 0.939699
Cu5   Cu    Cu3+1 0.965770 0.500000 0.500000 1.146426
Cu6   Cu    Cu3+1 0.500000 0.965770 0.500000 1.146295
Cu7   Cu    Cu3+1 0.034230 0.500000 0.500000 1.146314
Cu8   Cu    Cu3+1 0.000000 0.534230 0.000000 1.146187
Cu9   Cu    Cu3+1 0.465770 0.000000 0.000000 1.146271
Cu10  Cu    Cu3+1 0.000000 0.465770 0.000000 1.146204
Cu11  Cu    Cu3+1 0.534230 0.000000 0.000000 1.146278
Cu12  Cu    Cu3+1 1.000000 0.000000 0.572520 0.939700
F1    F     F_    0.784798 0.946178 0.562912 -0.617333
F2    F     F_    0.553880 0.284796 0.062682 -0.617295
F3    F     F_    0.715208 0.554013 0.062161 -0.617299
F4    F     F_    0.446187 0.715202 0.062948 -0.617330
F5    F     F_    0.715208 0.445987 0.937838 -0.617291
F6    F     F_    0.446118 0.284796 0.937319 -0.617320
F7    F     F_    0.284798 0.553810 0.937046 -0.617331
F8    F     F_    0.553812 0.715202 0.937052 -0.617306
F9    F     F_    0.675018 0.943837 0.447088 -0.559646
F10   F     F_    0.056197 0.675020 0.447254 -0.559646
F11   F     F_    0.324982 0.056169 0.447113 -0.559639
F12   F     F_    0.053767 0.784798 0.563120 -0.617339
F13   F     F_    0.943828 0.324982 0.447130 -0.559623
F14   F     F_    0.324982 0.943832 0.552885 -0.559647
F15   F     F_    0.943803 0.675020 0.552748 -0.559621
F16   F     F_    0.675017 0.056163 0.552913 -0.559637
F17   F     F_    0.056172 0.324982 0.552868 -0.559647
F18   F     F_    0.175018 0.443830 0.947124 -0.559645
F19   F     F_    0.556124 0.175014 0.946897 -0.559641
F20   F     F_    0.824993 0.556023 0.946412 -0.559645
F21   F     F_    0.443830 0.824982 0.947121 -0.559644
F22   F     F_    0.824993 0.443977 0.053587 -0.559640
F23   F     F_    0.215202 0.053815 0.562936 -0.617334
F24   F     F_    0.443876 0.175014 0.053103 -0.559644
F25   F     F_    0.175018 0.556170 0.052876 -0.559650
F26   F     F_    0.556170 0.824982 0.052878 -0.559641
F27   F     F_    0.605732 0.943532 0.447498 -0.535173
F28   F     F_    0.056502 0.605736 0.447657 -0.535165
F29   F     F_    0.394268 0.056474 0.447523 -0.535154
F30   F     F_    0.943523 0.394268 0.447539 -0.535117
F31   F     F_    0.394267 0.943526 0.552476 -0.535171
F32   F     F_    0.943498 0.605735 0.552344 -0.535110
F33   F     F_    0.605731 0.056468 0.552503 -0.535156
F34   F     F_    0.946191 0.215202 0.562959 -0.617336
F35   F     F_    0.056477 0.394267 0.552460 -0.535172
F36   F     F_    0.105732 0.443524 0.947533 -0.535175
F37   F     F_    0.556430 0.105728 0.947314 -0.535181
F38   F     F_    0.894283 0.556328 0.946839 -0.535228
F39   F     F_    0.443525 0.894268 0.947530 -0.535170
F40   F     F_    0.894283 0.443672 0.053161 -0.535219
F41   F     F_    0.443570 0.105727 0.052687 -0.535184
F42   F     F_    0.105732 0.556476 0.052467 -0.535185
F43   F     F_    0.556475 0.894267 0.052469 -0.535168
F44   F     F_    0.215201 0.946186 0.437061 -0.617337
F45   F     F_    0.946232 0.784799 0.436883 -0.617343
F46   F     F_    0.784797 0.053822 0.437090 -0.617329
F47   F     F_    0.053809 0.215202 0.437038 -0.617332
F48   F     F_    0.284798 0.446190 0.062954 -0.617324
H1    H     H_    0.891546 0.994090 0.383557 0.130944
H2    H     H_    0.505800 0.391545 0.883531 0.130923
H3    H     H_    0.479973 0.277578 0.322401 0.132568
H4    H     H_    0.438504 0.267809 0.222338 0.152787
H5    H     H_    0.445498 0.297618 0.104809 0.157615
H6    H     H_    0.347073 0.463774 0.187234 0.133508
H7    H     H_    0.317376 0.471645 0.304775 0.123565
H8    H     H_    0.277581 0.520405 0.322293 0.132595
H9    H     H_    0.267810 0.561755 0.222006 0.152808
H10   H     H_    0.297619 0.554621 0.104515 0.157625
H11   H     H_    0.463769 0.652926 0.187233 0.133494
H12   H     H_    0.471637 0.682621 0.304776 0.123559
H13   H     H_    0.608459 0.505564 0.883477 0.130968
H14   H     H_    0.520397 0.722416 0.322301 0.132589
H15   H     H_    0.561749 0.732188 0.222018 0.152801
H16   H     H_    0.554617 0.702381 0.104524 0.157623
H17   H     H_    0.494072 0.608453 0.883560 0.130943
H18   H     H_    0.608458 0.494436 0.116523 0.130957
H19   H     H_    0.494199 0.391545 0.116469 0.130954
H20   H     H_    0.391547 0.505932 0.116439 0.130940
H21   H     H_    0.505928 0.608453 0.116439 0.130913
H22   H     H_    0.718533 0.951960 0.557943 0.198611
H23   H     H_    0.047992 0.718534 0.558122 0.198580
H24   H     H_    0.281467 0.048035 0.557962 0.198606
H25   H     H_    0.006014 0.891547 0.383581 0.130931
H26   H     H_    0.951971 0.281466 0.557983 0.198596
H27   H     H_    0.281467 0.951967 0.442034 0.198609
H28   H     H_    0.952007 0.718534 0.441881 0.198568
H29   H     H_    0.718533 0.048040 0.442059 0.198609
H30   H     H_    0.048029 0.281467 0.442015 0.198607
H31   H     H_    0.218533 0.451970 0.057979 0.198606
H32   H     H_    0.548093 0.218532 0.057741 0.198647
H33   H     H_    0.781471 0.548216 0.057280 0.198686
H34   H     H_    0.451968 0.781467 0.057973 0.198607
H35   H     H_    0.781471 0.451784 0.942719 0.198685
H36   H     H_    0.108453 0.005925 0.383559 0.130937
H37   H     H_    0.451906 0.218532 0.942260 0.198643
H38   H     H_    0.218533 0.548030 0.942021 0.198607
H39   H     H_    0.548031 0.781467 0.942026 0.198611
H40   H     H_    0.847073 0.036259 0.312792 0.133494
H41   H     H_    0.817378 0.028410 0.195244 0.123561
H42   H     H_    0.777583 0.979653 0.177686 0.132587
H43   H     H_    0.767810 0.938286 0.277940 0.152805
H44   H     H_    0.797618 0.945399 0.395438 0.157621
H45   H     H_    0.963913 0.847073 0.312638 0.133489
H46   H     H_    0.971876 0.817379 0.195122 0.123538
H47   H     H_    0.994066 0.108453 0.383561 0.130936
H48   H     H_    0.020651 0.777586 0.177771 0.132601
H49   H     H_    0.061923 0.767814 0.278202 0.152822
H50   H     H_    0.054698 0.797620 0.395670 0.157635
H51   H     H_    0.152927 0.963763 0.312777 0.133490
H52   H     H_    0.182624 0.971626 0.195233 0.123559
H53   H     H_    0.222418 0.020386 0.177699 0.132591
H54   H     H_    0.232189 0.061742 0.277974 0.152810
H55   H     H_    0.202380 0.054615 0.395467 0.157626
H56   H     H_    0.036222 0.152927 0.312760 0.133496
H57   H     H_    0.028348 0.182623 0.195220 0.123559
H58   H     H_    0.108453 0.994076 0.616440 0.130944
H59   H     H_    0.979587 0.222417 0.177705 0.132588
H60   H     H_    0.938240 0.232189 0.277997 0.152816
H61   H     H_    0.945377 0.202380 0.395488 0.157626
H62   H     H_    0.152927 0.036239 0.687221 0.133494
H63   H     H_    0.182624 0.028377 0.804763 0.123560
H64   H     H_    0.222420 0.979619 0.822297 0.132590
H65   H     H_    0.232192 0.938263 0.722024 0.152810
H66   H     H_    0.202382 0.945387 0.604531 0.157624
H67   H     H_    0.036085 0.847073 0.687364 0.133490
H68   H     H_    0.028123 0.817379 0.804880 0.123544
H69   H     H_    0.993986 0.891547 0.616420 0.130930
H70   H     H_    0.979348 0.777586 0.822231 0.132605
H71   H     H_    0.938076 0.767814 0.721800 0.152832
H72   H     H_    0.945301 0.797621 0.604332 0.157638
H73   H     H_    0.847073 0.963740 0.687208 0.133488
H74   H     H_    0.817378 0.971590 0.804757 0.123561
H75   H     H_    0.777583 0.020347 0.822316 0.132588
H76   H     H_    0.767811 0.061714 0.722063 0.152807
H77   H     H_    0.797618 0.054602 0.604564 0.157622
H78   H     H_    0.963778 0.152927 0.687237 0.133496
H79   H     H_    0.971652 0.182623 0.804778 0.123552
H80   H     H_    0.891546 0.005910 0.616444 0.130937
H81   H     H_    0.020414 0.222417 0.822291 0.132584
H82   H     H_    0.061761 0.232189 0.721999 0.152806
H83   H     H_    0.054624 0.202380 0.604508 0.157624
H84   H     H_    0.347073 0.536226 0.812766 0.133498
H85   H     H_    0.317376 0.528355 0.695226 0.123562
H86   H     H_    0.277582 0.479594 0.677707 0.132595
H87   H     H_    0.267811 0.438244 0.777994 0.152807
H88   H     H_    0.297620 0.445379 0.895485 0.157625
H89   H     H_    0.463554 0.347072 0.812963 0.133503
H90   H     H_    0.471282 0.317375 0.695380 0.123582
H91   H     H_    0.005934 0.108453 0.616437 0.130937
H92   H     H_    0.520021 0.277579 0.677597 0.132564
H93   H     H_    0.561491 0.267808 0.777659 0.152779
H94   H     H_    0.554498 0.297617 0.895189 0.157614
H95   H     H_    0.652935 0.463162 0.813309 0.133529
H96   H     H_    0.682630 0.470642 0.695653 0.123630
H97   H     H_    0.722422 0.519345 0.677400 0.132526
H98   H     H_    0.732191 0.561028 0.777061 0.152751
H99   H     H_    0.702384 0.554284 0.894660 0.157613
H100  H     H_    0.536229 0.652927 0.812765 0.133526
H101  H     H_    0.528360 0.682623 0.695222 0.123571
H102  H     H_    0.391547 0.494068 0.883561 0.130929
H103  H     H_    0.479600 0.722417 0.677699 0.132593
H104  H     H_    0.438249 0.732189 0.777983 0.152809
H105  H     H_    0.445381 0.702381 0.895476 0.157624
H106  H     H_    0.652934 0.536838 0.186690 0.133518
H107  H     H_    0.682630 0.529358 0.304347 0.123626
H108  H     H_    0.722422 0.480655 0.322600 0.132525
H109  H     H_    0.732191 0.438972 0.222939 0.152750
H110  H     H_    0.702385 0.445716 0.105340 0.157614
H111  H     H_    0.536443 0.347070 0.187040 0.133537
H112  H     H_    0.528713 0.317373 0.304621 0.123594
O1    O     O_R   0.549910 0.028910 0.500030 -0.454381
O2    O     O_R   0.471090 0.049910 0.000030 -0.454429
O3    O     O_R   0.950090 0.471090 0.000030 -0.454549
O4    O     O_R   0.528910 0.950090 0.000030 -0.454376
O5    O     O_R   0.950090 0.528910 0.999970 -0.454550
O6    O     O_R   0.528910 0.049910 0.999970 -0.454428
O7    O     O_R   0.049910 0.471090 0.999970 -0.454379
O8    O     O_R   0.471090 0.950090 0.999970 -0.454376
O9    O     O_R   0.499990 0.028910 0.605810 -0.499781
O10   O     O_R   0.971090 0.499990 0.605810 -0.499783
O11   O     O_R   0.500010 0.971090 0.605810 -0.499803
O12   O     O_R   0.971090 0.549910 0.500030 -0.454340
O13   O     O_R   0.028910 0.500010 0.605810 -0.499801
O14   O     O_R   0.500010 0.028910 0.394190 -0.499788
O15   O     O_R   0.028910 0.499990 0.394190 -0.499832
O16   O     O_R   0.499990 0.971090 0.394190 -0.499797
O17   O     O_R   0.971090 0.500010 0.394190 -0.499751
O18   O     O_R   0.999990 0.528910 0.105810 -0.499873
O19   O     O_R   0.471090 0.999990 0.105810 -0.499762
O20   O     O_R   0.000010 0.471090 0.105810 -0.499682
O21   O     O_R   0.528910 0.000010 0.105810 -0.499817
O22   O     O_R   0.000010 0.528910 0.894190 -0.499690
O23   O     O_R   0.450090 0.971090 0.500030 -0.454375
O24   O     O_R   0.528910 0.999990 0.894190 -0.499760
O25   O     O_R   0.999990 0.471090 0.894190 -0.499865
O26   O     O_R   0.471090 0.000010 0.894190 -0.499819
O27   O     O_R   1.000000 0.950040 0.561110 -0.510410
O28   O     O_R   0.049960 0.000000 0.561110 -0.510407
O29   O     O_R   1.000000 0.049960 0.561110 -0.510412
O30   O     O_R   0.950040 0.000000 0.561110 -0.510420
O31   O     O_R   1.000000 0.950040 0.438890 -0.510408
O32   O     O_R   0.950040 0.000000 0.438890 -0.510407
O33   O     O_R   1.000000 0.049960 0.438890 -0.510413
O34   O     O_R   0.028910 0.450090 0.500030 -0.454372
O35   O     O_R   0.049960 0.000000 0.438890 -0.510419
O36   O     O_R   0.500000 0.450040 0.061110 -0.510386
O37   O     O_R   0.549960 0.500000 0.061110 -0.510429
O38   O     O_R   0.500000 0.549960 0.061110 -0.510439
O39   O     O_R   0.450040 0.500000 0.061110 -0.510403
O40   O     O_R   0.500000 0.450040 0.938890 -0.510443
O41   O     O_R   0.450040 0.500000 0.938890 -0.510423
O42   O     O_R   0.500000 0.549960 0.938890 -0.510382
O43   O     O_R   0.549960 0.500000 0.938890 -0.510409
O44   O     O_R   0.450090 0.028910 0.499970 -0.454375
O45   O     O_R   0.028910 0.549910 0.499970 -0.454344
O46   O     O_R   0.549910 0.971090 0.499970 -0.454382
O47   O     O_R   0.971090 0.450090 0.499970 -0.454367
O48   O     O_R   0.049910 0.528910 0.000030 -0.454380

loop_
_geom_bond_atom_site_label_1
_geom_bond_atom_site_label_2
_ccdc_geom_bond_type
C201  F19   S    
C247  O30   A    
C196  C228  S    
C129  H73   S    
C126  C127  A    
C221  C234  A    
C8    C26   A    
C248  O40   A    
C158  H97   S    
Cu5   O10   S    
C256  C265  S    
C15   C32   A    
C202  F20   S    
C59   F46   S    
Cu12  O29   S    
C61   C124  A    
C89   H41   S    
C56   C101  A    
C254  O13   A    
C75   H28   S    
C250  O42   A    
C160  H99   S    
C65   F5    S    
C143  C144  A    
C67   F7    S    
C108  C109  A    
C4    H58   S    
C229  O2    A    
Cu5   O17   S    
C260  C269  S    
C257  O20   A    
C7    H91   S    
C182  C183  A    
C198  F16   S    
C19   C37   A    
C64   C157  A    
C133  H77   S    
C57   C83   A    
C105  H54   S    
C80   H32   S    
C63   C146  A    
C255  O16   A    
C63   F3    S    
C204  C222  A    
C64   F4    S    
Cu12  O27   S    
C187  C193  A    
C221  F39   S    
C190  C237  A    
Cu10  O7    S    
C104  C105  A    
C197  C236  A    
C9    H2    S    
C169  H106  S    
C40   C135  S    
C67   C85   A    
C256  O17   A    
C257  C266  S    
C175  H111  S    
C191  C192  A    
C252  O39   A    
C35   C239  S    
C201  C219  A    
Cu8   O22   S    
C13   C237  S    
C205  C223  A    
C6    H80   S    
C39   C124  S    
C15   H20   S    
Cu7   O15   S    
C213  F31   S    
C17   C34   A    
C183  C184  A    
C214  F32   S    
C57   C242  S    
C8    H102  S    
C220  C233  A    
C175  C176  A    
Cu10  O3    S    
C154  C155  A    
C46   C84   A    
C235  C262  S    
C158  C159  A    
C219  F37   S    
C16   H21   S    
C42   C157  S    
C148  C153  A    
Cu5   O12   S    
C2    C71   A    
C53   C71   A    
C199  C238  A    
C210  F28   S    
C223  C232  A    
C272  H36   S    
C149  H89   S    
C197  F15   S    
C253  C261  S    
C251  O8    A    
C76   C262  A    
C17   C87   S    
C168  C209  A    
C139  H82   S    
C144  C145  A    
C159  H98   S    
Cu4   O40   S    
C123  H68   S    
C139  C140  A    
C13   C72   A    
C22   C36   A    
C35   C78   A    
C100  C106  A    
Cu1   Cu6   S    
C260  O24   A    
C215  C226  A    
C156  C158  A    
C130  C131  A    
C200  C239  A    
C213  C228  A    
C12   H18   S    
C110  H59   S    
C166  H105  S    
C119  H65   S    
C143  H85   S    
C106  H55   S    
C26   C39   A    
C173  H110  S    
C49   C248  S    
C141  C147  A    
C194  C212  A    
C24   C77   A    
C120  H66   S    
C88   C89   A    
C102  H51   S    
C155  C156  A    
C179  F10   S    
C258  O19   A    
C46   C241  S    
Cu9   O19   S    
C2    C75   A    
C23   C128  S    
C1    C226  S    
C216  F35   S    
C136  H78   S    
C54   C101  A    
C252  O41   A    
C208  C243  A    
C14   C31   A    
C128  C129  A    
C97   C98   A    
C253  O9    A    
C167  C169  A    
C246  O33   A    
C224  F42   S    
C103  H52   S    
C168  F9    S    
Cu7   O13   S    
C244  O27   A    
Cu8   O48   S    
C225  C234  A    
C62   C80   A    
Cu9   O26   S    
C81   H33   S    
C30   C167  S    
C229  C232  S    
C220  F38   S    
C198  C235  A    
C180  H5    S    
C25   C38   A    
C83   H35   S    
C170  C171  A    
C115  C116  A    
C202  C242  A    
C20   C38   A    
C184  C185  A    
C202  C220  A    
C189  C191  A    
C174  C175  A    
C259  C268  S    
C192  H15   S    
Cu6   O46   S    
C41   C146  S    
C206  C224  A    
C245  O28   A    
C69   C157  A    
C107  C108  A    
C30   C41   A    
C208  F26   S    
C89   C91   A    
C52   C79   A    
C261  C269  T    
C96   H46   S    
C218  O48   A    
C96   C97   A    
C152  H93   S    
C138  H81   S    
Cu1   O14   S    
C15   C48   A    
C205  C241  A    
Cu2   O31   S    
C4    C45   A    
C245  O35   A    
C260  O26   A    
C219  C232  A    
C155  H95   S    
Cu6   O11   S    
C9    C49   A    
C54   F23   S    
C207  O34   A    
C224  C231  A    
C91   C92   A    
C165  H104  S    
Cu1   O1    S    
C70   H22   S    
C58   F45   S    
Cu7   O45   S    
C62   C135  A    
C62   F2    S    
C76   H29   S    
C34   C79   S    
C171  H108  S    
C194  F13   S    
C131  H75   S    
Cu7   O34   S    
C32   C181  S    
C27   C40   A    
C151  C152  A    
C23   C34   A    
C249  O37   A    
C194  C238  A    
C240  O3    A    
C214  C227  A    
Cu9   O8    S    
C168  C235  A    
C82   H34   S    
C2    C236  S    
C85   H38   S    
C92   H43   S    
C98   C99   A    
C211  C228  A    
C140  H83   S    
C186  H10   S    
C162  H100  S    
C151  H92   S    
C174  C180  A    
C53   C90   A    
C44   C244  S    
C129  C130  A    
C36   C90   S    
C70   C262  A    
Cu12  O30   S    
Cu4   O41   S    
C60   F47   S    
C196  O23   A    
C195  C237  A    
Cu10  O20   S    
C136  C137  A    
C234  C251  S    
C12   C50   A    
C181  C186  A    
C93   H44   S    
Cu9   Cu11  S    
C147  H88   S    
C68   C82   A    
C11   H17   S    
C117  C118  A    
C46   C80   A    
C35   C85   A    
C117  H63   S    
C18   C36   A    
Cu8   O5    S    
C246  O29   A    
C264  C267  T    
C118  H64   S    
C87   C93   A    
C3    C47   A    
C217  F36   S    
C3    H47   S    
C116  H62   S    
C102  C103  A    
C203  F21   S    
C197  C214  A    
C109  H57   S    
C55   C73   A    
C182  H6    S    
C152  C153  A    
Cu4   O43   S    
C150  C151  A    
C65   C146  A    
C59   C76   A    
C31   C174  S    
C178  H4    S    
C88   H40   S    
C45   C272  A    
C87   C88   A    
C225  F43   S    
Cu3   Cu4   S    
C21   C115  S    
C161  C162  A    
C181  C182  A    
C179  C210  A    
C253  O11   A    
C164  H103  S    
C164  C165  A    
Cu3   O38   S    
C121  C127  A    
Cu9   O2    S    
C132  H76   S    
C24   C73   A    
C123  C125  A    
C68   C243  S    
C28   C41   A    
Cu11  O21   S    
C31   C40   A    
C72   H24   S    
C32   C39   A    
C51   C250  S    
C144  H86   S    
C95   C96   A    
C142  H84   S    
C27   C148  S    
C256  O15   A    
C126  H71   S    
C16   C51   A    
C170  H107  S    
Cu1   O9    S    
C206  C239  A    
C200  F18   S    
C26   C141  S    
C53   F12   S    
C167  C173  A    
C206  F25   S    
C259  O22   A    
C112  C227  S    
C244  O31   A    
C200  C217  A    
C29   C42   A    
C198  C215  A    
C145  C147  A    
C263  C268  T    
C108  H56   S    
C56   C74   A    
C229  O6    A    
C59   C79   A    
C38   C113  S    
C179  C236  A    
C110  C111  A    
C74   H27   S    
C7    C47   A    
C190  C211  A    
C8    C48   A    
C107  C114  A    
C204  C242  A    
C159  C160  A    
C207  O47   A    
C3    C20   A    
C271  H25   S    
C25   C134  S    
C58   C90   A    
C121  C122  A    
C44   C271  A    
C222  F40   S    
C77   H30   S    
C5    C44   A    
C184  H8    S    
C97   H48   S    
C6    C43   A    
C125  C126  A    
C111  H60   S    
C33   C42   A    
C45   C245  S    
C131  C132  A    
C10   C50   A    
C55   F34   S    
C9    C27   A    
C22   C121  S    
C162  C163  A    
C114  H61   S    
C10   C28   A    
C73   H26   S    
C12   C30   A    
Cu3   O36   S    
C177  H3    S    
C10   H13   S    
C185  H9    S    
C17   C270  A    
C56   F44   S    
C130  H74   S    
C178  C180  A    
C19   C100  S    
C207  C230  S    
C19   C272  A    
C249  O43   A    
C189  H12   S    
C259  O25   A    
C105  C106  A    
C7    C25   A    
C69   F8    S    
Cu6   O16   S    
C125  H70   S    
C187  C188  A    
C149  C150  A    
C66   F6    S    
C185  C186  A    
C92   C93   A    
C176  H112  S    
C111  C114  A    
C61   F48   S    
C94   C95   A    
C195  C213  A    
C205  F24   S    
C138  C139  A    
C66   C135  A    
C250  O38   A    
C21   C37   A    
C13   C74   A    
C177  C178  A    
C103  C104  A    
C142  C143  A    
C141  C142  A    
C71   H23   S    
C156  H96   S    
C47   C246  S    
C218  O7    A    
C86   H39   S    
C37   C101  S    
C171  C172  A    
C222  C233  A    
C48   C252  S    
C165  C166  A    
C68   C86   A    
C169  C170  A    
C212  F30   S    
C163  C164  A    
C172  H109  S    
C223  F41   S    
Cu2   O32   S    
C67   C124  A    
C254  O10   A    
C91   H42   S    
C248  O36   A    
C84   H37   S    
C63   C81   A    
Cu10  O25   S    
Cu12  O28   S    
C94   C99   A    
C191  H14   S    
C255  C264  S    
C233  C240  S    
Cu8   Cu10  S    
C204  F22   S    
C104  H53   S    
C134  C140  A    
C65   C83   A    
C14   C49   A    
C203  C243  A    
C14   H19   S    
C201  C241  A    
C116  C117  A    
C203  C221  A    
C270  H1    S    
Cu2   O33   S    
Cu3   O39   S    
C118  C119  A    
C43   C270  A    
C5    C22   A    
C132  C133  A    
C193  H16   S    
C216  C230  A    
C265  C266  T    
C161  C166  A    
C215  F33   S    
C20   C107  S    
C190  F11   S    
C28   C154  S    
C60   C113  A    
C258  C267  S    
C11   C51   A    
C18   C271  A    
Cu1   O44   S    
C58   C75   A    
C195  F14   S    
C247  O32   A    
C60   C77   A    
Cu4   O42   S    
C199  C216  A    
C29   C161  S    
Cu2   Cu12  S    
C148  C149  A    
C43   C247  S    
C52   F1    S    
C211  F29   S    
C134  C136  A    
C55   C113  A    
C183  H7    S    
C112  O12   A    
C199  F17   S    
C188  C189  A    
C1    O1    A    
C154  C160  A    
Cu2   O35   S    
C208  C225  A    
C212  C230  A    
C210  C227  A    
C61   C78   A    
Cu6   O23   S    
C100  C102  A    
C33   C187  S    
Cu11  O6    S    
C119  C120  A    
C257  O18   A    
C64   C82   A    
C50   C249  S    
C176  C177  A    
C254  C263  S    
Cu5   Cu7   S    
C18   C94   S    
C255  O14   A    
C57   C81   A    
Cu11  O4    S    
C209  F27   S    
C150  H90   S    
C24   C238  S    
C172  C173  A    
C137  H79   S    
C258  O21   A    
C251  O4    A    
C188  H11   S    
C98   H49   S    
C196  O44   A    
C153  H94   S    
C163  H101  S    
C5    H69   S    
C137  C138  A    
C127  H72   S    
C192  C193  A    
C95   H45   S    
Cu3   O37   S    
C16   C33   A    
C128  C133  A    
C217  C231  A    
C4    C21   A    
Cu5   O47   S    
C122  H67   S    
C6    C23   A    
Cu8   O18   S    
Cu11  O24   S    
C99   H50   S    
C240  O5    A    
C218  C231  S    
C52   C70   A    
C66   C84   A    
C1    O46   A    
C54   C72   A    
C11   C29   A    
C115  C120  A    
C209  C226  A    
C109  C110  A    
C145  H87   S    
C122  C123  A    
C69   C86   A    
C112  O45   A    
C78   H31   S    
