data_mof_unit_pretest_1494.cif
_audit_creation_date              2012-12-10T16:50:58-0500
_audit_creation_method            fapswitch 2.2
_symmetry_space_group_name_H-M    P1
_symmetry_Int_Tables_number       1
_space_group_crystal_system       triclinic
_cell_length_a                    7.888059
_cell_length_b                    8.569146
_cell_length_c                    10.401398
_cell_angle_alpha                 90.830454
_cell_angle_beta                  87.635816
_cell_angle_gamma                 93.017375
_cell_volume                      701.44552024

loop_
_atom_site_label
_atom_site_type_symbol
_atom_type_description
_atom_site_fract_x
_atom_site_fract_y
_atom_site_fract_z
_atom_type_partial_charge
C1    C     C_R   0.544869 0.793943 0.497430 0.973561
C2    C     C_R   0.897411 0.241727 0.063809 -0.198135
C3    C     C_R   0.010226 0.375161 0.063116 -0.190399
C4    C     C_R   0.900565 0.239526 0.927200 -0.173068
C5    C     C_R   0.159484 0.374874 0.131833 -0.208358
C6    C     C_R   0.753968 0.272427 0.863110 -0.222639
C7    C     C_R   0.318993 0.394607 0.067763 0.008498
C8    C     C_R   0.623279 0.346542 0.929981 0.012348
C9    C     C_R   0.326928 0.385553 0.932733 0.040536
C10   C     C_R   0.615057 0.341823 0.065477 0.040828
C11   C     C_R   0.473111 0.402153 0.131992 -0.189423
C12   C     C_R   0.455171 0.206006 0.503545 1.001650
C13   C     C_R   0.485846 0.401908 0.867351 -0.183171
C14   C     C_2   0.568422 0.957492 0.497451 -0.369594
C15   C     C_2   0.431693 0.042556 0.505751 -0.322414
C16   C     C_R   0.497932 0.469641 0.737517 0.915456
C17   C     C_R   0.490871 0.469351 0.262381 0.926908
C18   C     C_R   0.179007 0.343195 0.867498 0.447116
C19   C     C_R   0.738861 0.261267 0.128152 0.452260
C20   C     C_R   0.021196 0.365137 0.928956 -0.177443
H1    H     H_    0.948296 0.132156 0.885624 0.177881
H2    H     H_    0.990274 0.625087 0.589197 0.190733
H3    H     H_    0.080364 0.262090 0.709805 0.330254
H4    H     H_    0.801000 0.148642 0.279106 0.315954
H5    H     H_    0.949896 0.480007 0.098737 0.174678
H6    H     H_    0.980713 0.471921 0.885920 0.144730
H7    H     H_    0.955571 0.140246 0.101738 0.147313
H8    H     H_    0.148545 0.350625 0.232917 0.167361
H9    H     H_    0.746836 0.244035 0.761545 0.169930
H10   H     H_    0.698095 0.007369 0.490377 0.174169
H11   H     H_    0.302020 0.992718 0.513412 0.175398
H12   H     H_    0.007922 0.369836 0.416307 0.173717
N1    N     N_2   0.950330 0.457950 0.466250 -0.183848
N2    N     N_2   0.049670 0.542050 0.533750 -0.183448
O1    O     O_R   0.389250 0.738570 0.508280 -0.605929
O2    O     O_3   0.698066 0.192364 0.245253 -0.769942
O3    O     O_R   0.610750 0.261430 0.491720 -0.606641
O4    O     O_R   0.678390 0.711630 0.486650 -0.624211
O5    O     O_R   0.321610 0.288370 0.513350 -0.619625
O6    O     O_R   0.355430 0.513480 0.694040 -0.587205
O7    O     O_R   0.644570 0.486520 0.305960 -0.585270
O8    O     O_R   0.644570 0.486540 0.672410 -0.642352
O9    O     O_R   0.355430 0.513460 0.327590 -0.633232
O10   O     O_3   0.191138 0.262541 0.751678 -0.765167
Zn1   Zn    Zn3+2 0.306940 0.517990 0.514440 0.943343
Zn2   Zn    Zn3+2 0.693060 0.482010 0.485560 0.936893

loop_
_geom_bond_atom_site_label_1
_geom_bond_atom_site_label_2
_ccdc_geom_bond_type
C2    C4    A    
O7    Zn2   S    
C17   O9    A    
C15   H11   S    
C8    C13   A    
C4    H1    S    
C18   O10   S    
C5    H8    S    
C5    C7    A    
C12   C15   S    
C10   C19   A    
O5    Zn1   S    
C2    H7    S    
H12   N1    S    
C12   O5    A    
C2    C3    A    
C2    C19   A    
C3    C20   A    
N2    Zn1   S    
C7    C11   A    
N1    Zn2   S    
O9    Zn1   S    
H4    O2    S    
C20   H6    S    
C1    O4    A    
C16   O6    A    
C4    C6    A    
C14   H10   S    
N1    N2    D    
C18   C20   A    
C19   O2    S    
O6    Zn1   S    
H2    N2    S    
C17   O7    A    
O4    Zn2   S    
C10   C11   A    
C4    C20   A    
C16   O8    A    
C9    C18   A    
C3    H5    S    
C6    H9    S    
C1    O1    A    
C8    C10   A    
O8    Zn2   S    
C13   C16   S    
C12   O3    A    
C7    C9    A    
C9    C13   A    
C14   C15   D    
C11   C17   S    
C6    C8    A    
C1    C14   S    
O3    Zn2   S    
H3    O10   S    
C3    C5    A    
O1    Zn1   S    
