data_mof_unit_pretest_7.cif
_audit_creation_date              2012-12-10T18:47:43-0500
_audit_creation_method            fapswitch 2.2
_symmetry_space_group_name_H-M    P1
_symmetry_Int_Tables_number       1
_space_group_crystal_system       triclinic
_cell_length_a                    9.846563
_cell_length_b                    10.707702
_cell_length_c                    15.439886
_cell_angle_alpha                 90.14661
_cell_angle_beta                  66.529714
_cell_angle_gamma                 89.981147
_cell_volume                      1493.20277141

loop_
_atom_site_label
_atom_site_type_symbol
_atom_type_description
_atom_site_fract_x
_atom_site_fract_y
_atom_site_fract_z
_atom_type_partial_charge
C1    C     C_R   0.500019 0.740101 0.500016 0.883238
C2    C     C_R   0.499981 0.259899 0.499984 0.883238
C3    C     C_R   0.339572 0.448065 0.106033 -0.234262
C4    C     C_R   0.660428 0.551936 0.893967 -0.234262
C5    C     C_R   0.235200 0.416283 0.070030 0.474364
C6    C     C_R   0.764800 0.583719 0.929970 0.474365
C7    C     C_R   0.634228 0.935884 0.474899 -0.147114
C8    C     C_R   0.365772 0.064116 0.525101 -0.147114
C9    C     C_R   0.634212 0.063859 0.474925 -0.159092
C10   C     C_R   0.365788 0.936141 0.525075 -0.159092
C11   C     C_R   0.499986 0.127470 0.500014 -0.029052
C12   C     C_R   0.500014 0.872530 0.499986 -0.029052
C13   C     C_R   0.966916 0.427251 0.437722 -0.017107
C14   C     C_R   0.033084 0.572749 0.562278 -0.017107
C15   C     C_R   0.110697 0.427181 0.437795 -0.049272
C16   C     C_R   0.889303 0.572819 0.562205 -0.049272
C17   C     C_R   0.406283 0.496530 0.676743 0.938846
C18   C     C_R   0.593717 0.503470 0.323257 0.938846
C19   C     C_R   0.344041 0.482576 0.779585 -0.192659
C20   C     C_R   0.655959 0.517424 0.220415 -0.192658
C21   C     C_R   0.174657 0.390623 0.927216 0.398306
C22   C     C_R   0.825342 0.609380 0.072785 0.398305
C23   C     C_R   0.216942 0.411502 0.829796 0.365382
C24   C     C_R   0.783058 0.588500 0.170204 0.365381
C25   C     C_R   0.428926 0.528559 0.825281 -0.242331
C26   C     C_R   0.571074 0.471442 0.174719 -0.242330
C27   C     C_R   0.405279 0.491099 0.916535 0.032228
C28   C     C_R   0.594720 0.508903 0.083465 0.032228
C29   C     C_R   0.268869 0.431307 0.972411 -0.090596
C30   C     C_R   0.731130 0.568695 0.027589 -0.090595
C31   C     C_R   0.516000 0.512305 0.952312 0.049592
C32   C     C_R   0.484000 0.487697 0.047687 0.049592
H1    H     H_    0.738741 0.886875 0.454601 0.181423
H2    H     H_    0.261259 0.113125 0.545399 0.181422
H3    H     H_    0.196097 0.368825 0.388043 0.135336
H4    H     H_    0.803903 0.631175 0.611957 0.135336
N1    N     N_R   0.142780 0.500030 0.500020 -0.084274
N2    N     N_R   0.857220 0.499970 0.499980 -0.084273
O1    O     O_R   0.385370 0.683250 0.500010 -0.626809
O2    O     O_R   0.614630 0.316750 0.499990 -0.626809
O3    O     O_R   0.614700 0.683220 0.500000 -0.615377
O4    O     O_R   0.385300 0.316780 0.500000 -0.615377
O5    O     O_R   0.319830 0.500020 0.632250 -0.549967
O6    O     O_R   0.680170 0.499980 0.367750 -0.549968
O7    O     O_R   0.549160 0.499990 0.632240 -0.631615
O8    O     O_R   0.450840 0.500010 0.367760 -0.631616
Zn1   Zn    Zn3+2 0.346870 0.500020 0.500000 1.002456
Zn2   Zn    Zn3+2 0.653130 0.499980 0.500000 1.002456
Cl1   Cl    Cl    0.063340 0.367053 0.155956 -0.534846
Cl2   Cl    Cl    0.936660 0.632948 0.844044 -0.534846
H5    H     H_    0.482536 0.408316 0.213785 0.168466
H6    H     H_    0.517464 0.591685 0.786215 0.168466
Cl3   Cl    Cl    0.885418 0.658467 0.229445 -0.497882
Cl4   Cl    Cl    0.114581 0.341535 0.770555 -0.497882
Cl5   Cl    Cl    0.011590 0.302007 0.984528 -0.434494
Cl6   Cl    Cl    0.988406 0.697999 0.015473 -0.434493
H7    H     H_    0.302494 0.443005 0.181728 0.171281
H8    H     H_    0.697507 0.556997 0.818272 0.171282
H9    H     H_    0.738719 0.112663 0.454646 0.168365
H10   H     H_    0.261281 0.887337 0.545354 0.168365
H11   H     H_    0.943477 0.369100 0.387956 0.167464
H12   H     H_    0.056523 0.630900 0.612044 0.167463

loop_
_geom_bond_atom_site_label_1
_geom_bond_atom_site_label_2
_ccdc_geom_bond_type
C1    O3    A    
C10   H10   S    
C17   O5    A    
C14   C16   A    
C18   O6    A    
N1    Zn1   S    
C23   Cl4   S    
C9    C11   A    
C26   C28   A    
C31   C32   A    
C3    C5    A    
C7    C9    A    
C28   C30   A    
C25   H6    S    
C8    H2    S    
C26   H5    S    
C16   H4    S    
C14   N1    A    
C7    H1    S    
C5    Cl1   S    
C13   N2    A    
C7    C12   A    
C1    C12   S    
C20   C26   A    
C2    O4    A    
C8    C11   A    
C19   C25   A    
C2    C11   S    
C18   O8    A    
O1    Zn1   S    
C17   C19   S    
O3    Zn2   S    
N2    Zn2   S    
C3    H7    S    
C5    C29   A    
O4    Zn1   S    
C13   C15   A    
C21   C23   A    
C3    C32   A    
C10   C12   A    
C17   O7    A    
C22   C24   A    
C15   H3    S    
C4    C31   A    
C27   C29   A    
C1    O1    A    
C27   C31   A    
C14   H12   S    
C2    O2    A    
C28   C32   A    
C13   H11   S    
C18   C20   S    
C8    C10   A    
C4    C6    A    
O7    Zn2   S    
C4    H8    S    
C21   Cl5   S    
O2    Zn2   S    
C19   C23   A    
C15   N1    A    
C22   Cl6   S    
C22   C30   A    
C6    C30   A    
C24   Cl3   S    
O8    Zn1   S    
C21   C29   A    
C20   C24   A    
C6    Cl2   S    
O6    Zn2   S    
C16   N2    A    
O5    Zn1   S    
C9    H9    S    
C25   C27   A    
