data_mof_unit_pretest_1802.cif
_audit_creation_date              2012-12-11T15:41:11-0500
_audit_creation_method            fapswitch 2.2
_symmetry_space_group_name_H-M    P1
_symmetry_Int_Tables_number       1
_space_group_crystal_system       triclinic
_cell_length_a                    8.244752
_cell_length_b                    18.824462
_cell_length_c                    19.032915
_cell_angle_alpha                 95.824192
_cell_angle_beta                  94.315534
_cell_angle_gamma                 92.857318
_cell_volume                      2925.46131215

loop_
_atom_site_label
_atom_site_type_symbol
_atom_type_description
_atom_site_fract_x
_atom_site_fract_y
_atom_site_fract_z
_atom_type_partial_charge
Ba1   Ba    Ba6+2 0.154050 0.534420 0.467300 1.738186
Ba2   Ba    Ba6+2 0.656120 0.465570 0.532650 1.746586
C1    C     C_3   0.387745 0.729937 0.218149 0.446752
C2    C     C_3   0.367988 0.701355 0.289098 0.301434
C3    C     C_3   0.536338 0.682189 0.654901 0.273693
C4    C     C_3   0.550274 0.760738 0.684451 0.411817
C5    C     C_3   0.951128 0.268185 0.722939 0.633540
C6    C     C_3   0.884238 0.190020 0.714069 0.250112
C7    C     C_3   0.428698 0.305183 0.719413 0.342987
C8    C     C_3   0.454920 0.280335 0.792708 -0.268989
C9    C     C_2   0.689802 0.705479 0.491852 -0.296471
C10   C     C_3   0.554140 0.756305 0.494621 0.059896
C11   C     C_2   0.617933 0.832487 0.487399 -0.054069
C12   C     C_3   0.852800 0.727095 0.316729 0.337853
C13   C     C_2   0.779455 0.852304 0.500549 -0.031309
C14   C     C_2   0.893886 0.795272 0.517857 -0.051238
C15   C     C_1   0.837885 0.727717 0.518530 0.088105
C16   C     C_R   0.952716 0.069472 0.502725 0.548066
C17   C     C_R   0.841364 0.929067 0.499957 0.451367
C18   C     C_R   0.915526 0.199016 0.477285 0.471983
C19   C     C_R   0.967279 0.272447 0.486046 0.021006
C20   C     C_R   0.218817 0.244283 0.548200 -0.064706
C21   C     C_R   0.167617 0.171227 0.541388 0.484803
C22   C     C_R   0.012705 0.147254 0.506959 -0.245079
C23   C     C_3   0.856904 0.804663 0.300032 0.218513
C24   C     C_R   0.115263 0.294194 0.523772 -0.478595
C25   C     C_R   0.606675 0.533485 0.298729 0.104025
C26   C     C_R   0.462667 0.493250 0.275617 0.020773
C27   C     C_R   0.413531 0.482255 0.203094 -0.193105
C28   C     C_R   0.511983 0.508341 0.152744 -0.035091
C29   C     C_R   0.667893 0.542370 0.176599 0.271611
C30   C     C_R   0.712907 0.554930 0.249799 0.064100
C31   C     C_R   0.456809 0.557083 0.035486 -0.012915
C32   C     C_R   0.403090 0.548248 0.963537 -0.149568
C33   C     C_R   0.338524 0.481520 0.930463 0.046674
C34   C     C_3   0.761317 0.372011 0.314299 0.884391
C35   C     C_R   0.325490 0.423365 0.971678 0.391868
C36   C     C_R   0.382144 0.432742 0.044212 -0.138263
C37   C     C_R   0.450078 0.499177 0.076353 0.035175
C38   C     C_R   0.136720 0.439982 0.825726 -0.017818
C39   C     C_R   0.090942 0.434134 0.752715 0.013473
C40   C     C_R   0.342588 0.497949 0.732747 0.031747
C41   C     C_R   0.390380 0.503219 0.805418 -0.160921
C42   C     C_R   0.288987 0.473387 0.852764 0.010337
C43   C     C_R   0.196798 0.460876 0.706600 -0.307901
C44   C     C_3   0.703280 0.341096 0.239120 -0.286988
C45   C     C_3   0.018669 0.613817 0.681902 0.318885
C46   C     C_3   0.034063 0.629687 0.762480 0.196840
C47   C     C_3   0.287289 0.320339 0.377352 0.277475
C48   C     C_3   0.273684 0.239842 0.357223 -0.333438
H1    H     H_    0.237690 0.686014 0.292432 0.103288
H2    H     H_    0.608823 0.297159 0.240356 0.074819
H3    H     H_    0.650848 0.383003 0.209067 0.028671
H4    H     H_    0.807163 0.319787 0.211312 0.115974
H5    H     H_    0.136193 0.597106 0.663861 -0.065008
H6    H     H_    0.924602 0.569671 0.666783 0.070205
H7    H     H_    0.125237 0.675101 0.779082 0.059583
H8    H     H_    0.078009 0.582521 0.786734 0.021157
H9    H     H_    0.167225 0.338433 0.391035 0.026653
H10   H     H_    0.377823 0.332472 0.423735 0.055102
H11   H     H_    0.319859 0.779072 0.214573 0.044085
H12   H     H_    0.180521 0.226113 0.311989 0.128921
H13   H     H_    0.237734 0.211748 0.402466 0.054627
H14   H     H_    0.393043 0.221149 0.341909 0.154455
H15   H     H_    0.440707 0.653573 0.291273 0.004189
H16   H     H_    0.661123 0.663579 0.650772 0.055786
H17   H     H_    0.468715 0.676538 0.601724 -0.013475
H18   H     H_    0.597396 0.765999 0.741081 0.059248
H19   H     H_    0.428629 0.783503 0.680201 0.037091
H20   H     H_    0.518626 0.742822 0.212291 0.004019
H21   H     H_    0.810020 0.807665 0.244046 0.055402
H22   H     H_    0.015136 0.277281 0.674861 -0.075064
H23   H     H_    0.985107 0.153852 0.704838 0.033987
H24   H     H_    0.830223 0.177233 0.763352 0.080642
H25   H     H_    0.297985 0.315179 0.709158 -0.021116
H26   H     H_    0.503174 0.355849 0.718803 0.069246
H27   H     H_    0.425017 0.323342 0.833015 0.130329
H28   H     H_    0.583924 0.267904 0.803760 0.124546
H29   H     H_    0.909536 0.725993 0.371382 0.050778
H30   H     H_    0.375509 0.231668 0.796373 0.157061
H31   H     H_    0.530126 0.871813 0.476344 0.113316
H32   H     H_    0.022030 0.809800 0.531910 0.110447
H33   H     H_    0.659541 0.649114 0.476366 0.118710
H34   H     H_    0.155760 0.350195 0.529509 0.103955
H35   H     H_    0.504040 0.532295 0.825134 0.111756
H36   H     H_    0.411279 0.594050 0.933569 0.099895
H37   H     H_    0.505104 0.609294 0.059264 0.158832
H38   H     H_    0.723301 0.706925 0.314176 -0.120694
H39   H     H_    0.298727 0.452860 0.185971 0.120326
H40   H     H_    0.376061 0.387733 0.075345 0.060343
H41   H     H_    0.051931 0.420844 0.861279 0.109260
H42   H     H_    0.159507 0.458259 0.650614 0.060922
H43   H     H_    0.775869 0.834834 0.334757 0.054747
H44   H     H_    0.655027 0.389488 0.341957 -0.110448
N1    N     N_R   0.792937 0.048897 0.485077 -0.135391
N2    N     N_R   0.738710 0.980580 0.483725 -0.209483
N3    N     N_R   0.001235 0.949430 0.517254 -0.212883
N4    N     N_R   0.055303 0.017795 0.518676 -0.145935
O1    O     O_2   0.126770 0.670950 0.539180 -0.482201
O2    O     O_3   0.335792 0.353172 0.319108 -0.647137
O3    O     O_3   0.938583 0.685902 0.267697 -0.603425
O4    O     O_2   0.683530 0.329010 0.460790 -0.457402
O5    O     O_3   0.935970 0.416420 0.461920 -0.476801
O6    O     O_3   0.450050 0.370950 0.587830 -0.521727
O7    O     O_3   0.839367 0.319202 0.348044 -0.631448
O8    O     O_3   0.375780 0.535040 0.584090 -0.474660
O9    O     O_3   0.866950 0.405950 0.623880 -0.486181
O10   O     O_2   0.757466 0.448187 0.748206 -0.483501
O11   O     O_3   0.821485 0.313703 0.730647 -0.596719
O12   O     O_3   0.874330 0.583580 0.538020 -0.496618
O13   O     O_3   0.434510 0.464950 0.415850 -0.472476
O14   O     O_2   0.630930 0.532620 0.670490 -0.445191
O15   O     O_3   0.451988 0.643759 0.701357 -0.683416
O16   O     O_2   0.555102 0.245079 0.538506 -0.373387
O17   O     O_3   0.476999 0.252454 0.668983 -0.503026
O18   O     O_3   0.360240 0.629040 0.412110 -0.461232
O19   O     O_2   0.220150 0.751414 0.442229 -0.474792
O20   O     O_3   0.977458 0.676128 0.652217 -0.630648
O21   O     O_3   0.423427 0.754209 0.344245 -0.662995
O22   O     O_2   0.179370 0.467330 0.329490 -0.386589
O23   O     O_3   0.943350 0.594040 0.376060 -0.452800
O24   O     O_2   0.056723 0.558776 0.250598 -0.410644
P1    P     P_3+3 0.954930 0.659850 0.559700 1.009377
P2    P     P_3+3 0.352180 0.446150 0.339620 1.045481
P3    P     P_3+3 0.914454 0.596476 0.284478 1.143243
P4    P     P_3+3 0.855360 0.340140 0.440240 1.083787
P5    P     P_3+3 0.885644 0.400584 0.715446 0.974020
P6    P     P_3+3 0.387275 0.722594 0.425590 0.976372
P7    P     P_3+3 0.448880 0.552200 0.673469 0.968383
P8    P     P_3+3 0.425206 0.277591 0.584628 1.102823
O25   O     O_3   0.882237 0.644642 0.787305 -0.704662
H45   H     H_    0.863969 0.695151 0.779861 0.321362
F1    F     F_    0.327644 0.678853 0.163824 -0.703475
F2    F     F_    0.656462 0.798946 0.647642 -0.733126
O26   O     O_3   0.063125 0.279223 0.782898 -0.789129
H46   H     H_    0.000086 0.278014 0.825262 0.305716
O27   O     O_3   0.763053 0.177686 0.657924 -0.633039
H47   H     H_    0.818107 0.181379 0.613869 0.291424
F3    F     F_    0.772863 0.178270 0.438655 -0.657828
F4    F     F_    0.269051 0.124324 0.568307 -0.637351
O28   O     O_3   0.261496 0.357684 0.940001 -0.745263
H48   H     H_    0.261606 0.323032 0.975912 0.304364
O29   O     O_3   0.779815 0.562186 0.130693 -0.697958
H49   H     H_    0.754703 0.533924 0.084080 0.304509
O30   O     O_3   0.643153 0.552558 0.369745 -0.726679
H50   H     H_    0.704236 0.513048 0.387335 0.334596
O31   O     O_3   0.015321 0.836232 0.313193 -0.687253
H51   H     H_    0.075361 0.820174 0.271750 0.324074
F5    F     F_    0.870029 0.429367 0.311284 -0.739238

loop_
_geom_bond_atom_site_label_1
_geom_bond_atom_site_label_2
_ccdc_geom_bond_type
O8    P7    S    
C19   C24   A    
C23   H43   S    
C48   H13   S    
C11   H31   S    
C4    H19   S    
C48   H14   S    
C39   P5    S    
N1    N2    A    
C3    H17   S    
Ba1   O1    S    
C27   H39   S    
O30   H50   S    
C8    H28   S    
O26   H46   S    
C13   C17   S    
Ba2   O14   S    
C31   C37   A    
C47   H10   S    
O15   P7    S    
O7    P4    S    
C16   C22   S    
C18   F3    S    
O1    P1    D    
C26   C27   A    
C33   C35   A    
C35   C36   A    
Ba1   Ba2   S    
C28   C29   A    
O12   P1    S    
C34   F5    S    
Ba2   O4    S    
C13   C14   S    
C44   H2    S    
Ba2   O9    S    
C32   C33   A    
C32   H36   S    
C43   H42   S    
O5    P4    S    
C2    H15   S    
O31   H51   S    
O23   P3    S    
O22   P2    D    
C15   P1    S    
C45   O20   S    
Ba2   O12   S    
C18   C22   A    
C14   C15   D    
O3    P3    S    
C21   C22   A    
C46   O25   S    
C34   C44   S    
C23   H21   S    
C7    H26   S    
O14   P7    D    
C7    C8    S    
Ba1   O5    S    
Ba1   O8    S    
O21   P6    S    
C4    H18   S    
C34   O7    S    
O10   P5    D    
O6    P8    S    
C20   P8    S    
C16   N1    A    
O16   P8    D    
C6    H24   S    
C8    H27   S    
O11   P5    S    
N3    N4    A    
C1    H11   S    
C17   N3    A    
C36   C37   A    
Ba2   O13   S    
C2    H1    S    
C41   H35   S    
C21   F4    S    
C46   H7    S    
C1    H20   S    
C23   O31   S    
C5    H22   S    
C8    H30   S    
C12   O3    S    
C9    H33   S    
Ba2   O8    S    
C5    O11   S    
C6    O27   S    
O2    P2    S    
Ba1   O22   S    
C7    O17   S    
C30   P3    S    
C41   C42   A    
Ba1   P1    S    
C5    O26   S    
C27   C28   A    
Ba1   O12   S    
C45   C46   S    
Ba2   O6    S    
C25   O30   S    
C44   H4    S    
C14   H32   S    
C31   C32   A    
C2    O21   S    
C12   H29   S    
C10   C11   S    
C33   C42   S    
C35   O28   S    
Ba2   P4    S    
C38   C39   A    
Ba1   O18   S    
C38   H41   S    
C11   C13   D    
O18   P6    S    
C48   H12   S    
C40   C41   A    
C1    C2    S    
C45   H5    S    
C9    C15   D    
C24   H34   S    
C3    O15   S    
O13   P2    S    
C29   C30   A    
C3    H16   S    
O4    P4    D    
C9    C10   S    
C26   P2    S    
C46   H8    S    
C10   P6    S    
C7    H25   S    
O27   H47   S    
C36   H40   S    
C47   H9    S    
O24   P3    D    
C31   H37   S    
Ba1   P2    S    
C12   H38   S    
C4    F2    S    
O28   H48   S    
Ba1   O13   S    
C47   O2    S    
C3    C4    S    
Ba2   O5    S    
C44   H3    S    
C6    H23   S    
C28   C37   S    
C40   P7    S    
O20   P1    S    
C12   C23   S    
C29   O29   S    
O25   H45   S    
O19   P6    D    
Ba1   O23   S    
C5    C6    S    
C25   C30   A    
O9    P5    S    
C34   H44   S    
C38   C42   A    
C18   C19   A    
C47   C48   S    
C20   C24   A    
C25   C26   A    
C39   C43   A    
C20   C21   A    
C16   N4    A    
C1    F1    S    
C19   P4    S    
C40   C43   A    
C17   N2    A    
O29   H49   S    
C45   H6    S    
O17   P8    S    
