data_mof_unit_pretest_114.cif
_audit_creation_date              2012-12-10T18:31:56-0500
_audit_creation_method            fapswitch 2.2
_symmetry_space_group_name_H-M    P1
_symmetry_Int_Tables_number       1
_space_group_crystal_system       triclinic
_cell_length_a                    10.708551
_cell_length_b                    14.960827
_cell_length_c                    15.534565
_cell_angle_alpha                 80.951148
_cell_angle_beta                  90.385104
_cell_angle_gamma                 104.492451
_cell_volume                      2378.20748632

loop_
_atom_site_label
_atom_site_type_symbol
_atom_type_description
_atom_site_fract_x
_atom_site_fract_y
_atom_site_fract_z
_atom_type_partial_charge
C1    C     C_R   0.479295 0.440384 0.662312 0.927017
C2    C     C_3   0.119827 0.499241 0.502521 -0.222495
C3    C     C_3   0.068744 0.500350 0.408425 0.300785
C4    C     C_3   0.100015 0.589286 0.537661 -0.278188
C5    C     C_R   0.460029 0.401874 0.755900 -0.239462
C6    C     C_R   0.516372 0.595893 0.244986 -0.394542
C7    C     C_R   0.468419 0.287633 0.883746 -0.016690
C8    C     C_R   0.477901 0.313198 0.793130 -0.125583
C9    C     C_R   0.429667 0.460317 0.810276 0.666971
C10   C     C_R   0.442938 0.441749 0.900786 -0.118278
C11   C     C_R   0.452272 0.350801 0.937524 -0.203881
C12   C     C_R   0.741470 0.500104 0.501907 0.918267
C13   C     C_R   0.449109 0.510230 0.955942 0.020139
C14   C     C_R   0.456389 0.483207 0.047193 -0.119481
C15   C     C_R   0.435494 0.387095 0.081670 0.605108
C16   C     C_R   0.440714 0.322851 0.027640 0.576731
C17   C     C_R   0.455879 0.605561 0.923596 -0.059999
C18   C     C_R   0.456917 0.669467 0.979807 -0.149225
C19   C     C_R   0.468527 0.643745 0.068923 -0.019737
C20   C     C_R   0.480790 0.552825 0.101432 0.003789
C21   C     C_R   0.473941 0.708604 0.125825 -0.251077
C22   C     C_R   0.491376 0.683105 0.214579 0.643560
C23   C     C_R   0.518148 0.559198 0.337857 0.953495
C24   C     C_R   0.524159 0.536145 0.186092 0.595302
C25   C     C_R   0.680610 0.832450 0.650680 -0.240495
C26   C     C_R   0.649622 0.745800 0.622299 0.582065
C27   C     C_R   0.536300 0.801850 0.502675 0.654260
C28   C     C_R   0.571878 0.893265 0.523738 -0.101511
C29   C     C_R   0.633160 0.905462 0.603995 -0.015426
C30   C     C_R   0.538066 0.970304 0.472180 -0.138590
C31   C     C_R   0.537534 0.051178 0.509408 0.017049
C32   C     C_R   0.583037 0.055873 0.594240 -0.086419
C33   C     C_R   0.635909 0.986958 0.638531 -0.060565
C34   C     C_R   0.257496 0.499211 0.501013 0.917641
C35   C     C_R   0.507924 0.970601 0.383834 0.642409
C36   C     C_R   0.442969 0.033395 0.342097 0.622032
C37   C     C_R   0.417903 0.103572 0.384907 -0.204486
C38   C     C_R   0.483651 0.121465 0.462331 -0.193959
C39   C     C_R   0.336729 0.160303 0.349731 -0.064792
C40   C     C_R   0.340079 0.242533 0.384436 -0.063904
C41   C     C_R   0.495369 0.210145 0.486873 0.752559
C42   C     C_3   0.894485 0.410474 0.561726 -0.446054
C43   C     C_3   0.038933 0.410913 0.566289 0.507997
C44   C     C_3   0.927262 0.505535 0.408644 0.492885
C45   C     C_3   0.956138 0.585987 0.542000 -0.485432
C46   C     C_3   0.877568 0.500562 0.503480 -0.165194
H1    H     H_    0.837578 0.348071 0.535477 0.229694
H2    H     H_    0.920401 0.572888 0.369086 0.082296
H3    H     H_    0.127547 0.561348 0.363682 0.146562
H4    H     H_    0.455712 0.740639 0.952926 0.159096
H5    H     H_    0.476289 0.218416 0.912507 0.238472
H6    H     H_    0.853520 0.405433 0.628560 0.230637
H7    H     H_    0.463295 0.634163 0.855346 0.206371
H8    H     H_    0.461061 0.777705 0.102088 0.217702
H9    H     H_    0.668938 0.995181 0.703393 0.203761
H10   H     H_    0.574794 0.110313 0.629762 0.220738
H11   H     H_    0.937167 0.651669 0.506162 0.231294
H12   H     H_    0.924264 0.580805 0.611155 0.248421
H13   H     H_    0.134762 0.587114 0.605526 0.228376
N1    N     N_R   0.573860 0.731700 0.552730 -0.205551
N2    N     N_R   0.426060 0.268290 0.447230 -0.170505
O1    O     O_R   0.462770 0.383110 0.605620 -0.628811
O2    O     O_R   0.510160 0.531900 0.639510 -0.509735
O3    O     O_R   0.661510 0.425600 0.483070 -0.508626
O4    O     O_R   0.708900 0.574390 0.516960 -0.613078
O5    O     O_R   0.489840 0.468100 0.360490 -0.589575
O6    O     O_R   0.537230 0.616890 0.394380 -0.529143
O7    O     O_R   0.291100 0.425610 0.483040 -0.640347
O8    O     O_R   0.338490 0.574400 0.516930 -0.605822
Zn1   Zn    Zn3+2 0.468350 0.400660 0.477370 1.070360
Zn2   Zn    Zn3+2 0.531650 0.599340 0.522630 1.105365
C47   C     C_2   0.173729 0.683779 0.488675 0.522622
H14   H     H_    0.243130 0.730223 0.523212 0.104464
O9    O     O_2   0.153291 0.710350 0.412721 -0.522073
F1    F     F_    0.431401 0.232454 0.063700 -0.591916
F2    F     F_    0.584268 0.466372 0.209939 -0.562685
F3    F     F_    0.483859 0.743345 0.269835 -0.508032
C48   C     C_2   0.502255 0.243936 0.741260 0.480307
H15   H     H_    0.454140 0.233708 0.680909 0.133405
O10   O     O_2   0.573577 0.194192 0.767918 -0.555046
F4    F     F_    0.375938 0.529987 0.774056 -0.660329
F5    F     F_    0.402445 0.353520 0.166995 -0.633424
F6    F     F_    0.585851 0.244220 0.542610 -0.692084
C49   C     C_2   0.251348 0.300938 0.352823 0.552037
H16   H     H_    0.284341 0.375936 0.338900 0.164453
O11   O     O_2   0.138031 0.264820 0.341893 -0.525855
F7    F     F_    0.415661 0.030075 0.256973 -0.541635
C50   C     C_2   0.763241 0.842957 0.727532 0.488662
H17   H     H_    0.761753 0.782480 0.776735 0.113408
O12   O     O_2   0.838639 0.917365 0.734541 -0.530161
F8    F     F_    0.696283 0.674875 0.664022 -0.657855
F9    F     F_    0.454705 0.779111 0.438164 -0.562697
F10   F     F_    0.077454 0.418908 0.651033 -0.609064
F11   F     F_    0.550499 0.915774 0.335061 -0.507632
C51   C     C_2   0.247071 0.134138 0.278934 0.720206
H18   H     H_    0.232672 0.187381 0.226536 0.124463
O13   O     O_2   0.184346 0.053497 0.280813 -0.482567
C52   C     C_2   0.054668 0.317530 0.547820 0.517412
H19   H     H_    0.015106 0.290458 0.489967 0.141485
O14   O     O_2   0.109477 0.270487 0.598790 -0.503214
F12   F     F_    0.852173 0.433849 0.369680 -0.545532
F13   F     F_    0.079531 0.422686 0.374459 -0.623674

loop_
_geom_bond_atom_site_label_1
_geom_bond_atom_site_label_2
_ccdc_geom_bond_type
N2    Zn1   S    
C33   H9    S    
C16   F1    S    
C40   C49   S    
C51   H18   S    
C43   C52   S    
C41   N2    A    
C1    O1    A    
C3    H3    S    
C7    C8    A    
O5    Zn1   S    
C45   C46   S    
C7    C11   A    
C45   H11   S    
C30   C35   A    
C1    C5    S    
C23   O5    A    
C36   C37   A    
C19   C21   A    
C49   O11   D    
C27   N1    A    
C21   H8    S    
C12   O3    A    
C48   O10   D    
C15   C16   A    
C41   F6    S    
C29   C33   A    
O1    Zn1   S    
C18   C19   A    
C42   C46   S    
C23   O6    A    
O8    Zn2   S    
C20   C24   A    
C19   C20   A    
O3    Zn1   S    
C9    C10   A    
C2    C34   S    
C21   C22   A    
C8    C48   S    
C1    O2    A    
C44   C46   S    
C15   F5    S    
C4    C45   S    
C36   F7    S    
C25   C29   A    
C3    C44   S    
C45   H12   S    
C14   C20   A    
C49   H16   S    
C38   C41   A    
C12   C46   S    
C34   O7    A    
C39   C40   A    
C48   H15   S    
C24   F2    S    
N1    Zn2   S    
C26   F8    S    
O4    Zn2   S    
C25   C50   S    
C40   N2    A    
C35   C36   A    
C2    C4    S    
C5    C9    A    
C37   C38   A    
C11   C16   A    
C31   C32   A    
C2    C43   S    
C6    C24   A    
C17   C18   A    
C27   F9    S    
C34   O8    A    
C39   C51   S    
C3    F13   S    
C47   O9    D    
O2    Zn2   S    
C52   O14   D    
C42   C43   S    
C17   H7    S    
C4    C47   S    
C18   H4    S    
C35   F11   S    
C28   C29   A    
C22   F3    S    
C50   O12   D    
C47   H14   S    
C10   C13   A    
C5    C8    A    
C44   F12   S    
C51   O13   D    
C12   O4    A    
C31   C38   A    
C13   C17   A    
C32   C33   A    
C28   C30   A    
C2    C3    S    
C25   C26   A    
C7    H5    S    
C37   C39   A    
C30   C31   A    
C6    C23   S    
C4    H13   S    
C43   F10   S    
O6    Zn2   S    
C42   H1    S    
C10   C11   A    
C50   H17   S    
O7    Zn1   S    
C52   H19   S    
C42   H6    S    
C27   C28   A    
C14   C15   A    
C13   C14   A    
C26   N1    A    
C32   H10   S    
C44   H2    S    
C9    F4    S    
C6    C22   A    
