data_mof_unit_pretest_940.cif
_audit_creation_date              2012-12-10T16:51:00-0500
_audit_creation_method            fapswitch 2.2
_symmetry_space_group_name_H-M    P1
_symmetry_Int_Tables_number       1
_space_group_crystal_system       triclinic
_cell_length_a                    8.059217
_cell_length_b                    8.538756
_cell_length_c                    10.543997
_cell_angle_alpha                 91.431457
_cell_angle_beta                  87.883417
_cell_angle_gamma                 92.831729
_cell_volume                      724.017035649

loop_
_atom_site_label
_atom_site_type_symbol
_atom_type_description
_atom_site_fract_x
_atom_site_fract_y
_atom_site_fract_z
_atom_type_partial_charge
C1    C     C_R   0.544093 0.793042 0.497101 0.939745
C2    C     C_R   0.935822 0.508187 0.076174 -0.063521
C3    C     C_R   0.070189 0.598781 0.028328 -0.148037
C4    C     C_R   0.929817 0.401338 0.971696 -0.148026
C5    C     C_R   0.210110 0.611039 0.102810 -0.209271
C6    C     C_R   0.789900 0.389070 0.897212 -0.209236
C7    C     C_R   0.351856 0.535877 0.061664 0.098343
C8    C     C_R   0.648150 0.464229 0.938352 0.098331
C9    C     C_R   0.352735 0.456867 0.944072 0.085423
C10   C     C_R   0.647267 0.543243 0.055943 0.085440
C11   C     C_R   0.498452 0.554051 0.125748 -0.246634
C12   C     C_R   0.455907 0.206958 0.502899 0.939759
C13   C     C_R   0.501552 0.446035 0.874269 -0.246630
C14   C     C_2   0.566753 0.957018 0.495232 -0.382837
C15   C     C_2   0.433246 0.042982 0.504767 -0.382838
C16   C     C_R   0.500960 0.479388 0.738475 0.865796
C17   C     C_R   0.499042 0.520635 0.261530 0.865810
C18   C     C_R   0.202898 0.408733 0.892069 -0.201839
C19   C     C_R   0.797099 0.591381 0.107954 -0.201847
C20   C     C_R   0.064180 0.491934 0.923848 -0.063520
H1    H     H_    0.958767 0.281964 0.994539 0.146423
H2    H     H_    0.306474 0.993595 0.514102 0.172674
H3    H     H_    0.953772 0.283474 0.342008 0.159637
H4    H     H_    0.967262 0.232909 0.493090 0.170860
H5    H     H_    0.046589 0.716720 0.657818 0.159729
H6    H     H_    0.032373 0.767013 0.506737 0.170847
H7    H     H_    0.041239 0.718157 0.005490 0.146438
H8    H     H_    0.197544 0.324759 0.813003 0.156108
H9    H     H_    0.802437 0.675332 0.187037 0.156077
H10   H     H_    0.036212 0.550084 0.836660 0.171185
H11   H     H_    0.963790 0.450042 0.163362 0.171134
H12   H     H_    0.212392 0.692471 0.183414 0.155974
H13   H     H_    0.787622 0.307625 0.816616 0.155989
H14   H     H_    0.693526 0.006405 0.485898 0.172651
N1    N     N_2   0.950330 0.457950 0.466250 -0.019411
N2    N     N_2   0.049670 0.542050 0.533750 -0.019370
N3    N     N_3   0.011126 0.315278 0.426630 -0.324756
N4    N     N_3   0.988879 0.684722 0.573379 -0.324814
O1    O     O_R   0.389250 0.738570 0.508280 -0.625155
O2    O     O_R   0.610750 0.261430 0.491720 -0.625155
O3    O     O_R   0.678390 0.711630 0.486650 -0.615070
O4    O     O_R   0.321610 0.288370 0.513350 -0.614999
O5    O     O_R   0.355430 0.513480 0.694040 -0.620264
O6    O     O_R   0.644570 0.486520 0.305960 -0.620258
O7    O     O_R   0.644570 0.486540 0.672410 -0.603995
O8    O     O_R   0.355430 0.513460 0.327590 -0.604027
Zn1   Zn    Zn3+2 0.306940 0.517990 0.514440 0.938575
Zn2   Zn    Zn3+2 0.693060 0.482010 0.485560 0.938566

loop_
_geom_bond_atom_site_label_1
_geom_bond_atom_site_label_2
_ccdc_geom_bond_type
C16   O7    A    
C12   O2    A    
C2    C4    A    
C12   C15   S    
C14   H14   S    
C8    C13   A    
H3    N3    S    
H5    N4    S    
C5    C7    A    
N1    N2    D    
C6    H13   S    
C10   C19   A    
C5    H12   S    
N2    N4    S    
H4    N3    S    
C17   O6    A    
C3    C20   A    
C20   H10   S    
C7    C11   A    
C4    H1    S    
C16   O5    A    
N1    Zn2   S    
C3    H7    S    
N1    N3    S    
O3    Zn2   S    
C2    C3    A    
C18   C20   A    
O4    Zn1   S    
C15   H2    S    
O7    Zn2   S    
C4    C6    A    
C10   C11   A    
C1    O1    A    
C12   O4    A    
C4    C20   A    
C9    C18   A    
C18   H8    S    
C17   O8    A    
N2    Zn1   S    
O1    Zn1   S    
C13   C16   S    
C1    O3    A    
C7    C9    A    
C9    C13   A    
O8    Zn1   S    
H6    N4    S    
C6    C8    A    
C1    C14   S    
C2    C19   A    
C14   C15   D    
O5    Zn1   S    
O2    Zn2   S    
C8    C10   A    
C11   C17   S    
O6    Zn2   S    
C2    H11   S    
C3    C5    A    
C19   H9    S    
