data_mof_unit_pretest_230.cif
_audit_creation_date              2012-12-10T16:33:52-0500
_audit_creation_method            fapswitch 2.2
_symmetry_space_group_name_H-M    P1
_symmetry_Int_Tables_number       1
_space_group_crystal_system       triclinic
_cell_length_a                    28.28132
_cell_length_b                    18.448489
_cell_length_c                    17.069225
_cell_angle_alpha                 89.752224
_cell_angle_beta                  61.069572
_cell_angle_gamma                 89.642713
_cell_volume                      7794.28900558

loop_
_atom_site_label
_atom_site_type_symbol
_atom_type_description
_atom_site_fract_x
_atom_site_fract_y
_atom_site_fract_z
_atom_type_partial_charge
C1    C     C_R   0.702986 0.270787 0.675041 0.929440
C2    C     C_R   0.975180 0.620234 0.421370 -0.214495
C3    C     C_R   0.075472 0.902486 0.932830 0.944792
C4    C     C_R   0.573804 0.600011 0.934119 0.920379
C5    C     C_R   0.424472 0.402665 0.067344 0.944789
C6    C     C_R   0.426274 0.600190 0.065645 0.918758
C7    C     C_R   0.575471 0.402484 0.932831 0.944797
C8    C     C_R   0.547078 0.998897 0.509019 0.015093
C9    C     C_R   0.452957 0.001060 0.490990 0.014203
C10   C     C_R   0.047077 0.498897 0.509022 0.015090
C11   C     C_R   0.952957 0.501060 0.490991 0.014200
C12   C     C_R   0.536946 0.058540 0.466082 0.052763
C13   C     C_R   0.923672 0.386617 0.570653 -0.215235
C14   C     C_R   0.463088 0.941413 0.533931 0.049687
C15   C     C_R   0.489004 0.060413 0.458719 0.046105
C16   C     C_R   0.511018 0.939555 0.541348 0.047558
C17   C     C_R   0.036945 0.558539 0.466084 0.052753
C18   C     C_R   0.963088 0.441412 0.533932 0.049693
C19   C     C_R   0.989003 0.560413 0.458722 0.046093
C20   C     C_R   0.011018 0.439555 0.541351 0.047564
C21   C     C_R   0.608382 0.936775 0.552246 0.078214
C22   C     C_R   0.391641 0.063236 0.447802 0.074284
C23   C     C_R   0.371815 0.940912 0.506229 0.061851
C24   C     C_R   0.076363 0.613334 0.429332 -0.216732
C25   C     C_R   0.628243 0.059040 0.493682 0.063998
C26   C     C_R   0.108382 0.436775 0.552249 0.078218
C27   C     C_R   0.891641 0.563236 0.447804 0.074271
C28   C     C_R   0.871814 0.440912 0.506229 0.061855
C29   C     C_R   0.128243 0.559040 0.493684 0.063991
C30   C     C_R   0.658925 0.935781 0.551432 -0.133862
C31   C     C_R   0.341098 0.064215 0.448589 -0.128194
C32   C     C_R   0.330549 0.938335 0.481446 -0.125513
C33   C     C_R   0.669503 0.061639 0.518465 -0.122932
C34   C     C_R   0.158925 0.435781 0.551434 -0.133861
C35   C     C_R   0.524827 0.879777 0.578805 -0.214066
C36   C     C_R   0.841098 0.564215 0.448590 -0.128187
C37   C     C_R   0.830549 0.438335 0.481446 -0.125514
C38   C     C_R   0.169503 0.561639 0.518466 -0.122927
C39   C     C_R   0.684757 0.999819 0.545802 -0.304800
C40   C     C_R   0.315293 0.000166 0.454138 -0.306548
C41   C     C_R   0.184757 0.499819 0.545804 -0.304803
C42   C     C_R   0.815293 0.500166 0.454139 -0.306541
C43   C     C_R   0.594119 0.998456 0.519142 0.075792
C44   C     C_R   0.405922 0.001515 0.480838 0.074999
C45   C     C_R   0.094118 0.498455 0.519144 0.075794
C46   C     C_R   0.475181 0.120233 0.421364 -0.214597
C47   C     C_R   0.905922 0.501515 0.480840 0.075001
C48   C     C_R   0.072515 0.378434 0.583648 -0.188699
C49   C     C_R   0.927499 0.621622 0.416508 -0.178701
C50   C     C_R   0.879113 0.386507 0.557209 -0.191802
C51   C     C_R   0.120946 0.613430 0.442694 -0.188302
C52   C     C_R   0.572516 0.878434 0.583645 -0.188702
C53   C     C_R   0.427500 0.121621 0.416504 -0.178706
C54   C     C_R   0.379113 0.886508 0.557210 -0.191800
C55   C     C_R   0.620945 0.113431 0.442694 -0.188293
C56   C     C_3   0.605778 0.239317 0.175547 -0.353127
C57   C     C_R   0.423672 0.886618 0.570654 -0.215235
C58   C     C_3   0.365817 0.839460 0.925500 -0.329784
C59   C     C_3   0.392895 0.249524 0.826487 -0.336514
C60   C     C_3   0.632016 0.838880 0.072827 -0.323350
C61   C     C_3   0.105788 0.739722 0.175444 -0.353104
C62   C     C_3   0.865801 0.339487 0.925526 -0.329777
C63   C     C_3   0.892899 0.749525 0.826484 -0.336528
C64   C     C_3   0.132021 0.338900 0.072806 -0.323340
C65   C     C_3   0.671466 0.448481 0.724195 0.106165
C66   C     C_3   0.660917 0.499557 0.664136 -0.708462
C67   C     C_3   0.440109 0.735154 0.193869 0.112423
C68   C     C_R   0.576363 0.113336 0.429332 -0.216831
C69   C     C_3   0.477385 0.725406 0.234089 -0.745222
C70   C     C_3   0.328903 0.448786 0.276156 0.112017
C71   C     C_3   0.340158 0.499176 0.335413 -0.712433
C72   C     C_3   0.560824 0.735802 0.802179 0.114631
C73   C     C_3   0.520506 0.722167 0.769011 -0.780676
C74   C     C_3   0.171462 0.948480 0.724194 0.106180
C75   C     C_3   0.160917 0.999547 0.664123 -0.708475
C76   C     C_3   0.940123 0.235138 0.193837 0.112432
C77   C     C_3   0.977402 0.225387 0.234051 -0.745229
C78   C     C_3   0.828880 0.948794 0.276146 0.111979
C79   C     C_R   0.715956 0.254499 0.957464 -0.051008
C80   C     C_3   0.840117 0.999198 0.335412 -0.712425
C81   C     C_3   0.060821 0.235804 0.802186 0.114630
C82   C     C_3   0.020501 0.222170 0.769023 -0.780683
C83   C     C_R   0.275712 0.727817 0.049389 -0.053502
C84   C     C_R   0.283226 0.257289 0.042908 -0.052850
C85   C     C_R   0.298155 0.731370 0.324063 0.916781
C86   C     C_R   0.723404 0.728556 0.951476 -0.056142
C87   C     C_R   0.215957 0.754501 0.957463 -0.051070
C88   C     C_R   0.775708 0.227808 0.049391 -0.053406
C89   C     C_R   0.783231 0.757279 0.042905 -0.052845
C90   C     C_R   0.223401 0.228562 0.951478 -0.056144
C91   C     C_R   0.772100 0.265255 0.915073 -0.376509
C92   C     C_R   0.219651 0.715861 0.091736 -0.391840
C93   C     C_R   0.226835 0.266836 0.085537 -0.372365
C94   C     C_R   0.779724 0.717936 0.908908 -0.386572
C95   C     C_R   0.272103 0.765238 0.915061 -0.376485
C96   C     C_R   0.296818 0.271195 0.325156 0.922004
C97   C     C_R   0.719650 0.215830 0.091727 -0.392062
C98   C     C_R   0.726839 0.766822 0.085538 -0.372367
C99   C     C_R   0.279720 0.217936 0.908914 -0.386577
C100  C     C_R   0.801731 0.253719 0.960414 0.550301
C101  C     C_R   0.189106 0.730315 0.047365 0.563785
C102  C     C_R   0.197181 0.254359 0.040456 0.549686
C103  C     C_R   0.810178 0.733463 0.952931 0.559634
C104  C     C_R   0.301736 0.753707 0.960401 0.550292
C105  C     C_R   0.689103 0.230282 0.047353 0.563840
C106  C     C_R   0.697184 0.754345 0.040457 0.549686
C107  C     C_R   0.701817 0.731396 0.675836 0.910694
C108  C     C_R   0.310174 0.233467 0.952936 0.559632
C109  C     C_R   0.641144 0.321758 0.947667 -0.221705
C110  C     C_R   0.353944 0.669217 0.056515 -0.202708
C111  C     C_R   0.358134 0.323877 0.052805 -0.219455
C112  C     C_R   0.645658 0.669176 0.943837 -0.204197
C113  C     C_R   0.141146 0.821762 0.947665 -0.221776
C114  C     C_R   0.853942 0.169214 0.056515 -0.202702
C115  C     C_R   0.858137 0.823871 0.052803 -0.219467
C116  C     C_R   0.145656 0.169180 0.943839 -0.204202
C117  C     C_R   0.620453 0.353482 0.894945 -0.211908
C118  C     C_R   0.202986 0.770786 0.675042 0.929441
C119  C     C_R   0.383956 0.654088 0.100961 -0.217906
C120  C     C_R   0.379250 0.354330 0.105340 -0.212294
C121  C     C_R   0.615993 0.653844 0.898877 -0.215431
C122  C     C_R   0.120454 0.853484 0.894943 -0.211882
C123  C     C_R   0.883955 0.154087 0.100961 -0.217916
C124  C     C_R   0.879250 0.854329 0.105340 -0.212308
C125  C     C_R   0.115991 0.153846 0.898879 -0.215436
C126  C     C_R   0.645876 0.343354 0.803751 0.403369
C127  C     C_R   0.370479 0.685853 0.182438 0.392432
C128  C     C_R   0.353919 0.343851 0.196451 0.399116
C129  C     C_R   0.798154 0.231368 0.324064 0.916788
C130  C     C_R   0.629454 0.685726 0.817301 0.391988
C131  C     C_R   0.145875 0.843353 0.803751 0.403367
C132  C     C_R   0.870478 0.185852 0.182438 0.392431
C133  C     C_R   0.853916 0.843855 0.196452 0.399131
C134  C     C_R   0.129453 0.185727 0.817301 0.391996
C135  C     C_R   0.682934 0.287922 0.768055 -0.178104
C136  C     C_R   0.320474 0.718973 0.228736 -0.172813
C137  C     C_R   0.316668 0.289004 0.232214 -0.176852
C138  C     C_R   0.679176 0.719183 0.771369 -0.175267
C139  C     C_R   0.182933 0.787919 0.768056 -0.178103
C140  C     C_R   0.796819 0.771195 0.325156 0.922011
C141  C     C_R   0.820472 0.218969 0.228737 -0.172793
C142  C     C_R   0.816669 0.789002 0.232213 -0.176860
C143  C     C_R   0.179175 0.219183 0.771369 -0.175268
C144  C     C_R   0.704806 0.255172 0.818937 -0.293822
C145  C     C_R   0.289491 0.734519 0.185389 -0.310521
C146  C     C_R   0.294553 0.257385 0.181462 -0.287990
C147  C     C_R   0.709707 0.734956 0.815211 -0.300565
C148  C     C_R   0.204803 0.755168 0.818940 -0.293816
C149  C     C_R   0.789487 0.234510 0.185392 -0.310532
C150  C     C_R   0.794558 0.757376 0.181459 -0.287994
C151  C     C_R   0.201817 0.231397 0.675836 0.910697
C152  C     C_R   0.209706 0.234958 0.815212 -0.300568
C153  C     C_R   0.685911 0.275208 0.908529 0.169806
C154  C     C_R   0.307163 0.711693 0.097236 0.143888
C155  C     C_R   0.313229 0.277913 0.091949 0.166566
C156  C     C_R   0.692110 0.711968 0.903443 0.139858
C157  C     C_R   0.185910 0.775207 0.908529 0.169810
C158  C     C_R   0.807160 0.211686 0.097239 0.143892
C159  C     C_R   0.813234 0.777904 0.091946 0.166571
C160  C     C_R   0.192108 0.211971 0.903445 0.139863
C161  C     C_R   0.696721 0.127682 0.517722 0.896759
C162  C     C_R   0.024826 0.379777 0.578808 -0.214063
C163  C     C_R   0.303307 0.872313 0.482205 0.887673
C164  C     C_R   0.308822 0.129690 0.463935 0.886506
C165  C     C_R   0.691178 0.870301 0.536090 0.874758
C166  C     C_R   0.196721 0.627682 0.517722 0.896769
C167  C     C_R   0.803307 0.372313 0.482206 0.887673
C168  C     C_R   0.808821 0.629690 0.463936 0.886502
C169  C     C_R   0.191178 0.370301 0.536091 0.874755
C170  C     C_R   0.073804 0.100012 0.934120 0.920374
C171  C     C_R   0.924472 0.902665 0.067345 0.944800
C172  C     C_R   0.926273 0.100190 0.065645 0.918752
H1    H     H_    0.719703 0.000346 0.556141 0.198200
H2    H     H_    0.419983 0.168060 0.385081 0.168177
H3    H     H_    0.834526 0.980120 0.216257 0.118528
H4    H     H_    0.882376 0.019002 0.298557 0.268826
H5    H     H_    0.812190 0.046445 0.355201 0.206797
H6    H     H_    0.833884 0.970062 0.396738 0.241543
H7    H     H_    0.083141 0.286633 0.770748 0.118419
H8    H     H_    0.037668 0.242813 0.876301 0.116262
H9    H     H_    0.995937 0.173550 0.802650 0.262551
H10   H     H_    0.993179 0.269708 0.784312 0.207710
H11   H     H_    0.042155 0.213210 0.695529 0.242051
H12   H     H_    0.349541 0.844505 0.590555 0.169786
H13   H     H_    0.650509 0.155446 0.409345 0.167780
H14   H     H_    0.000269 0.331992 0.603515 0.143334
H15   H     H_    0.999733 0.668029 0.396748 0.134861
H16   H     H_    0.925464 0.343160 0.611443 0.143388
H17   H     H_    0.074543 0.656834 0.388641 0.128228
H18   H     H_    0.500270 0.831992 0.603511 0.143336
H19   H     H_    0.499735 0.168027 0.396738 0.134841
H20   H     H_    0.425463 0.843163 0.611445 0.143389
H21   H     H_    0.280354 0.999640 0.443781 0.198003
H22   H     H_    0.574542 0.156837 0.388645 0.128192
H23   H     H_    0.793108 0.285103 0.846798 0.178376
H24   H     H_    0.200122 0.693357 0.158644 0.169922
H25   H     H_    0.205590 0.286470 0.153817 0.184719
H26   H     H_    0.799705 0.695703 0.841945 0.174356
H27   H     H_    0.293112 0.785069 0.846779 0.178382
H28   H     H_    0.700130 0.193310 0.158627 0.169871
H29   H     H_    0.705594 0.786450 0.153820 0.184715
H30   H     H_    0.299700 0.195697 0.841955 0.174356
H31   H     H_    0.624418 0.336579 0.017429 0.189188
H32   H     H_    0.219703 0.500345 0.556142 0.198202
H33   H     H_    0.365660 0.645553 0.991637 0.195596
H34   H     H_    0.374749 0.339146 0.983159 0.189347
H35   H     H_    0.633906 0.645527 0.008873 0.196665
H36   H     H_    0.124424 0.836592 0.017422 0.189128
H37   H     H_    0.865659 0.145552 0.991636 0.195578
H38   H     H_    0.874752 0.839140 0.983157 0.189348
H39   H     H_    0.133903 0.145533 0.008876 0.196654
H40   H     H_    0.737636 0.216340 0.788340 0.181266
H41   H     H_    0.251337 0.763210 0.220372 0.177672
H42   H     H_    0.261778 0.218861 0.212080 0.182564
H43   H     H_    0.780355 0.499640 0.443781 0.198004
H44   H     H_    0.747530 0.763973 0.780479 0.180118
H45   H     H_    0.237632 0.716333 0.788343 0.181263
H46   H     H_    0.751332 0.263199 0.220376 0.177676
H47   H     H_    0.761786 0.718850 0.212077 0.182565
H48   H     H_    0.247530 0.263974 0.780480 0.180119
H49   H     H_    0.619753 0.293558 0.184224 0.148091
H50   H     H_    0.608317 0.198981 0.221857 0.168620
H51   H     H_    0.562494 0.244920 0.194362 0.200943
H52   H     H_    0.349389 0.854273 0.997222 0.168189
H53   H     H_    0.348359 0.875296 0.893265 0.167842
H54   H     H_    0.080097 0.332093 0.615052 0.165857
H55   H     H_    0.410015 0.848999 0.891463 0.188663
H56   H     H_    0.377645 0.304734 0.823327 0.144590
H57   H     H_    0.391002 0.213061 0.776500 0.176925
H58   H     H_    0.436103 0.255114 0.807881 0.205163
H59   H     H_    0.647754 0.851804 0.000676 0.165330
H60   H     H_    0.649509 0.876378 0.102883 0.168973
H61   H     H_    0.587719 0.848118 0.107295 0.187689
H62   H     H_    0.119775 0.794064 0.183774 0.148031
H63   H     H_    0.108320 0.699647 0.222012 0.168468
H64   H     H_    0.062504 0.745255 0.194231 0.200964
H65   H     H_    0.919983 0.668062 0.385086 0.168182
H66   H     H_    0.849362 0.354302 0.997250 0.168188
H67   H     H_    0.848347 0.375316 0.893278 0.167845
H68   H     H_    0.909997 0.349033 0.891505 0.188669
H69   H     H_    0.877643 0.804731 0.823323 0.144584
H70   H     H_    0.891015 0.713060 0.776491 0.176933
H71   H     H_    0.936105 0.755127 0.807886 0.205161
H72   H     H_    0.147760 0.351815 0.000652 0.165330
H73   H     H_    0.149515 0.376400 0.102856 0.168988
H74   H     H_    0.087724 0.348144 0.107271 0.187688
H75   H     H_    0.714276 0.429732 0.686406 0.111818
H76   H     H_    0.849542 0.344503 0.590554 0.169785
H77   H     H_    0.665519 0.479519 0.784200 0.121953
H78   H     H_    0.618727 0.520210 0.700296 0.269150
H79   H     H_    0.689034 0.546206 0.644508 0.215592
H80   H     H_    0.667406 0.470656 0.602748 0.239408
H81   H     H_    0.418366 0.787852 0.217622 0.127739
H82   H     H_    0.465459 0.736515 0.119564 0.116270
H83   H     H_    0.500479 0.673900 0.210074 0.254421
H84   H     H_    0.506254 0.771183 0.213743 0.208426
H85   H     H_    0.453349 0.724119 0.308297 0.251328
H86   H     H_    0.286059 0.430834 0.314677 0.126779
H87   H     H_    0.150510 0.655444 0.409344 0.167781
H88   H     H_    0.334544 0.480120 0.216275 0.118526
H89   H     H_    0.382419 0.518971 0.298542 0.268810
H90   H     H_    0.312236 0.546430 0.355220 0.206829
H91   H     H_    0.333934 0.470031 0.396728 0.241531
H92   H     H_    0.583146 0.786630 0.770739 0.118417
H93   H     H_    0.537670 0.742813 0.876293 0.116265
H94   H     H_    0.495941 0.673549 0.802639 0.262554
H95   H     H_    0.493186 0.769706 0.784295 0.207695
H96   H     H_    0.542162 0.713204 0.695518 0.242054
H97   H     H_    0.214273 0.929733 0.686414 0.111811
H98   H     H_    0.580098 0.832093 0.615049 0.165858
H99   H     H_    0.165509 0.979524 0.784199 0.121960
H100  H     H_    0.118726 0.020196 0.700272 0.269135
H101  H     H_    0.189031 0.046200 0.644498 0.215596
H102  H     H_    0.167414 0.970640 0.602734 0.239412
H103  H     H_    0.918394 0.287848 0.217569 0.127739
H104  H     H_    0.965470 0.236477 0.119530 0.116265
H105  H     H_    0.000476 0.173864 0.210067 0.254419
H106  H     H_    0.006288 0.271145 0.213668 0.208461
H107  H     H_    0.953370 0.224134 0.308261 0.251318
H108  H     H_    0.786038 0.930831 0.314654 0.126776
O1    O     O_R   0.746490 0.236330 0.638080 -0.659065
O2    O     O_R   0.325830 0.813840 0.483730 -0.638915
O3    O     O_R   0.325830 0.186160 0.483730 -0.634252
O4    O     O_R   0.674170 0.813840 0.516270 -0.632948
O5    O     O_R   0.174170 0.686160 0.516270 -0.634991
O6    O     O_R   0.825830 0.313840 0.483730 -0.638911
O7    O     O_R   0.825830 0.686160 0.483730 -0.634260
O8    O     O_R   0.174170 0.313840 0.516270 -0.632945
O9    O     O_R   0.739960 0.127620 0.525000 -0.637811
O10   O     O_R   0.260040 0.872380 0.475000 -0.637790
O11   O     O_R   0.260040 0.127620 0.475000 -0.633565
O12   O     O_R   0.253510 0.763670 0.361920 -0.658261
O13   O     O_R   0.739960 0.872380 0.525000 -0.633809
O14   O     O_R   0.239960 0.627620 0.525000 -0.637814
O15   O     O_R   0.760040 0.372380 0.475000 -0.637784
O16   O     O_R   0.760040 0.627620 0.475000 -0.633563
O17   O     O_R   0.239960 0.372380 0.525000 -0.633812
O18   O     O_R   0.680700 0.294870 0.629350 -0.564227
O19   O     O_R   0.319300 0.705130 0.370650 -0.574501
O20   O     O_R   0.319300 0.294870 0.370650 -0.573329
O21   O     O_R   0.680700 0.705130 0.629350 -0.579354
O22   O     O_R   0.180700 0.794870 0.629350 -0.564225
O23   O     O_R   0.253510 0.236330 0.361920 -0.646116
O24   O     O_R   0.819300 0.205130 0.370650 -0.574488
O25   O     O_R   0.819300 0.794870 0.370650 -0.573332
O26   O     O_R   0.180700 0.205130 0.629350 -0.579354
O27   O     O_R   0.062020 0.072840 0.007170 -0.645148
O28   O     O_R   0.937980 0.927160 0.992830 -0.646389
O29   O     O_R   0.937980 0.072840 0.992830 -0.645576
O30   O     O_R   0.062020 0.927160 0.007170 -0.646560
O31   O     O_R   0.562020 0.572840 0.007170 -0.645140
O32   O     O_R   0.437980 0.427160 0.992830 -0.646392
O33   O     O_R   0.437980 0.572840 0.992830 -0.645577
O34   O     O_R   0.746490 0.763670 0.638080 -0.645630
O35   O     O_R   0.562020 0.427160 0.007170 -0.646532
O36   O     O_R   0.947860 0.073950 0.109290 -0.572741
O37   O     O_R   0.052140 0.926050 0.890710 -0.564985
O38   O     O_R   0.052140 0.073950 0.890710 -0.571464
O39   O     O_R   0.947860 0.926050 0.109290 -0.566404
O40   O     O_R   0.447860 0.573950 0.109290 -0.572742
O41   O     O_R   0.552140 0.426050 0.890710 -0.564987
O42   O     O_R   0.552140 0.573950 0.890710 -0.571470
O43   O     O_R   0.447860 0.426050 0.109290 -0.566394
O44   O     O_3   0.634307 0.214469 0.086282 -0.597147
O45   O     O_R   0.246490 0.736330 0.638080 -0.659064
O46   O     O_3   0.356800 0.765777 0.915897 -0.619312
O47   O     O_3   0.365228 0.218879 0.913045 -0.600388
O48   O     O_3   0.641985 0.765887 0.085127 -0.616491
O49   O     O_3   0.134309 0.714517 0.086336 -0.597091
O50   O     O_3   0.856794 0.265801 0.915919 -0.619314
O51   O     O_3   0.865232 0.718875 0.913039 -0.600387
O52   O     O_3   0.141983 0.265908 0.085120 -0.616499
O53   O     O_3   0.635484 0.389211 0.749029 -0.577656
O54   O     O_3   0.403244 0.677062 0.221348 -0.585535
O55   O     O_3   0.364672 0.388767 0.251007 -0.578885
O56   O     O_R   0.753510 0.263670 0.361920 -0.658265
O57   O     O_3   0.596969 0.676532 0.778072 -0.584016
O58   O     O_3   0.135482 0.889207 0.749028 -0.577658
O59   O     O_3   0.903243 0.177063 0.221348 -0.585538
O60   O     O_3   0.864657 0.888784 0.251011 -0.578886
O61   O     O_3   0.096967 0.176535 0.778073 -0.584010
O62   O     O_R   0.753510 0.736330 0.361920 -0.646115
O63   O     O_R   0.246490 0.263670 0.638080 -0.645629
O64   O     O_R   0.674170 0.186160 0.516270 -0.634988
Zn1   Zn    Zn3+2 0.792340 0.208750 0.507670 0.947350
Zn2   Zn    Zn3+2 0.494040 0.500000 0.919480 0.970993
Zn3   Zn    Zn3+2 0.005960 0.000000 0.080520 0.969684
Zn4   Zn    Zn3+2 0.994040 0.000000 0.919480 0.970988
Zn5   Zn    Zn3+2 0.207660 0.791250 0.492330 0.952677
Zn6   Zn    Zn3+2 0.207660 0.208750 0.492330 0.954340
Zn7   Zn    Zn3+2 0.792340 0.791250 0.507670 0.952736
Zn8   Zn    Zn3+2 0.292340 0.708750 0.507670 0.947338
Zn9   Zn    Zn3+2 0.707660 0.291250 0.492330 0.952689
Zn10  Zn    Zn3+2 0.707660 0.708750 0.492330 0.954342
Zn11  Zn    Zn3+2 0.292340 0.291250 0.507670 0.952735
Zn12  Zn    Zn3+2 0.505960 0.500000 0.080520 0.969742

loop_
_geom_bond_atom_site_label_1
_geom_bond_atom_site_label_2
_ccdc_geom_bond_type
O8    Zn6   S    
C28   C47   A    
O35   Zn12  S    
C128  O55   S    
C36   C42   A    
C140  O62   A    
C83   C154  S    
C67   C69   S    
C82   H9    S    
C124  C133  A    
O21   Zn10  S    
C16   C35   A    
C48   C162  A    
C6    O40   A    
C63   H69   S    
C32   C163  S    
C36   C168  S    
C118  O22   A    
C38   C166  S    
C37   C42   A    
C133  O60   S    
C86   C156  S    
C130  O57   S    
O27   Zn3   S    
C134  C143  A    
C52   H98   S    
C113  C122  A    
C10   C20   A    
O38   Zn4   S    
C96   O23   A    
C88   C158  S    
C91   C100  A    
C117  C126  A    
C88   C97   A    
O37   Zn4   S    
C97   C105  A    
C24   C51   A    
O32   Zn2   S    
C171  O39   A    
C8    C16   A    
C167  O15   A    
C97   H28   S    
C134  O61   S    
C63   O51   S    
C50   H76   S    
C161  O64   A    
O63   Zn11  S    
C171  O28   A    
C66   H80   S    
C150  C159  A    
C113  H36   S    
C137  C146  A    
C127  C136  A    
C166  O5    A    
C57   H20   S    
C49   H65   S    
C74   C75   S    
C100  O50   S    
C81   O61   S    
C62   H67   S    
C29   C45   A    
C33   C161  S    
C48   H54   S    
C5    O32   A    
O3    Zn11  S    
C59   H56   S    
C111  H34   S    
C146  H42   S    
C13   C18   A    
C35   H18   S    
O24   Zn1   S    
C99   H30   S    
C103  O51   S    
O28   Zn4   S    
C130  C138  A    
C83   C104  A    
O4    Zn10  S    
C14   C57   A    
C115  H38   S    
C2    C19   A    
C60   H61   S    
C25   C55   A    
C81   H8    S    
C72   C73   S    
C92   H24   S    
O1    Zn1   S    
C72   O57   S    
C98   C106  A    
C80   H5    S    
C107  C138  S    
C9    C15   A    
C1    O1    A    
C6    O33   A    
C122  C131  A    
C67   O54   S    
C74   O58   S    
C82   H11   S    
C46   C53   A    
C84   C93   A    
C3    O37   A    
O62   Zn10  S    
C73   H94   S    
C64   H74   S    
C106  O48   S    
C113  C157  A    
C111  C155  A    
C66   H78   S    
C129  O24   A    
C123  C132  A    
C7    O41   A    
C169  O8    A    
C7    C117  S    
C93   H25   S    
O10   Zn5   S    
C121  C130  A    
O34   Zn7   S    
O45   Zn8   S    
C25   C43   A    
C99   C108  A    
C12   C68   A    
C133  C142  A    
C110  C154  A    
C116  H39   S    
C167  O6    A    
O16   Zn10  S    
C56   H49   S    
C78   C80   S    
C11   C18   A    
C75   H100  S    
C2    H15   S    
C90   C102  A    
C42   H43   S    
C107  O21   A    
C26   C45   A    
C87   C101  A    
C87   C95   A    
C29   C38   A    
C105  O44   S    
C150  H47   S    
C149  C158  A    
C170  O27   A    
C79   C91   A    
O64   Zn9   S    
C71   H90   S    
C75   H101  S    
C165  O4    A    
O22   Zn5   S    
C86   C106  A    
C10   C45   A    
O6    Zn1   S    
C89   C159  S    
C40   H21   S    
C139  C148  A    
O33   Zn2   S    
C78   O60   S    
C38   C41   A    
C62   O50   S    
C165  O13   A    
C87   C157  S    
C76   H103  S    
C59   O47   S    
C41   H32   S    
C77   H106  S    
C161  O9    A    
C73   H96   S    
C79   C153  S    
C170  O38   A    
C8    C12   A    
C20   C162  A    
O29   Zn4   S    
C168  O7    A    
C34   C169  S    
C145  C154  A    
C116  C125  A    
C78   H3    S    
C61   H63   S    
C3    O30   A    
C114  C123  A    
C59   H57   S    
C90   C99   A    
C69   H85   S    
C29   C51   A    
O36   Zn3   S    
C27   C47   A    
C132  C141  A    
C85   O12   A    
C31   C164  S    
C112  H35   S    
C110  C119  A    
C56   H51   S    
C82   H10   S    
C89   C98   A    
C112  C121  A    
C85   O19   A    
C28   C37   A    
C76   O59   S    
C143  C151  S    
C30   C39   A    
C110  H33   S    
C148  C157  A    
C163  O10   A    
C131  C139  A    
C85   C136  S    
C13   C50   A    
C112  C156  A    
O39   Zn3   S    
C60   O48   S    
C58   O46   S    
C68   H22   S    
C30   C165  S    
C15   C46   A    
C1    C135  S    
C58   H55   S    
C27   C49   A    
C69   H84   S    
C25   C33   A    
C54   C57   A    
C119  C127  A    
C125  C134  A    
O56   Zn9   S    
C6    C119  S    
C98   H29   S    
C11   C47   A    
C8    C43   A    
C39   H1    S    
C55   C68   A    
C64   O52   S    
C109  C117  A    
C37   C167  S    
C11   C19   A    
C132  O59   S    
C172  O36   A    
C114  H37   S    
C140  C142  S    
C116  C160  A    
O20   Zn11  S    
C67   H82   S    
C129  C141  S    
C60   H59   S    
C62   H68   S    
C31   C40   A    
C114  C158  A    
C70   O55   S    
C118  O45   A    
C146  C155  A    
C70   C71   S    
C109  C153  A    
C46   H19   S    
C26   C48   A    
C70   H88   S    
C34   C41   A    
C71   H91   S    
C72   H92   S    
C5    C120  S    
C81   H7    S    
O18   Zn9   S    
C58   H52   S    
C63   H70   S    
C23   C44   A    
C115  C159  A    
C80   H6    S    
C9    C14   A    
C127  O54   S    
C1    O18   A    
C163  O2    A    
C5    O43   A    
O19   Zn8   S    
O25   Zn7   S    
C125  C170  S    
C88   C100  A    
C58   H53   S    
C92   C101  A    
C145  H41   S    
C143  C152  A    
C94   C103  A    
C54   H12   S    
C118  C139  S    
C144  H40   S    
C166  O14   A    
C51   H87   S    
C66   H79   S    
C151  O26   A    
C115  C124  A    
C60   H60   S    
C93   C102  A    
C74   H99   S    
C120  C128  A    
C64   H72   S    
C27   C36   A    
C21   C30   A    
C62   H66   S    
C23   C32   A    
C142  C150  A    
C131  O58   S    
C4    O31   A    
C56   H50   S    
C124  C171  S    
C7    O35   A    
C72   H93   S    
C84   C108  A    
C4    C121  S    
C149  H46   S    
C90   C160  S    
C65   O53   S    
C70   H86   S    
C79   C105  A    
C35   C52   A    
C102  O52   S    
C71   H89   S    
C152  C160  A    
C65   H77   S    
C81   C82   S    
C141  C149  A    
O42   Zn2   S    
C101  O49   S    
C83   C92   A    
O13   Zn7   S    
C33   C39   A    
C84   C155  S    
O15   Zn9   S    
C10   C17   A    
C91   H23   S    
C76   H104  S    
C96   O20   A    
C77   H105  S    
C144  C153  A    
C129  O56   A    
C86   C94   A    
C21   C43   A    
C28   C50   A    
O12   Zn5   S    
C26   C34   A    
C22   C44   A    
C64   H73   S    
C12   C15   A    
C24   H17   S    
C73   H95   S    
C136  C145  A    
C3    C122  S    
C32   C40   A    
C140  O25   A    
C65   H75   S    
C13   H16   S    
C148  H45   S    
C4    O42   A    
C61   H62   S    
C74   H97   S    
C53   H2    S    
C22   C53   A    
C67   H81   S    
O2    Zn8   S    
O41   Zn2   S    
C168  O16   A    
C17   C24   A    
C22   C31   A    
C126  O53   S    
C109  H31   S    
C76   C77   S    
C80   H4    S    
C147  H44   S    
C96   C137  S    
C162  H14   S    
O26   Zn6   S    
C172  O29   A    
C164  O3    A    
C111  C120  A    
C94   H26   S    
O31   Zn12  S    
C128  C137  A    
C147  C156  A    
C2    C49   A    
O9    Zn1   S    
C138  C147  A    
C63   H71   S    
C108  O47   S    
O17   Zn11  S    
C151  O63   A    
O43   Zn12  S    
C135  C144  A    
C75   H102  S    
C14   C16   A    
C95   C104  A    
C69   H83   S    
C23   C54   A    
O11   Zn6   S    
C9    C44   A    
C123  C172  S    
C126  C135  A    
C164  O11   A    
C77   H107  S    
C78   H108  S    
O30   Zn3   S    
O5    Zn5   S    
C107  O34   A    
C104  O46   S    
O7    Zn7   S    
C152  H48   S    
C17   C19   A    
O23   Zn6   S    
C18   C20   A    
C55   H13   S    
O40   Zn12  S    
C95   H27   S    
C65   C66   S    
O14   Zn8   S    
C61   H64   S    
C61   O49   S    
C56   O44   S    
C59   H58   S    
C169  O17   A    
C21   C52   A    
C89   C103  A    
