data_mof_unit_pretest_738.cif
_audit_creation_date              2012-12-10T17:34:57-0500
_audit_creation_method            fapswitch 2.2
_symmetry_space_group_name_H-M    P1
_symmetry_Int_Tables_number       1
_space_group_crystal_system       triclinic
_cell_length_a                    12.093453
_cell_length_b                    12.83506
_cell_length_c                    15.731175
_cell_angle_alpha                 89.494622
_cell_angle_beta                  86.669114
_cell_angle_gamma                 93.861086
_cell_volume                      2431.93932518

loop_
_atom_site_label
_atom_site_type_symbol
_atom_type_description
_atom_site_fract_x
_atom_site_fract_y
_atom_site_fract_z
_atom_type_partial_charge
C1    C     C_R   0.522817 0.700846 0.497889 0.938450
C2    C     C_3   0.391982 0.477087 0.053943 -0.494753
C3    C     C_3   0.512938 0.480041 0.083735 0.059176
C4    C     C_3   0.566730 0.377797 0.048208 -0.101363
C5    C     C_3   0.555852 0.377352 0.948173 -0.254075
C6    C     C_1   0.500591 0.478448 0.175743 -0.097088
C7    C     C_1   0.506988 0.486953 0.824870 -0.025035
C8    C     C_1   0.502222 0.492174 0.749966 -0.142300
C9    C     C_R   0.460129 0.188901 0.510345 -0.131161
C10   C     C_R   0.537776 0.813846 0.500392 -0.328088
C11   C     C_R   0.632113 0.969798 0.554998 -0.093855
C12   C     C_R   0.500447 0.498618 0.661404 0.887355
C13   C     C_R   0.633086 0.863992 0.533216 0.356797
C14   C     C_R   0.449908 0.870673 0.475550 0.431462
C15   C     C_R   0.446503 0.974922 0.497958 -0.067766
C16   C     C_R   0.540789 0.026137 0.533504 -0.075298
C17   C     C_R   0.542906 0.133518 0.542866 -0.123092
C18   C     C_R   0.362799 0.138476 0.484050 -0.362963
C19   C     C_R   0.351171 0.029800 0.484611 0.532567
C20   C     C_R   0.953942 0.395631 0.428461 0.429441
C21   C     C_R   0.837428 0.403052 0.437004 -0.028483
C22   C     C_R   0.858552 0.546753 0.529922 -0.014355
C23   C     C_R   0.477210 0.299988 0.503420 0.904291
C24   C     C_R   0.975765 0.539274 0.527768 -0.200022
C25   C     C_R   0.023257 0.466206 0.472946 -0.126284
C26   C     C_R   0.140232 0.470864 0.458577 0.531621
C27   C     C_R   0.163737 0.586981 0.573244 0.531504
C28   C     C_R   0.047953 0.605673 0.574526 -0.171797
C29   C     C_R   0.498613 0.495501 0.338929 0.874858
C30   C     C_3   0.393128 0.494292 0.957292 -0.186215
C31   C     C_3   0.592365 0.581740 0.946018 -0.139404
C32   C     C_3   0.583428 0.585542 0.049462 0.414782
C33   C     C_1   0.495712 0.484035 0.250986 -0.214766
C34   C     C_3   0.514036 0.484970 0.916786 -0.019183
H1    H     H_    0.340561 0.534367 0.087252 0.235910
H2    H     H_    0.346799 0.401252 0.072565 0.150931
H3    H     H_    0.611630 0.176619 0.570090 0.227797
H4    H     H_    0.297623 0.183685 0.461854 0.187931
H5    H     H_    0.368177 0.574564 0.946394 0.201590
H6    H     H_    0.818266 0.603939 0.568229 0.158517
H7    H     H_    0.488404 0.318045 0.934317 0.153513
N1    N     N_R   0.207800 0.519340 0.515510 -0.204537
N2    N     N_R   0.792190 0.480660 0.484490 -0.150598
O1    O     O_R   0.421690 0.658830 0.504140 -0.540861
O2    O     O_R   0.609320 0.646410 0.494190 -0.590213
O3    O     O_R   0.406150 0.506210 0.627840 -0.615211
O4    O     O_R   0.593770 0.493790 0.617880 -0.592315
O5    O     O_R   0.390680 0.353590 0.505810 -0.607170
O6    O     O_R   0.578310 0.341170 0.495860 -0.621342
O7    O     O_R   0.406230 0.506210 0.382120 -0.614879
O8    O     O_R   0.593850 0.493790 0.372160 -0.656416
Zn1   Zn    Zn3+2 0.374720 0.508290 0.506640 1.007031
Zn2   Zn    Zn3+2 0.625280 0.491710 0.493360 0.962376
C35   C     C_2   0.305380 0.420657 0.919930 0.416537
H8    H     H_    0.306549 0.336816 0.928434 0.078117
O9    O     O_2   0.231132 0.454930 0.880915 -0.595686
C36   C     C_2   0.687025 0.375244 0.072639 0.420156
H9    H     H_    0.754195 0.411972 0.032260 0.147660
O10   O     O_2   0.710285 0.333284 0.138768 -0.606322
C37   C     C_2   0.724696 0.016564 0.603285 0.402015
H10   H     H_    0.749707 0.975759 0.658995 0.089840
O11   O     O_2   0.779030 0.095503 0.577922 -0.542910
O12   O     O_3   0.251402 0.975298 0.467610 -0.607329
C38   C     C_3   0.157053 0.015146 0.510705 0.115440
H11   H     H_    0.084945 0.960562 0.497912 0.193590
H12   H     H_    0.138227 0.091747 0.483682 0.137670
C39   C     C_3   0.165327 0.020372 0.608071 -0.377715
H13   H     H_    0.192647 0.945435 0.632408 0.273662
H14   H     H_    0.227561 0.083489 0.624397 0.205227
C40   C     C_3   0.054151 0.042678 0.652778 -0.809171
H15   H     H_    0.025890 0.117674 0.629151 0.280081
H16   H     H_    0.063425 0.048360 0.722421 0.260233
H17   H     H_    0.990385 0.978843 0.641411 0.274227
O13   O     O_3   0.725329 0.807134 0.544230 -0.645750
C41   C     C_3   0.822390 0.846844 0.495146 0.107701
H18   H     H_    0.876837 0.780998 0.486670 0.166982
H19   H     H_    0.870306 0.905786 0.531724 0.157669
C42   C     C_3   0.803958 0.890201 0.405270 -0.382541
H20   H     H_    0.757554 0.830239 0.368702 0.216595
H21   H     H_    0.754727 0.960080 0.409144 0.249969
C43   C     C_3   0.914360 0.923407 0.357374 -0.922257
H22   H     H_    0.953756 0.993132 0.387746 0.270597
H23   H     H_    0.899665 0.943886 0.290425 0.269612
H24   H     H_    0.972129 0.859783 0.357491 0.261535
O14   O     O_3   0.367951 0.823923 0.427444 -0.557227
C44   C     C_3   0.407502 0.819939 0.340899 0.088050
H25   H     H_    0.366742 0.749398 0.312774 0.153790
H26   H     H_    0.498694 0.811043 0.332228 0.083348
C45   C     C_3   0.376666 0.916518 0.291800 -0.371306
H27   H     H_    0.286345 0.926271 0.302687 0.257728
H28   H     H_    0.423454 0.987092 0.314894 0.223834
C46   C     C_3   0.403650 0.907192 0.196485 -0.853127
H29   H     H_    0.493377 0.896297 0.183725 0.266599
H30   H     H_    0.383273 0.979619 0.163396 0.281709
H31   H     H_    0.353442 0.840274 0.170984 0.291458
O15   O     O_3   0.183706 0.444684 0.379031 -0.620792
C47   C     C_3   0.205351 0.537277 0.328128 0.103235
H32   H     H_    0.263837 0.518514 0.274267 0.179699
H33   H     H_    0.246018 0.602364 0.364002 0.175898
C48   C     C_3   0.102921 0.577654 0.289336 -0.480335
H34   H     H_    0.061857 0.516711 0.250398 0.224919
H35   H     H_    0.043799 0.600825 0.341006 0.228409
C49   C     C_3   0.136124 0.673174 0.232343 -0.901727
H36   H     H_    0.168364 0.739162 0.271096 0.267750
H37   H     H_    0.063253 0.698057 0.199843 0.276047
H38   H     H_    0.200804 0.654645 0.182745 0.276738
O16   O     O_3   0.236745 0.650244 0.617852 -0.572064
C50   C     C_3   0.218546 0.633504 0.706774 0.159090
H39   H     H_    0.249170 0.557474 0.725547 0.172264
H40   H     H_    0.129556 0.631801 0.728828 0.144392
C51   C     C_3   0.282497 0.721731 0.751929 -0.324017
H41   H     H_    0.371769 0.705909 0.750388 0.192300
H42   H     H_    0.275547 0.796928 0.717644 0.251907
C52   C     C_3   0.238059 0.733862 0.843848 -0.883918
H43   H     H_    0.153306 0.762480 0.845219 0.277940
H44   H     H_    0.293182 0.791287 0.876574 0.272509
H45   H     H_    0.234330 0.658321 0.878644 0.292896
O17   O     O_3   0.998473 0.308159 0.391850 -0.593298
C53   C     C_3   0.995438 0.310400 0.301915 0.123964
H46   H     H_    0.076485 0.343990 0.274170 0.184553
H47   H     H_    0.928895 0.356985 0.277902 0.092928
C54   C     C_3   0.980327 0.198544 0.269686 -0.322205
H48   H     H_    0.047394 0.152201 0.292577 0.224377
H49   H     H_    0.899417 0.161570 0.295064 0.269693
C55   C     C_3   0.984168 0.195941 0.172600 -0.914710
H50   H     H_    0.916941 0.240680 0.148195 0.302589
H51   H     H_    0.972538 0.113825 0.151444 0.269830
H52   H     H_    0.065702 0.229891 0.145465 0.256893
C56   C     C_2   0.005234 0.697147 0.620000 0.376648
H53   H     H_    0.923097 0.693277 0.651620 0.076090
O18   O     O_2   0.062207 0.779025 0.622257 -0.569269
C57   C     C_2   0.764725 0.323792 0.396639 0.506124
H54   H     H_    0.705295 0.346513 0.352450 0.091082
O19   O     O_2   0.770506 0.231251 0.412993 -0.534709
C58   C     C_2   0.709422 0.572219 0.903539 0.582828
H55   H     H_    0.718215 0.569650 0.834483 0.078085
O20   O     O_2   0.794248 0.571515 0.941772 -0.529515
C59   C     C_2   0.559140 0.683930 0.906071 0.328903
H56   H     H_    0.485956 0.686049 0.869759 0.082755
O21   O     O_2   0.615350 0.765664 0.914222 -0.536154
C60   C     C_2   0.527612 0.684720 0.079683 0.375594
H57   H     H_    0.577367 0.748308 0.106617 0.105215
O22   O     O_2   0.431113 0.699252 0.067637 -0.642881
O23   O     O_3   0.694582 0.593988 0.077939 -0.628049
C61   C     C_3   0.706388 0.600025 0.167116 0.082829
H58   H     H_    0.710320 0.520159 0.193480 0.208146
H59   H     H_    0.639235 0.639723 0.202072 0.092241
C62   C     C_3   0.814805 0.659854 0.185765 -0.311339
H60   H     H_    0.884620 0.628394 0.147168 0.253524
H61   H     H_    0.810183 0.743704 0.169008 0.223677
C63   C     C_3   0.834867 0.648638 0.280310 -0.980726
H62   H     H_    0.759360 0.664269 0.320364 0.276385
H63   H     H_    0.903331 0.704605 0.297217 0.278846
H64   H     H_    0.856588 0.567901 0.294607 0.252978
C64   C     C_2   0.654108 0.333129 0.898656 0.392628
H65   H     H_    0.689701 0.264720 0.923859 0.119728
O24   O     O_2   0.691062 0.368280 0.829691 -0.566530
C65   C     C_2   0.505566 0.277849 0.086078 0.447660
H66   H     H_    0.445989 0.280586 0.140163 0.075139
O25   O     O_2   0.526556 0.192314 0.058310 -0.572985

loop_
_geom_bond_atom_site_label_1
_geom_bond_atom_site_label_2
_ccdc_geom_bond_type
C2    H1    S    
O3    Zn1   S    
C64   O24   D    
C51   H41   S    
C42   C43   S    
C62   C63   S    
C3    C6    S    
C43   H24   S    
C20   O17   S    
C43   H22   S    
C58   H55   S    
O14   C44   S    
C15   C19   A    
C30   C35   S    
C62   H61   S    
C18   C19   A    
C60   O22   D    
C61   H58   S    
C42   H21   S    
C36   O10   D    
C20   C25   A    
C15   C16   A    
C29   C33   S    
C50   H39   S    
C37   O11   D    
C28   C56   S    
C63   H64   S    
O17   C53   S    
C46   H29   S    
C49   H36   S    
C43   H23   S    
C21   N2    A    
N2    Zn2   S    
C4    C65   S    
C22   N2    A    
C19   O12   S    
C16   C17   A    
C4    C36   S    
C55   H52   S    
O7    Zn1   S    
O16   C50   S    
C40   H15   S    
C45   H28   S    
O4    Zn2   S    
O1    Zn1   S    
C63   H63   S    
C63   H62   S    
O2    Zn2   S    
O15   C47   S    
C65   O25   D    
C9    C17   A    
C51   C52   S    
C12   O4    A    
C46   H30   S    
C47   H33   S    
C47   H32   S    
C29   O7    A    
C53   H47   S    
C26   O15   S    
C35   O9    D    
C54   H48   S    
O13   C41   S    
C30   C34   S    
C39   H13   S    
C38   C39   S    
C7    C8    T    
C24   C25   A    
C31   C58   S    
C10   C14   A    
C42   H20   S    
C57   H54   S    
C25   C26   A    
C5    C64   S    
C10   C13   A    
C48   C49   S    
C37   H10   S    
C39   H14   S    
C38   H12   S    
C41   H18   S    
C21   C57   S    
C11   C16   A    
C1    O1    A    
C31   C32   S    
C27   O16   S    
C8    C12   S    
C22   H6    S    
C5    C34   S    
C20   C21   A    
C40   H17   S    
C48   H35   S    
C31   C34   S    
C51   H42   S    
C17   H3    S    
C62   H60   S    
C45   C46   S    
C4    C5    S    
C41   H19   S    
C32   C60   S    
C59   O21   D    
C12   O3    A    
C65   H66   S    
C49   H37   S    
C22   C24   A    
C54   H49   S    
C11   C37   S    
C27   C28   A    
C47   C48   S    
C61   C62   S    
C26   N1    A    
C56   H53   S    
C29   O8    A    
C53   C54   S    
C2    H2    S    
C58   O20   D    
C5    H7    S    
C35   H8    S    
C23   O5    A    
C44   H25   S    
C9    C23   S    
C1    C10   S    
C24   C28   A    
C14   O14   S    
O23   C61   S    
C44   C45   S    
C52   H44   S    
C53   H46   S    
C6    C33   T    
C52   H43   S    
C50   C51   S    
C2    C30   S    
C39   C40   S    
C31   C59   S    
C38   H11   S    
C54   C55   S    
C2    C3    S    
C18   H4    S    
C60   H57   S    
C11   C13   A    
C27   N1    A    
C1    O2    A    
C36   H9    S    
C55   H50   S    
O6    Zn2   S    
C61   H59   S    
C48   H34   S    
C7    C34   S    
C50   H40   S    
C30   H5    S    
C49   H38   S    
C44   H26   S    
C46   H31   S    
C3    C32   S    
C41   C42   S    
C32   O23   S    
C52   H45   S    
C23   O6    A    
C59   H56   S    
O12   C38   S    
C9    C18   A    
O5    Zn1   S    
C13   O13   S    
C57   O19   D    
C64   H65   S    
C55   H51   S    
C14   C15   A    
C40   H16   S    
O8    Zn2   S    
C45   H27   S    
C3    C4    S    
N1    Zn1   S    
C56   O18   D    
