data_mof_unit_pretest_354.cif
_audit_creation_date              2013-03-05T15:48:35-0500
_audit_creation_method            fapswitch 2.2
_symmetry_space_group_name_H-M    P1
_symmetry_Int_Tables_number       1
_space_group_crystal_system       triclinic
_cell_length_a                    8.594486
_cell_length_b                    18.960183
_cell_length_c                    19.073405
_cell_angle_alpha                 99.666419
_cell_angle_beta                  94.576985
_cell_angle_gamma                 92.442635
_cell_volume                      3049.20329111

loop_
_atom_site_label
_atom_site_type_symbol
_atom_site_description
_atom_site_fract_x
_atom_site_fract_y
_atom_site_fract_z
_atom_type_partial_charge
P1    P     P_3+3 0.947550 0.663200 0.567530 0.569209
O1    O     O_2   0.118870 0.674530 0.547560 -0.259982
O2    O     O_3   0.870460 0.585330 0.542110 -0.299003
O3    O     O_3   0.354280 0.631750 0.418430 -0.315924
O4    O     O_2   0.287079 0.753642 0.491353 -0.339957
O5    O     O_3   0.013649 0.658980 0.658787 -0.619231
O6    O     O_3   0.296483 0.759742 0.360306 -0.599380
C1    C     C_3   0.477580 0.781215 0.276018 0.050660
H1    H     H_    0.572429 0.789355 0.319798 0.024183
P2    P     P_3+3 0.354660 0.445020 0.336980 0.584266
P3    P     P_3+3 0.901054 0.592323 0.287996 0.542464
O7    O     O_2   0.180880 0.466650 0.327890 -0.291751
O8    O     O_3   0.939000 0.596010 0.380670 -0.341507
O9    O     O_2   0.026475 0.546907 0.251008 -0.336734
O10   O     O_3   0.334801 0.352445 0.307116 -0.552496
O11   O     O_3   0.938372 0.678176 0.269357 -0.507716
C2    C     C_3   0.893958 0.728511 0.325968 0.531499
H2    H     H_    0.975188 0.729610 0.374584 0.125413
H3    H     H_    0.772386 0.715927 0.337996 -0.050612
C3    C     C_3   0.902675 0.802572 0.305205 -0.949412
H4    H     H_    0.025396 0.819168 0.298893 0.310713
H5    H     H_    0.830732 0.802084 0.254109 0.246700
C4    C     C_3   0.745675 0.320010 0.291612 0.598104
H6    H     H_    0.641470 0.335579 0.320163 -0.037253
C5    C     C_3   0.711491 0.246728 0.239032 0.973558
Ba1   Ba    Ba6+2 0.152460 0.535140 0.468980 1.740894
C6    C     C_3   0.976818 0.705043 0.722928 1.273842
C7    C     C_3   0.965769 0.785544 0.716097 -0.024743
H7    H     H_    0.854139 0.804770 0.733084 0.155825
H8    H     H_    0.969120 0.793015 0.661046 0.018721
C8    C     C_3   0.299149 0.314380 0.361126 0.191823
H9    H     H_    0.186285 0.330213 0.381565 0.095828
H10   H     H_    0.393405 0.324470 0.405463 0.080173
C9    C     C_3   0.288352 0.234490 0.327823 0.862323
H11   H     H_    0.398809 0.225798 0.301256 0.010990
P4    P     P_3+3 0.862750 0.336790 0.432410 0.551044
O12   O     O_2   0.691430 0.325420 0.452420 -0.395625
O13   O     O_3   0.939830 0.414660 0.457830 -0.318329
O14   O     O_3   0.456020 0.368240 0.581510 -0.351023
O15   O     O_3   0.875347 0.311467 0.339297 -0.555542
P5    P     P_3+3 0.904149 0.411465 0.711640 0.541813
O16   O     O_3   0.374170 0.535780 0.585810 -0.323645
O17   O     O_3   0.871300 0.403980 0.619270 -0.379134
O18   O     O_2   0.775274 0.456695 0.744776 -0.309315
O19   O     O_3   0.858212 0.328183 0.733983 -0.496966
Ba2   Ba    Ba6+2 0.657710 0.464850 0.530960 1.688125
P6    P     P_3+3 0.388125 0.725031 0.431505 0.474107
C10   C     C_3   0.349579 0.730055 0.294347 1.174672
H12   H     H_    0.397335 0.676365 0.295946 -0.303130
H13   H     H_    0.527168 0.755936 0.226313 0.032417
O20   O     O_3   0.436130 0.464210 0.414140 -0.352287
C11   C     C_3   0.491050 0.713116 0.703283 1.101645
C12   C     C_3   0.459012 0.769934 0.770550 -0.185807
H14   H     H_    0.453927 0.825444 0.760653 0.146722
H15   H     H_    0.341466 0.761084 0.785954 0.177805
P7    P     P_3+3 0.458369 0.559294 0.678022 0.524136
O21   O     O_2   0.629420 0.533310 0.672080 -0.330361
O22   O     O_3   0.510686 0.647363 0.728420 -0.632056
H16   H     H_    0.858344 0.842394 0.347183 0.199622
C13   C     C_3   0.920606 0.274194 0.686541 0.175413
H17   H     H_    0.844001 0.263658 0.635652 0.124110
H18   H     H_    0.041451 0.289144 0.674839 0.034213
C14   C     C_3   0.923971 0.206968 0.721117 0.573471
H19   H     H_    0.816757 0.205081 0.750033 0.127718
P8    P     P_3+3 0.422015 0.274938 0.564338 0.470476
C15   C     C_3   0.438280 0.243545 0.693455 1.197675
H20   H     H_    0.319216 0.263812 0.684632 -0.318969
O23   O     O_2   0.512343 0.247855 0.499812 -0.380060
O24   O     O_3   0.519124 0.235843 0.631334 -0.561279
H21   H     H_    0.342259 0.134001 0.670687 0.115217
C16   C     C_3   0.415274 0.169199 0.714471 0.056626
H22   H     H_    0.350988 0.173485 0.763035 0.110365
C17   C     C_R   0.009942 0.951422 0.516268 -0.123357
C18   C     C_R   0.099479 0.904636 0.551485 0.350722
C19   C     C_R   0.226644 0.044380 0.523421 -0.168293
C20   C     C_R   0.066861 0.022201 0.511061 0.134477
C21   C     C_R   0.276291 0.116152 0.532373 -0.203632
C22   C     C_R   0.170323 0.168667 0.523023 0.069605
C23   C     C_R   0.015486 0.145963 0.495422 0.047297
C24   C     C_R   0.962916 0.072160 0.489892 0.085493
C25   C     C_R   0.217671 0.242378 0.535045 0.170324
C26   C     C_R   0.115137 0.292041 0.514392 -0.485122
C27   C     C_R   0.968549 0.270042 0.478328 0.237435
C28   C     C_R   0.916053 0.196066 0.470503 -0.062607
C29   C     C_R   0.854641 0.927601 0.489372 0.016592
C30   C     C_R   0.799215 0.855070 0.490801 0.037629
C31   C     C_R   0.898367 0.806379 0.519573 -0.154932
C32   C     C_R   0.046458 0.833602 0.548428 -0.175932
H23   H     H_    0.156041 0.347707 0.520490 0.156768
H24   H     H_    0.400103 0.128978 0.544288 0.191361
H25   H     H_    0.118354 0.801837 0.575695 0.253018
C33   C     C_R   0.769399 0.169560 0.436875 -0.000193
C34   C     C_R   0.715080 0.098773 0.434609 -0.212858
C35   C     C_R   0.807864 0.048880 0.462944 0.070568
C36   C     C_R   0.752628 0.976571 0.463436 0.078805
C37   C     C_R   0.595771 0.952444 0.442496 -0.214738
C38   C     C_R   0.642967 0.832285 0.465656 -0.037151
C39   C     C_R   0.542652 0.882582 0.444081 -0.072329
C40   C     C_R   0.589264 0.760778 0.465924 0.087072
C41   C     C_R   0.684341 0.715991 0.499526 -0.275460
C42   C     C_R   0.839519 0.735121 0.525523 0.097943
H26   H     H_    0.692820 0.202729 0.411639 0.202560
H27   H     H_    0.419845 0.869498 0.429499 0.184948
H28   H     H_    0.632055 0.667294 0.511216 0.228076
H29   H     H_    0.316729 0.006763 0.525309 0.162699
H30   H     H_    0.600332 0.084331 0.408172 0.119197
H31   H     H_    0.508601 0.986868 0.426029 0.117724
C43   C     C_R   0.605681 0.528388 0.300055 0.031137
C44   C     C_R   0.458931 0.494087 0.276251 0.202348
C45   C     C_R   0.404198 0.488971 0.204189 -0.216032
C46   C     C_R   0.495133 0.518655 0.156732 0.065069
C47   C     C_R   0.642390 0.553326 0.182111 -0.250850
C48   C     C_R   0.699630 0.556393 0.253607 0.146597
C49   C     C_R   0.411366 0.570405 0.048171 -0.362768
C50   C     C_R   0.346304 0.562712 0.977217 0.697817
C51   C     C_R   0.328340 0.494127 0.934256 0.120938
C52   C     C_R   0.360379 0.433958 0.966011 -0.258287
C53   C     C_R   0.410761 0.441786 0.038666 -0.118083
C54   C     C_R   0.439014 0.510223 0.080105 0.087288
C55   C     C_R   0.137976 0.456294 0.825745 0.427188
C56   C     C_R   0.100216 0.448429 0.751561 0.085228
C57   C     C_R   0.355446 0.504104 0.736258 0.103318
C58   C     C_R   0.395866 0.509123 0.810981 0.224269
C59   C     C_R   0.287007 0.485477 0.855578 -0.266590
C60   C     C_R   0.209588 0.470508 0.707606 -0.545689
H32   H     H_    0.438358 0.623446 0.078426 0.148620
H33   H     H_    0.293086 0.460510 0.184693 0.175778
H34   H     H_    0.346775 0.380717 0.934667 0.126399
H35   H     H_    0.432458 0.394499 0.062093 0.177388
H36   H     H_    0.714722 0.574759 0.145798 0.164465
H37   H     H_    0.175099 0.466946 0.651245 0.196309
O25   O     O_3   0.219089 0.725076 0.243280 -0.573530
C61   C     C_3   0.241033 0.678605 0.179672 -0.184414
H38   H     H_    0.288495 0.627235 0.189324 0.119491
H39   H     H_    0.315307 0.706452 0.146722 0.126015
H40   H     H_    0.125463 0.665131 0.149046 0.193755
O26   O     O_3   0.687808 0.193994 0.282757 -0.710795
C62   C     C_3   0.739388 0.125952 0.254586 -0.125497
H41   H     H_    0.711736 0.110755 0.195968 0.178280
H42   H     H_    0.679788 0.084828 0.279635 0.108082
H43   H     H_    0.867097 0.124535 0.268376 0.181156
N1    N     N_R   0.566988 0.245158 0.190535 0.163497
O27   O     O_R   0.519813 0.186538 0.146732 -0.468983
O28   O     O_R   0.478906 0.299377 0.193440 -0.442035
O29   O     O_3   0.848285 0.233322 0.201264 -0.632319
C63   C     C_3   0.836587 0.246205 0.130076 -0.170464
H44   H     H_    0.773786 0.294711 0.123018 0.186855
H45   H     H_    0.780575 0.198549 0.093569 0.164771
H46   H     H_    0.956272 0.254570 0.114051 0.153622
O30   O     O_3   0.093876 0.704908 0.781371 -0.658227
C64   C     C_3   0.179837 0.642777 0.779837 -0.260313
H47   H     H_    0.292586 0.656867 0.812027 0.243434
H48   H     H_    0.202863 0.618385 0.725820 0.152674
H49   H     H_    0.126222 0.602951 0.807750 0.115006
O31   O     O_3   0.830975 0.680916 0.742261 -0.650289
C65   C     C_3   0.843031 0.621794 0.777500 0.216928
H50   H     H_    0.893712 0.638417 0.833563 0.109505
H51   H     H_    0.901517 0.577871 0.745692 0.065346
H52   H     H_    0.727814 0.600081 0.782409 0.213611
N2    N     N_R   0.084042 0.833843 0.761999 0.262717
O32   O     O_R   0.077259 0.845241 0.830893 -0.305223
O33   O     O_R   0.174567 0.876258 0.734299 -0.330351
O34   O     O_3   0.414106 0.847221 0.267895 -0.555875
C66   C     C_3   0.531147 0.893636 0.249788 -0.148273
H53   H     H_    0.480275 0.945615 0.245056 0.147690
H54   H     H_    0.573728 0.871694 0.197389 0.148474
H55   H     H_    0.630332 0.904568 0.291962 0.124011
O35   O     O_3   0.150106 0.219672 0.280521 -0.597136
C67   C     C_3   0.183044 0.185760 0.211867 -0.048153
H56   H     H_    0.215854 0.226709 0.179681 0.207897
H57   H     H_    0.076430 0.155029 0.184620 0.152438
H58   H     H_    0.274506 0.146116 0.212863 0.104281
O36   O     O_3   0.283551 0.192156 0.381936 -0.654970
C68   C     C_3   0.293536 0.119117 0.352220 -0.242605
H59   H     H_    0.394036 0.110207 0.319076 0.124717
H60   H     H_    0.182162 0.097301 0.320982 0.163502
H61   H     H_    0.312779 0.087761 0.395586 0.163613
O37   O     O_3   0.627964 0.735395 0.673841 -0.647579
C69   C     C_3   0.612614 0.801582 0.648293 -0.274798
H62   H     H_    0.609869 0.848501 0.691044 0.166139
H63   H     H_    0.515170 0.799018 0.606552 0.248967
H64   H     H_    0.718323 0.814769 0.623874 0.145479
N3    N     N_R   0.364313 0.704488 0.648631 0.171659
O38   O     O_R   0.260295 0.751806 0.654152 -0.488462
O39   O     O_R   0.393598 0.672168 0.585809 -0.346745
N4    N     N_R   0.569658 0.768663 0.832522 0.291462
O40   O     O_R   0.517991 0.753926 0.890992 -0.281893
O41   O     O_R   0.709450 0.798455 0.835575 -0.338566
N5    N     N_R   0.919326 0.142868 0.666269 0.197074
O42   O     O_R   0.793224 0.124395 0.623550 -0.416727
O43   O     O_R   0.033850 0.100216 0.664207 -0.375473
O44   O     O_3   0.061783 0.211524 0.768112 -0.669381
C70   C     C_3   0.036707 0.175271 0.825447 -0.251873
H65   H     H_    0.993865 0.118565 0.806241 0.201326
H66   H     H_    0.953472 0.203550 0.860585 0.127813
H67   H     H_    0.149476 0.175070 0.858013 0.169945
O45   O     O_3   0.533726 0.289185 0.747944 -0.588071
C71   C     C_3   0.443657 0.323738 0.800465 -0.223589
H68   H     H_    0.389758 0.285012 0.830335 0.112185
H69   H     H_    0.352571 0.354490 0.776781 0.122625
H70   H     H_    0.522277 0.362062 0.839131 0.217342
O46   O     O_3   0.561845 0.141097 0.728073 -0.613624
C72   C     C_3   0.542506 0.067335 0.730135 0.031578
H71   H     H_    0.511127 0.036687 0.675493 0.189228
H72   H     H_    0.453931 0.055981 0.766920 0.140574
H73   H     H_    0.655633 0.048715 0.750133 0.140406
N6    N     N_R   0.231234 0.930651 0.601181 0.239886
O47   O     O_R   0.363636 0.900600 0.595855 -0.451947
O48   O     O_R   0.217323 0.982728 0.653728 -0.346326
N7    N     N_R   0.543561 0.540408 0.843547 0.227413
O49   O     O_R   0.643953 0.499282 0.868296 -0.383916
O50   O     O_R   0.554235 0.608244 0.870519 -0.352500
O51   O     O_3   0.308767 0.622928 0.949040 -0.581672
C73   C     C_3   0.154483 0.638540 0.963435 -0.182172
H74   H     H_    0.144081 0.652078 0.021782 0.117999
H75   H     H_    0.069727 0.593396 0.938896 0.149699
H76   H     H_    0.122769 0.686089 0.939688 0.225146
O52   O     O_3   0.022496 0.444681 0.869879 -0.585575
C74   C     C_3   0.022243 0.373768 0.883741 -0.060467
H77   H     H_    0.100053 0.338045 0.851741 0.110414
H78   H     H_    0.901221 0.349452 0.872848 0.193814
H79   H     H_    0.056388 0.375059 0.941261 0.118512
N8    N     N_R   0.671338 0.524194 0.369168 0.242554
O53   O     O_R   0.763133 0.473643 0.377998 -0.329534
O54   O     O_R   0.643754 0.571699 0.422966 -0.406896
N9    N     N_R   0.791935 0.375574 0.251019 0.203623
O55   O     O_R   0.691080 0.398782 0.207281 -0.467115
O56   O     O_R   0.939306 0.392019 0.247856 -0.310794

loop_
_geom_bond_atom_site_label_1
_geom_bond_atom_site_label_2
_geom_bond_distance
_ccdc_geom_bond_type
C1    H1    1.105894 S    
C16   O46   1.410508 S    
C21   C22   1.401307 A    
C72   H71   1.111316 S    
O19   C13   1.402631 S    
C34   C35   1.410700 A    
P1    C42   1.928632 S    
N2    O33   1.298509 A    
C36   C37   1.409369 A    
C67   H57   1.107237 S    
C17   C18   1.416341 A    
C46   C47   1.411615 A    
C22   C25   1.414342 A    
C11   N3    1.430428 S    
C7    N2    1.465526 S    
C19   C20   1.408564 A    
O6    C10   1.408371 S    
C49   C50   1.404090 A    
O52   C74   1.413111 S    
C58   C59   1.420975 A    
C12   H14   1.102078 S    
P7    O21   1.576804 D    
C72   H72   1.113600 S    
O17   Ba2   2.806917 S    
C26   H23   1.082437 S    
C13   C14   1.530620 S    
C13   H18   1.114456 S    
C7    H7    1.094562 S    
C9    H11   1.116780 S    
P2    O10   1.748602 S    
N3    O39   1.299731 A    
C29   C30   1.441407 A    
C23   C28   1.419379 A    
C49   H32   1.077974 S    
P3    O9    1.548417 D    
C73   H75   1.113648 S    
C15   O24   1.410654 S    
O45   C71   1.406595 S    
P4    C27   1.881140 S    
C39   H27   1.077295 S    
C58   N7    1.426606 S    
C41   H28   1.074200 S    
C2    C3    1.522105 S    
P6    C40   1.856963 S    
C43   C44   1.399763 A    
C50   O51   1.380647 S    
P2    C44   1.861915 S    
C46   C54   1.482133 S    
P1    O1    1.565004 D    
O16   Ba2   3.009189 S    
C64   H49   1.100227 S    
P5    C56   1.850908 S    
N5    O43   1.299091 A    
C30   C38   1.413550 A    
C53   C54   1.401955 A    
C41   C42   1.396046 A    
O16   P7    1.822602 S    
C45   C46   1.411882 A    
O34   C66   1.409845 S    
O25   C61   1.405530 S    
C70   H66   1.112168 S    
C37   C39   1.388528 A    
C4    O15   1.413719 S    
C61   H40   1.108477 S    
C4    H6    1.110034 S    
C8    H10   1.109545 S    
P4    Ba2   3.448867 S    
H21   C16   1.109073 S    
N9    O55   1.296643 A    
C1    O34   1.413380 S    
C49   C54   1.401028 A    
O12   Ba2   2.849817 S    
O5    C6    1.444356 S    
C33   H26   1.070845 S    
C45   H33   1.083239 S    
C69   H64   1.091839 S    
P2    Ba1   3.432935 S    
C64   H48   1.093088 S    
C15   H20   1.118418 S    
C31   C42   1.447918 A    
C69   H63   1.102129 S    
P5    O17   1.742723 S    
N5    O42   1.300775 A    
C9    O35   1.421252 S    
P2    O20   1.556459 S    
C66   H55   1.111846 S    
C47   C48   1.403171 A    
C38   C40   1.414404 A    
C12   N4    1.460883 S    
C38   C39   1.402622 A    
C63   H45   1.109573 S    
C18   N6    1.431111 S    
C12   H15   1.088375 S    
C6    O31   1.413482 S    
C71   H69   1.108051 S    
C11   O22   1.420683 S    
C72   H73   1.109382 S    
C21   H24   1.078829 S    
N1    O27   1.301304 A    
O46   C72   1.408823 S    
N6    O47   1.297735 A    
C67   H56   1.108240 S    
O37   C69   1.427904 S    
P4    O15   1.773439 S    
N8    O53   1.291061 A    
C74   H77   1.115077 S    
C43   N8    1.408122 S    
C30   C31   1.429039 A    
O11   C2    1.404683 S    
O51   C73   1.409091 S    
Ba2   O20   2.811260 S    
C26   C27   1.398169 A    
C25   C26   1.399397 A    
P1    O5    1.803221 S    
O7    Ba1   2.818901 S    
C13   H17   1.112273 S    
P1    O2    1.574435 S    
O6    P6    1.752512 S    
C43   C48   1.397972 A    
C5    O26   1.423528 S    
N3    O38   1.291058 A    
C1    C10   1.535453 S    
C15   C16   1.538000 S    
C56   C60   1.404212 A    
C34   H30   1.073817 S    
C74   H78   1.109069 S    
C63   H46   1.108699 S    
O4    P6    1.530325 D    
P3    O11   1.745565 S    
C60   H37   1.082175 S    
P8    C25   1.847371 S    
C8    H9    1.108551 S    
C32   H25   1.049124 S    
C64   H47   1.102385 S    
P8    O23   1.534703 D    
C71   H70   1.107748 S    
C2    H2    1.112022 S    
C8    C9    1.536872 S    
O1    Ba1   2.849260 S    
C11   C12   1.581122 S    
C29   C36   1.424745 A    
C3    H16   1.107476 S    
C19   C21   1.387041 A    
C68   H61   1.103016 S    
C17   C29   1.417812 A    
C71   H68   1.109910 S    
P2    O7    1.569619 D    
O14   Ba2   2.806924 S    
C55   O52   1.385301 S    
O35   C67   1.414291 S    
C37   H31   1.076516 S    
C3    H5    1.110174 S    
N7    O49   1.300492 A    
C6    O30   1.441160 S    
N9    O56   1.299979 A    
Ba2   O21   2.819028 S    
C61   H38   1.109500 S    
C17   C20   1.430619 A    
N1    O28   1.298789 A    
O8    Ba1   2.806223 S    
C27   C28   1.434626 A    
Ba1   O20   3.010082 S    
N4    O41   1.298409 A    
P4    O13   1.574405 S    
C62   H43   1.110595 S    
C1    H13   1.113302 S    
O29   C63   1.416007 S    
C6    C7    1.559735 S    
C4    N9    1.467901 S    
C55   C56   1.407597 A    
Ba1   O16   2.812084 S    
N6    O48   1.300236 A    
C63   H44   1.107948 S    
P8    O24   1.754846 S    
C66   H53   1.109446 S    
C51   C59   1.494125 S    
C22   C23   1.413007 A    
C65   H52   1.073221 S    
Ba1   O13   2.832300 S    
C20   C24   1.414688 A    
C14   H19   1.113318 S    
C73   H76   1.109311 S    
O3    Ba1   2.807615 S    
N8    O54   1.291133 A    
O10   C8    1.399009 S    
C62   H42   1.108469 S    
C69   H62   1.103672 S    
O2    Ba1   3.002593 S    
O26   C62   1.415470 S    
O14   P8    1.751623 S    
O2    Ba2   2.832922 S    
N7    O50   1.299046 A    
C40   C41   1.399246 A    
C47   H36   1.083048 S    
O44   C70   1.411458 S    
C57   C60   1.407678 A    
C65   H51   1.108580 S    
C57   C58   1.426047 A    
C7    H8    1.085286 S    
C9    O36   1.411896 S    
C14   N5    1.461268 S    
C52   C53   1.399852 A    
N2    O32   1.301830 A    
C70   H67   1.109143 S    
P3    O8    1.760753 S    
C5    N1    1.484309 S    
C50   C51   1.411071 A    
P1    Ba1   3.448213 S    
C10   H12   1.117896 S    
C73   H74   1.110989 S    
C66   H54   1.112471 S    
C33   C34   1.394642 A    
P5    O18   1.540242 D    
C68   H60   1.111211 S    
P7    O22   1.800675 S    
C51   C52   1.405821 A    
C4    C5    1.572518 S    
C35   C36   1.433405 A    
P3    C48   1.859929 S    
C52   H34   1.079910 S    
C11   O37   1.421680 S    
O13   Ba2   3.003479 S    
C15   O45   1.415357 S    
C62   H41   1.110457 S    
Ba1   Ba2   4.701329 S    
O36   C68   1.414448 S    
C23   C24   1.436061 A    
C2    H3    1.112054 S    
C55   C59   1.409983 A    
C16   H22   1.109102 S    
C53   H35   1.083394 S    
C65   H50   1.110538 S    
C3    H4    1.109344 S    
C31   C32   1.387825 A    
P4    O12   1.565369 D    
C70   H65   1.112745 S    
O31   C65   1.403853 S    
C61   H39   1.108137 S    
P5    O19   1.740841 S    
O30   C64   1.414368 S    
C10   O25   1.414617 S    
C5    O29   1.436975 S    
C67   H58   1.111768 S    
C28   C33   1.400479 A    
C19   H29   1.077341 S    
C18   C32   1.393574 A    
N4    O40   1.300802 A    
C44   C45   1.402854 A    
C24   C35   1.413921 A    
O3    P6    1.752502 S    
C14   O44   1.417614 S    
P7    C57   1.891952 S    
C74   H79   1.108753 S    
C68   H59   1.112637 S    
