data_mof_unit_pretest_1007.cif
_audit_creation_date              2012-12-11T16:10:37-0500
_audit_creation_method            fapswitch 2.2
_symmetry_space_group_name_H-M    P1
_symmetry_Int_Tables_number       1
_space_group_crystal_system       triclinic
_cell_length_a                    26.261243
_cell_length_b                    7.08753
_cell_length_c                    23.752578
_cell_angle_alpha                 90.0
_cell_angle_beta                  101.238276
_cell_angle_gamma                 89.998944
_cell_volume                      4336.23237732

loop_
_atom_site_label
_atom_site_type_symbol
_atom_type_description
_atom_site_fract_x
_atom_site_fract_y
_atom_site_fract_z
_atom_type_partial_charge
O1    O     O_R   0.442540 0.494320 0.443520 -0.530081
O2    O     O_R   0.557460 0.994320 0.556480 -0.530109
O3    O     O_R   0.546640 0.821130 0.446490 -0.543853
O4    O     O_R   0.453360 0.321130 0.553510 -0.543856
C1    C     C_R   0.562786 0.655180 0.433902 0.699171
C2    C     C_R   0.437214 0.155182 0.566098 0.699168
O5    O     O_R   0.442270 0.823840 0.436770 -0.536184
O6    O     O_R   0.557730 0.323840 0.563230 -0.536186
O7    O     O_R   0.452340 0.997060 0.546690 -0.540242
O8    O     O_R   0.547660 0.497060 0.453310 -0.540236
C3    C     C_R   0.423647 0.655540 0.421225 0.722194
C4    C     C_R   0.576353 0.155537 0.578776 0.722180
O9    O     O_3   0.503430 0.661750 0.536080 -0.368925
O10   O     O_3   0.496570 0.161750 0.463920 -0.368898
V1    V     V_3+5 0.499360 0.935480 0.493310 1.454139
V2    V     V_3+5 0.500640 0.435480 0.506690 1.454141
C5    C     C_3   0.754787 0.114057 0.686262 -0.440476
C6    C     C_3   0.245208 0.614259 0.313731 -0.440491
C7    C     C_3   0.709759 0.296500 0.753246 -0.316885
C8    C     C_3   0.290270 0.796394 0.246717 -0.316827
C9    C     C_3   0.762366 0.291042 0.797437 0.344337
C10   C     C_3   0.237665 0.790957 0.202521 0.344334
H1    H     H_    0.833402 0.195092 0.729046 0.162757
H2    H     H_    0.166604 0.695322 0.270918 0.162748
H3    H     H_    0.758733 0.246877 0.662464 0.171990
H4    H     H_    0.241275 0.747169 0.337492 0.171979
H5    H     H_    0.676335 0.300146 0.775490 0.263951
H6    H     H_    0.323698 0.799884 0.224476 0.263939
H7    H     H_    0.707799 0.429089 0.727792 0.127672
H8    H     H_    0.292248 0.929046 0.272142 0.127884
H9    H     H_    0.787653 0.402175 0.784245 0.055067
H10   H     H_    0.212390 0.902181 0.215688 0.055081
C11   C     C_1   0.877549 0.071919 0.876227 -0.110563
C12   C     C_1   0.122454 0.571906 0.123770 -0.110599
C13   C     C_3   0.704836 0.123049 0.712307 0.050017
C14   C     C_3   0.295165 0.623043 0.287692 0.049969
C15   C     C_3   0.804110 0.085602 0.733679 -0.440892
C16   C     C_3   0.195888 0.585770 0.266313 -0.440862
C17   C     C_3   0.790297 0.096746 0.794173 0.054220
C18   C     C_3   0.209708 0.596733 0.205820 0.054211
C19   C     C_3   0.752233 0.930611 0.798257 -0.308756
C20   C     C_3   0.247756 0.430511 0.201770 -0.308845
C21   C     C_3   0.703272 0.939336 0.748606 0.335838
C22   C     C_3   0.296706 0.439220 0.251436 0.335847
C23   C     C_1   0.838562 0.080767 0.839063 0.052628
C24   C     C_1   0.161444 0.580752 0.160931 0.052603
C25   C     C_1   0.658819 0.138920 0.664411 0.046701
C26   C     C_1   0.341181 0.638927 0.335589 0.046737
C27   C     C_1   0.621324 0.147459 0.625273 -0.118250
C28   C     C_1   0.378675 0.647469 0.374728 -0.118182
H11   H     H_    0.705236 0.816986 0.719698 0.057163
H12   H     H_    0.294707 0.316962 0.280367 0.057125
H13   H     H_    0.772571 0.794170 0.795338 0.135025
H14   H     H_    0.227401 0.294115 0.204695 0.134915
H15   H     H_    0.751846 0.996304 0.654780 0.161317
H16   H     H_    0.248130 0.496604 0.345244 0.161328
H17   H     H_    0.821863 0.946140 0.727789 0.172384
H18   H     H_    0.178122 0.446352 0.272230 0.172381
H19   H     H_    0.741340 0.929729 0.840973 0.265320
H20   H     H_    0.258664 0.429551 0.159062 0.265327
C29   C     C_R   0.119967 0.250833 0.879960 -0.145703
C30   C     C_R   0.880031 0.750838 0.120039 -0.145741
H21   H     H_    0.106333 0.381811 0.895252 0.123773
H22   H     H_    0.893663 0.881815 0.104745 0.123786
C31   C     C_R   0.156587 0.259333 0.844284 -0.119240
C32   C     C_R   0.843411 0.759338 0.155715 -0.119229
H23   H     H_    0.169916 0.396486 0.833217 0.136886
H24   H     H_    0.830080 0.896490 0.166781 0.136894
C33   C     C_R   0.175756 0.093408 0.823349 0.018738
C34   C     C_R   0.824245 0.593412 0.176651 0.018731
C35   C     C_R   0.157153 0.918719 0.839028 -0.118498
C36   C     C_R   0.842850 0.418724 0.160973 -0.118487
H25   H     H_    0.170943 0.787866 0.823838 0.139904
H26   H     H_    0.829061 0.287870 0.176165 0.139899
C37   C     C_R   0.120518 0.910159 0.874689 -0.150356
C38   C     C_R   0.879485 0.410163 0.125313 -0.150259
H27   H     H_    0.107359 0.772879 0.885878 0.122242
H28   H     H_    0.892646 0.272884 0.114125 0.122243
C39   C     C_R   0.101385 0.076099 0.895729 -0.054374
C40   C     C_R   0.898615 0.576104 0.104271 -0.054391
N1    N     N_R   0.233468 0.942345 0.765295 -0.271589
N2    N     N_R   0.766534 0.442347 0.234706 -0.271587
N3    N     N_R   0.268444 0.950469 0.731484 -0.275138
N4    N     N_R   0.731558 0.450468 0.268517 -0.275135
C41   C     C_R   0.286492 0.119106 0.716345 0.522169
C42   C     C_R   0.713508 0.619104 0.283655 0.522171
N5    N     N_R   0.267923 0.279230 0.736609 -0.270817
N6    N     N_R   0.732076 0.779230 0.263392 -0.270815
N7    N     N_R   0.232946 0.271107 0.770417 -0.273249
N8    N     N_R   0.767052 0.771109 0.229583 -0.273245
C43   C     C_R   0.214885 0.102477 0.785541 0.523435
C44   C     C_R   0.785115 0.602479 0.214459 0.523439
C45   C     C_R   0.344078 0.302984 0.662711 -0.120302
C46   C     C_R   0.655921 0.802981 0.337289 -0.120301
H29   H     H_    0.330508 0.433771 0.678187 0.140808
H30   H     H_    0.669489 0.933768 0.321814 0.140810
C47   C     C_R   0.380390 0.311680 0.626668 -0.147351
C48   C     C_R   0.619609 0.811676 0.373332 -0.147349
H31   H     H_    0.393579 0.448936 0.615491 0.121580
H32   H     H_    0.606418 0.948932 0.384510 0.121588
C49   C     C_R   0.399152 0.145846 0.605185 -0.046652
C50   C     C_R   0.600848 0.645842 0.394815 -0.046658
C51   C     C_R   0.380686 0.971048 0.621025 -0.143235
C52   C     C_R   0.619316 0.471044 0.378975 -0.143222
H33   H     H_    0.394142 0.840222 0.605439 0.120476
H34   H     H_    0.605860 0.340218 0.394561 0.120480
C53   C     C_R   0.344392 0.962390 0.657093 -0.123022
C54   C     C_R   0.655609 0.462387 0.342907 -0.123016
H35   H     H_    0.331079 0.825209 0.668155 0.134855
H36   H     H_    0.668924 0.325206 0.331845 0.134857
C55   C     C_R   0.325471 0.128243 0.678355 0.018537
C56   C     C_R   0.674530 0.628240 0.321645 0.018536
O11   O     O_R   0.952390 0.727960 0.046760 -0.538638
O12   O     O_R   0.047610 0.227960 0.953240 -0.538631
O13   O     O_R   0.057740 0.395520 0.063240 -0.537153
O14   O     O_R   0.942260 0.895520 0.936760 -0.537159
C57   C     C_R   0.076530 0.563944 0.078517 0.718334
C58   C     C_R   0.923471 0.063947 0.921482 0.718341
O15   O     O_R   0.953370 0.398410 0.053530 -0.542924
O16   O     O_R   0.046630 0.898410 0.946470 -0.542935
O17   O     O_R   0.942530 0.225390 0.943510 -0.522744
O18   O     O_R   0.057470 0.725390 0.056490 -0.522761
C59   C     C_R   0.937090 0.566967 0.065623 0.686986
C60   C     C_R   0.062910 0.066966 0.934377 0.687018
O19   O     O_3   0.996600 0.557860 0.963960 -0.372100
O20   O     O_3   0.003400 0.057860 0.036040 -0.372106
V3    V     V_3+5 0.000630 0.284060 0.006690 1.449887
V4    V     V_3+5 0.999370 0.784060 0.993310 1.449834
S1    S     S_3+6 0.755251 0.360704 0.868774 0.035845
O21   O     O_2   0.722565 0.535608 0.865111 -0.282785
O22   O     O_2   0.730278 0.207916 0.897786 -0.274531
O23   O     O_3   0.814056 0.410101 0.908469 -0.522222
H37   H     H_    0.807341 0.447756 0.946519 0.366239
S2    S     S_3+6 0.244803 0.860421 0.131173 0.035904
O24   O     O_2   0.277436 0.035448 0.134805 -0.282703
O25   O     O_2   0.269851 0.707626 0.102243 -0.274567
O26   O     O_3   0.186004 0.909508 0.091414 -0.522178
H38   H     H_    0.192724 0.946603 0.053319 0.366246
S3    S     S_3+6 0.643883 0.906095 0.775755 0.051371
O27   O     O_2   0.645009 0.019888 0.829350 -0.261326
O28   O     O_2   0.596864 0.961335 0.732039 -0.330952
O29   O     O_3   0.638462 0.676413 0.790948 -0.464751
H39   H     H_    0.606935 0.667731 0.807888 0.400786
S4    S     S_3+6 0.356102 0.405687 0.224322 0.051281
O30   O     O_2   0.355038 0.519454 0.170734 -0.261387
O31   O     O_2   0.403125 0.460726 0.268061 -0.330897
O32   O     O_3   0.361455 0.175971 0.209131 -0.464931
H40   H     H_    0.392944 0.167168 0.192128 0.400844

loop_
_geom_bond_atom_site_label_1
_geom_bond_atom_site_label_2
_ccdc_geom_bond_type
C32   H24   S    
O20   V3    S    
C11   C23   T    
N6    N8    A    
O32   H40   S    
O1    C3    A    
C36   C38   A    
O2    C4    A    
S2    O26   S    
C52   H34   S    
C4    C27   S    
N2    C44   A    
O8    V2    S    
C17   C19   S    
O11   V4    S    
C8    H8    S    
C18   C24   S    
C9    H9    S    
C10   H10   S    
C10   S2    S    
C30   C40   A    
C7    C9    S    
C38   H28   S    
O17   V3    S    
S3    O29   S    
C42   N6    A    
C46   C48   A    
O13   V3    S    
C29   H21   S    
C2    C49   S    
C33   C35   A    
C46   H30   S    
C30   H22   S    
C47   H31   S    
C16   H18   S    
C54   H36   S    
O23   H37   S    
C31   H23   S    
C9    C17   S    
O19   V4    S    
H2    C16   S    
C21   S3    S    
C12   C24   T    
N7    C43   A    
C13   C21   S    
C5    H15   S    
C6    H16   S    
C17   C23   S    
S1    O23   S    
O12   C60   A    
C22   H12   S    
C12   C57   S    
C26   C28   T    
C19   H13   S    
C13   C25   S    
C11   C58   S    
C45   H29   S    
C16   C18   S    
C53   H35   S    
C20   C22   S    
C2    O7    A    
S4    O32   S    
N1    N3    A    
O5    C3    A    
C41   N5    A    
O29   H39   S    
C30   C32   A    
C19   H19   S    
S4    O31   D    
C20   H20   S    
C35   H25   S    
S4    O30   D    
S2    O25   D    
O5    V1    S    
C8    H6    S    
O13   C57   A    
C48   C50   A    
C54   C56   A    
C58   O17   A    
N1    C43   A    
O4    V2    S    
C42   C56   S    
C57   O18   A    
N8    C44   A    
O11   C59   A    
O6    C4    A    
C10   C18   S    
C6    H4    S    
C51   H33   S    
O1    V2    S    
C5    C15   S    
C50   C52   A    
O2    V1    S    
C37   H27   S    
C9    S1    S    
C45   C55   A    
C36   H26   S    
N3    C41   A    
C8    C10   S    
C48   H32   S    
N5    N7    A    
C14   C22   S    
O4    C2    A    
C7    H7    S    
C45   C47   A    
C52   C54   A    
C7    H5    S    
C51   C53   A    
S1    O21   D    
C39   C60   S    
C1    C50   S    
O20   V4    S    
O7    V1    S    
C53   C55   A    
C34   C44   S    
C19   C21   S    
C38   C40   A    
N4    C42   A    
C18   C20   S    
O3    C1    A    
C34   C36   A    
S3    O27   D    
O16   V4    S    
S2    O24   D    
O15   C59   A    
C25   C27   T    
O26   H38   S    
N2    N4    A    
C49   C51   A    
C5    H3    S    
C6    C16   S    
C1    O8    A    
C15   C17   S    
C3    C28   S    
H1    C15   S    
C20   H14   S    
C35   C37   A    
O12   V3    S    
S3    O28   D    
C21   H11   S    
C32   C34   A    
C6    C14   S    
C29   C39   A    
C31   C33   A    
C46   C56   A    
O14   C58   A    
C14   C26   S    
O18   V4    S    
C15   H17   S    
C8    C14   S    
C29   C31   A    
O6    V2    S    
O14   V4    S    
O9    V2    S    
O19   V3    S    
O10   V1    S    
O3    V1    S    
C7    C13   S    
C22   S4    S    
C5    C13   S    
C33   C43   S    
C37   C39   A    
C47   C49   A    
O16   C60   A    
C41   C55   S    
S1    O22   D    
C40   C59   S    
O15   V3    S    
