data_mof_unit_pretest_1365.cif
_audit_creation_date              2012-12-11T17:33:19-0500
_audit_creation_method            fapswitch 2.2
_symmetry_space_group_name_H-M    P1
_symmetry_Int_Tables_number       1
_space_group_crystal_system       triclinic
_cell_length_a                    6.926642
_cell_length_b                    21.838954
_cell_length_c                    22.152647
_cell_angle_alpha                 107.651088
_cell_angle_beta                  91.322451
_cell_angle_gamma                 90.722901
_cell_volume                      3191.75236966

loop_
_atom_site_label
_atom_site_type_symbol
_atom_type_description
_atom_site_fract_x
_atom_site_fract_y
_atom_site_fract_z
_atom_type_partial_charge
O1    O     O_R   0.505730 0.449200 0.552060 -0.548339
O2    O     O_R   0.171560 0.427840 0.423150 -0.525774
O3    O     O_R   0.005630 0.550800 0.447940 -0.544995
C1    C     C_R   0.338754 0.408981 0.399230 0.821953
O4    O     O_R   0.175730 0.441570 0.550050 -0.533336
O5    O     O_R   0.009820 0.564620 0.575740 -0.518543
C2    C     C_R   0.346333 0.428928 0.569443 0.750561
O6    O     O_R   0.501530 0.435380 0.424260 -0.537582
O7    O     O_3   0.340640 0.540360 0.508280 -0.370850
V1    V     V_3+5 0.064080 0.492510 0.498460 1.489095
O8    O     O_R   0.680360 0.572160 0.576850 -0.538024
C3    C     C_R   0.853592 0.589168 0.602150 0.745533
O9    O     O_R   0.676190 0.558430 0.449950 -0.543810
C4    C     C_R   0.844723 0.572217 0.431919 0.689202
V2    V     V_3+5 0.564610 0.507490 0.501540 1.462702
O10   O     O_3   0.837920 0.459640 0.491720 -0.372820
C5    C     C_R   0.096301 0.829532 0.177884 -0.120922
H1    H     H_    0.227663 0.816689 0.198213 0.134522
C6    C     C_R   0.108493 0.867913 0.137322 -0.169681
H2    H     H_    0.249530 0.884084 0.127614 0.126722
C7    C     C_R   0.940304 0.885805 0.110381 -0.053110
C8    C     C_R   0.760019 0.863952 0.125096 -0.168701
H3    H     H_    0.627234 0.876702 0.105546 0.124853
C9    C     C_R   0.748273 0.825622 0.165565 -0.148756
H4    H     H_    0.607788 0.809735 0.176150 0.116314
C10   C     C_R   0.916125 0.808168 0.192262 0.111394
C11   C     C_1   0.903242 0.768628 0.234405 -0.009218
C12   C     C_1   0.893796 0.735689 0.269739 0.042659
C13   C     C_R   0.046237 0.689947 0.350793 0.029292
C14   C     C_R   0.029337 0.649583 0.389549 -0.261131
H5    H     H_    0.152743 0.644462 0.418508 0.114534
C15   C     C_R   0.856274 0.615909 0.391641 -0.035118
C16   C     C_R   0.697514 0.623579 0.354235 -0.178470
H6    H     H_    0.562477 0.598305 0.354687 0.122881
C17   C     C_R   0.712742 0.662692 0.314609 -0.176039
H7    H     H_    0.588954 0.666520 0.285276 0.141033
C18   C     C_R   0.885456 0.696214 0.312275 0.099542
C19   C     C_R   0.885485 0.642027 0.662947 -0.148594
C20   C     C_R   0.911169 0.856785 0.838419 -0.069641
C21   C     C_R   0.691554 0.802054 0.749667 -0.166883
C22   C     C_R   0.740725 0.855210 0.801694 -0.159482
C23   C     C_R   0.034424 0.804243 0.820811 -0.213714
C24   C     C_R   0.984313 0.750145 0.768704 0.092970
C25   C     C_R   0.811190 0.748761 0.732954 0.152144
C26   C     C_R   0.762045 0.694688 0.680653 -0.296741
C27   C     C_R   0.055394 0.643182 0.700708 0.419044
C28   C     C_R   0.103820 0.697054 0.752286 -0.262424
H8    H     H_    0.632275 0.694733 0.652354 0.149351
H9    H     H_    0.558662 0.802407 0.722987 0.120120
H10   H     H_    0.236778 0.697328 0.779158 0.134447
H11   H     H_    0.642570 0.895069 0.813936 0.125287
H12   H     H_    0.164709 0.804364 0.848935 0.121240
C29   C     C_R   0.347771 0.354693 0.338921 -0.164924
C30   C     C_R   0.447261 0.141752 0.163434 -0.137965
C31   C     C_R   0.365685 0.173316 0.275228 -0.246724
C32   C     C_R   0.405661 0.125014 0.218389 0.424979
C33   C     C_R   0.456507 0.207158 0.167129 -0.275899
C34   C     C_R   0.421259 0.255727 0.224588 0.104586
C35   C     C_R   0.377018 0.239312 0.279947 0.023375
C36   C     C_R   0.342405 0.289037 0.337884 -0.090667
C37   C     C_R   0.386104 0.369500 0.282658 0.351484
C38   C     C_R   0.425869 0.320485 0.226752 -0.232573
H13   H     H_    0.320288 0.158058 0.314819 0.115448
H14   H     H_    0.461147 0.333455 0.184736 0.129463
H15   H     H_    0.485330 0.220139 0.124631 0.120422
C39   C     C_R   0.584068 0.175671 0.827241 -0.113558
H16   H     H_    0.713693 0.193662 0.811373 0.142918
C40   C     C_R   0.600871 0.137421 0.867778 -0.184690
H17   H     H_    0.743617 0.126598 0.882165 0.119921
C41   C     C_R   0.434938 0.113318 0.889140 -0.051518
C42   C     C_R   0.252167 0.128719 0.868901 -0.163553
H18   H     H_    0.120932 0.111117 0.884143 0.122090
C43   C     C_R   0.235857 0.166903 0.828455 -0.143207
H19   H     H_    0.093781 0.177958 0.813629 0.119065
C44   C     C_R   0.401524 0.190477 0.807317 0.113086
C45   C     C_1   0.384823 0.230131 0.765615 -0.002467
C46   C     C_1   0.376935 0.263877 0.731157 0.062410
C47   C     C_R   0.542659 0.343509 0.687599 0.001959
C48   C     C_R   0.532970 0.385159 0.648988 -0.059568
C49   C     C_R   0.362174 0.386919 0.612037 -0.118701
C50   C     C_R   0.203175 0.348015 0.616250 -0.163394
H20   H     H_    0.071635 0.347876 0.588874 0.140373
C51   C     C_R   0.210972 0.308123 0.655006 -0.186468
H21   H     H_    0.085167 0.278861 0.656909 0.153142
C52   C     C_R   0.378138 0.305311 0.690672 0.072566
O11   O     O_R   0.294110 0.064720 0.075690 -0.523461
O12   O     O_R   0.619980 0.058360 0.949870 -0.543357
O13   O     O_R   0.785810 0.935300 0.924300 -0.538995
C53   C     C_R   0.449936 0.071590 0.931300 0.680848
O14   O     O_R   0.624080 0.072230 0.076800 -0.545566
O15   O     O_R   0.789930 0.949270 0.052130 -0.543524
C54   C     C_R   0.456920 0.090540 0.101204 0.754372
O16   O     O_R   0.289980 0.050750 0.947860 -0.541712
O17   O     O_3   0.454970 0.959660 0.991750 -0.367991
V3    V     V_3+5 0.731560 0.007480 0.001530 1.402568
O18   O     O_R   0.119360 0.941610 0.050140 -0.534589
C55   C     C_R   0.950953 0.928112 0.068527 0.697512
O19   O     O_R   0.115260 0.927740 0.923220 -0.540754
C56   C     C_R   0.942195 0.910274 0.898372 0.695898
V4    V     V_3+5 0.231020 0.992470 0.998490 1.426294
O20   O     O_3   0.957740 0.040330 0.008250 -0.366519
O21   O     O_3   0.182814 0.592950 0.685349 -0.568879
C57   C     C_3   0.141195 0.549705 0.719912 0.075268
H22   H     H_    0.113646 0.501533 0.685159 0.163664
H23   H     H_    0.011351 0.561723 0.750073 0.144539
C58   C     C_3   0.316122 0.546147 0.761822 -0.323260
H24   H     H_    0.446022 0.535772 0.732396 0.249336
H25   H     H_    0.339837 0.593237 0.798803 0.185877
C59   C     C_3   0.288022 0.493895 0.793728 -0.774558
H26   H     H_    0.163150 0.505024 0.825550 0.229057
H27   H     H_    0.419766 0.491228 0.822261 0.237539
H28   H     H_    0.262047 0.446424 0.757637 0.239855
C60   C     C_2   0.312040 0.272645 0.397574 0.326932
H29   H     H_    0.386472 0.232662 0.406323 0.054742
O22   O     O_2   0.202286 0.303194 0.437445 -0.538563
O23   O     O_3   0.400521 0.433037 0.283688 -0.579527
C61   C     C_3   0.231341 0.448570 0.255156 0.061895
H30   H     H_    0.101280 0.441509 0.281275 0.120715
H31   H     H_    0.215619 0.418376 0.204682 0.124453
C62   C     C_3   0.244484 0.519031 0.257208 -0.293270
H32   H     H_    0.252808 0.549834 0.307349 0.189453
H33   H     H_    0.377762 0.527455 0.233593 0.200332
C63   C     C_3   0.069538 0.537764 0.224075 -0.810358
H34   H     H_    0.057674 0.507256 0.173845 0.227079
H35   H     H_    0.085931 0.588666 0.225034 0.236703
H36   H     H_    0.935232 0.532202 0.248522 0.242501
O24   O     O_3   0.387419 0.060591 0.214434 -0.585294
C64   C     C_3   0.532647 0.043688 0.252269 0.034348
H37   H     H_    0.490185 0.996211 0.257138 0.156726
H38   H     H_    0.544106 0.077568 0.301255 0.117967
C65   C     C_3   0.729357 0.037318 0.220661 -0.327193
H39   H     H_    0.713261 0.004100 0.171790 0.207185
H40   H     H_    0.780029 0.084884 0.217993 0.191075
C66   C     C_3   0.881098 0.011682 0.257304 -0.781072
H41   H     H_    0.902458 0.045216 0.306024 0.229118
H42   H     H_    0.020583 0.007076 0.232761 0.256188
H43   H     H_    0.835957 0.963611 0.259972 0.238249
C67   C     C_2   0.726729 0.339903 0.723308 0.313410
H44   H     H_    0.836727 0.377484 0.731984 0.105469
O25   O     O_2   0.761752 0.294054 0.742113 -0.547473
C68   C     C_2   0.702009 0.426997 0.648183 0.264040
H45   H     H_    0.786848 0.418334 0.605999 0.085419
O26   O     O_2   0.746648 0.471648 0.694991 -0.577521
C69   C     C_2   0.234924 0.723791 0.352581 0.320082
H46   H     H_    0.350075 0.718113 0.384416 0.057070
O27   O     O_2   0.265695 0.758045 0.319234 -0.536450

loop_
_geom_bond_atom_site_label_1
_geom_bond_atom_site_label_2
_ccdc_geom_bond_type
C34   C38   A    
C39   C40   A    
C31   C32   A    
C31   C35   A    
C1    C29   S    
C43   H19   S    
C17   H7    S    
C1    O6    A    
C65   C66   S    
C64   H37   S    
C66   H43   S    
C50   H20   S    
C63   H34   S    
C20   C22   A    
C62   H32   S    
C27   O21   S    
C10   C11   S    
C5    C10   A    
C7    C8    A    
C17   C18   A    
C9    C10   A    
C61   H31   S    
O5    C3    A    
C14   H5    S    
C63   H35   S    
C58   H24   S    
V2    O10   S    
O23   C61   S    
C32   O24   S    
C19   C26   A    
C38   H14   S    
C16   C17   A    
C29   C37   A    
C6    H2    S    
C40   H17   S    
O12   V3    S    
C41   C42   A    
O1    V2    S    
C28   H10   S    
O11   V4    S    
O7    V1    S    
C62   C63   S    
C39   H16   S    
O13   V3    S    
C46   C52   S    
C35   C36   A    
O9    C4    A    
C53   O16   A    
C43   C44   A    
C36   C60   S    
C37   C38   A    
O8    V2    S    
C47   C67   S    
C50   C51   A    
C29   C36   A    
C62   H33   S    
C16   H6    S    
C20   C23   A    
C30   C32   A    
O14   V3    S    
C9    H4    S    
C69   O27   D    
C61   C62   S    
C4    C15   S    
C42   C43   A    
C47   C48   A    
C69   H46   S    
C63   H36   S    
C66   H42   S    
C34   C35   A    
C13   C69   S    
O15   C55   A    
C31   H13   S    
C68   O26   D    
O2    C1    A    
C44   C45   S    
C30   C54   S    
C13   C14   A    
C7    C55   S    
O14   C54   A    
C51   H21   S    
O17   V4    S    
O18   C55   A    
C37   O23   S    
C5    H1    S    
O17   V3    S    
C57   H23   S    
C45   C46   T    
O16   V4    S    
C21   H9    S    
O3    C4    A    
C67   O25   D    
C47   C52   A    
C21   C22   A    
C51   C52   A    
O6    V2    S    
O19   V4    S    
O9    V2    S    
C24   C25   A    
C8    C9    A    
C59   H28   S    
C41   C53   S    
C23   C24   A    
C13   C18   A    
O24   C64   S    
O2    V1    S    
C64   C65   S    
C57   H22   S    
C25   C26   A    
O4    C2    A    
C60   H29   S    
C26   H8    S    
C27   C28   A    
C6    C7    A    
O1    C2    A    
C33   H15   S    
C49   C50   A    
C65   H40   S    
C64   H38   S    
O5    V1    S    
O8    C3    A    
C66   H41   S    
C15   C16   A    
C59   H27   S    
O7    V2    S    
O4    V1    S    
O3    V1    S    
V1    O10   S    
C68   H45   S    
C30   C33   A    
C14   C15   A    
C33   C34   A    
C48   C68   S    
C58   H25   S    
C12   C18   S    
C39   C44   A    
O18   V4    S    
V4    O20   S    
C5    C6    A    
C57   C58   S    
C3    C19   S    
O21   C57   S    
C19   C27   A    
O13   C56   A    
C67   H44   S    
O15   V3    S    
C48   C49   A    
V3    O20   S    
C20   C56   S    
C21   C25   A    
C42   H18   S    
C40   C41   A    
O19   C56   A    
C59   H26   S    
C11   C12   T    
O12   C53   A    
C8    H3    S    
O11   C54   A    
C61   H30   S    
C24   C28   A    
C22   H11   S    
C65   H39   S    
C23   H12   S    
C2    C49   S    
C60   O22   D    
C58   C59   S    
