data_mof_unit_pretest_1938.cif
_audit_creation_date              2012-12-10T19:48:17-0500
_audit_creation_method            fapswitch 2.2
_symmetry_space_group_name_H-M    P1
_symmetry_Int_Tables_number       1
_space_group_crystal_system       tetragonal
_cell_length_a                    18.269618
_cell_length_b                    18.269618
_cell_length_c                    30.116963
_cell_angle_alpha                 90.0
_cell_angle_beta                  90.0
_cell_angle_gamma                 90.0
_cell_volume                      10052.4080424

loop_
_atom_site_label
_atom_site_type_symbol
_atom_type_description
_atom_site_fract_x
_atom_site_fract_y
_atom_site_fract_z
_atom_type_partial_charge
C1    C     C_R   0.141256 0.500000 0.000000 0.933596
C2    C     C_1   0.500000 0.217762 0.000000 -0.192300
C3    C     C_R   0.093832 0.595023 0.773118 -0.213629
C4    C     C_R   0.404977 0.906168 0.226882 -0.213629
C5    C     C_R   0.906168 0.595023 0.226882 -0.213629
C6    C     C_R   0.595023 0.093832 0.226882 -0.213629
C7    C     C_R   0.093832 0.404977 0.226882 -0.213629
C8    C     C_1   0.782238 0.500000 0.000000 -0.192300
C9    C     C_1   0.500000 0.782238 0.000000 -0.192300
C10   C     C_1   0.717762 0.000000 0.500000 -0.192300
C11   C     C_1   0.000000 0.717762 0.500000 -0.192300
C12   C     C_1   0.282237 1.000000 0.500000 -0.192300
C13   C     C_1   1.000000 0.282237 0.500000 -0.192300
C14   C     C_R   0.000000 0.500000 0.086928 0.892248
C15   C     C_R   0.500000 0.000000 0.086928 0.892248
C16   C     C_R   1.000000 0.500000 0.913072 0.892248
C17   C     C_R   0.500000 0.141256 0.000000 0.933596
C18   C     C_R   0.500000 1.000000 0.913072 0.892248
C19   C     C_R   0.500000 1.000000 0.586928 0.892248
C20   C     C_R   1.000000 0.500000 0.586928 0.892248
C21   C     C_R   0.500000 1.000000 0.413072 0.892248
C22   C     C_R   1.000000 0.500000 0.413072 0.892248
C23   C     C_1   0.282564 0.500000 0.000000 -0.182993
C24   C     C_1   0.500000 0.282564 0.000000 -0.182993
C25   C     C_1   0.717436 0.500000 0.000000 -0.182993
C26   C     C_1   0.500000 0.717436 0.000000 -0.182993
C27   C     C_1   0.782564 0.000000 0.500000 -0.182993
C28   C     C_R   0.858744 0.500000 0.000000 0.933596
C29   C     C_1   0.000000 0.782564 0.500000 -0.182993
C30   C     C_1   0.217436 1.000000 0.500000 -0.182993
C31   C     C_1   0.000000 0.217436 0.500000 -0.182993
C32   C     C_R   0.500000 0.359074 0.000000 0.924264
C33   C     C_R   0.640926 0.500000 0.000000 0.924264
C34   C     C_R   0.500000 0.640926 0.000000 0.924264
C35   C     C_R   0.359074 0.500000 0.000000 0.924264
C36   C     C_R   0.000000 0.859074 0.500000 0.924264
C37   C     C_R   0.140926 1.000000 0.500000 0.924264
C38   C     C_R   0.000000 0.140926 0.500000 0.924264
C39   C     C_R   0.500000 0.858744 0.000000 0.933596
C40   C     C_R   0.859074 0.000000 0.500000 0.924264
C41   C     C_R   0.048761 0.454579 0.342545 -0.254310
C42   C     C_R   0.545421 0.048761 0.342545 -0.254310
C43   C     C_R   0.951239 0.545421 0.342545 -0.254310
C44   C     C_R   0.454579 0.951239 0.342545 -0.254310
C45   C     C_R   0.048760 0.545421 0.657455 -0.254310
C46   C     C_R   0.545421 0.951239 0.657455 -0.254310
C47   C     C_R   0.951239 0.454579 0.657455 -0.254310
C48   C     C_R   0.454579 0.048760 0.657455 -0.254310
C49   C     C_R   0.548760 0.954579 0.842545 -0.254310
C50   C     C_R   0.641256 0.000000 0.500000 0.933596
C51   C     C_R   0.045421 0.548760 0.842545 -0.254310
C52   C     C_R   0.451239 0.045421 0.842545 -0.254310
C53   C     C_R   0.954579 0.451239 0.842545 -0.254310
C54   C     C_R   0.548760 0.045421 0.157455 -0.254310
C55   C     C_R   0.045421 0.451239 0.157455 -0.254310
C56   C     C_R   0.451239 0.954579 0.157455 -0.254310
C57   C     C_R   0.954579 0.548760 0.157455 -0.254310
C58   C     C_R   1.000000 0.500000 0.365287 -0.060691
C59   C     C_R   0.500000 0.000000 0.365287 -0.060691
C60   C     C_R   1.000000 0.500000 0.634713 -0.060691
C61   C     C_R   0.000000 0.641256 0.500000 0.933596
C62   C     C_R   0.500000 1.000000 0.634713 -0.060691
C63   C     C_R   0.500000 1.000000 0.865287 -0.060691
C64   C     C_R   1.000000 0.500000 0.865287 -0.060691
C65   C     C_R   0.500000 1.000000 0.134713 -0.060691
C66   C     C_R   0.000000 0.500000 0.134713 -0.060691
C67   C     C_R   0.951701 0.546683 0.296401 0.120458
C68   C     C_R   0.453317 0.951701 0.296401 0.120458
C69   C     C_R   0.048299 0.453317 0.296401 0.120458
C70   C     C_R   0.546683 0.048299 0.296401 0.120458
C71   C     C_R   0.951701 0.453317 0.703599 0.120458
C72   C     C_R   0.358744 1.000000 0.500000 0.933596
C73   C     C_R   0.453317 0.048299 0.703599 0.120458
C74   C     C_R   0.048299 0.546683 0.703599 0.120458
C75   C     C_R   0.546683 0.951701 0.703599 0.120458
C76   C     C_R   0.451701 0.046683 0.796401 0.120458
C77   C     C_R   0.953317 0.451701 0.796401 0.120458
C78   C     C_R   0.548299 0.953317 0.796401 0.120458
C79   C     C_R   0.046683 0.548299 0.796401 0.120458
C80   C     C_R   0.451701 0.953317 0.203599 0.120458
C81   C     C_R   0.953317 0.548299 0.203599 0.120458
C82   C     C_R   0.548299 0.046683 0.203599 0.120458
C83   C     C_R   1.000000 0.358744 0.500000 0.933596
C84   C     C_R   0.046683 0.451701 0.203599 0.120458
C85   C     C_R   0.000000 0.500000 0.273201 0.057764
C86   C     C_R   0.500000 1.000000 0.273201 0.057764
C87   C     C_R   1.000000 0.500000 0.726799 0.057764
C88   C     C_R   0.500000 1.000000 0.726799 0.057764
C89   C     C_R   0.500000 1.000000 0.773201 0.057764
C90   C     C_R   1.000000 0.500000 0.773201 0.057764
C91   C     C_R   0.500000 1.000000 0.226799 0.057764
C92   C     C_R   1.000000 0.500000 0.226799 0.057764
C93   C     C_R   0.904977 0.593832 0.273118 -0.213629
C94   C     C_1   0.217762 0.500000 0.000000 -0.192300
C95   C     C_R   0.406168 0.904977 0.273118 -0.213629
C96   C     C_R   0.095023 0.406168 0.273118 -0.213629
C97   C     C_R   0.593832 0.095023 0.273118 -0.213629
C98   C     C_R   0.904976 0.406168 0.726882 -0.213629
C99   C     C_R   0.406168 0.095023 0.726882 -0.213629
C100  C     C_R   0.095023 0.593832 0.726882 -0.213629
C101  C     C_R   0.593832 0.904976 0.726882 -0.213629
C102  C     C_R   0.404977 0.093832 0.773118 -0.213629
C103  C     C_R   0.906168 0.404977 0.773118 -0.213629
C104  C     C_R   0.595023 0.906168 0.773118 -0.213629
H1    H     H_    0.867899 0.629988 0.290662 0.150712
H2    H     H_    0.870011 0.367899 0.790663 0.150712
H3    H     H_    0.632101 0.870011 0.790663 0.150712
H4    H     H_    0.129989 0.632101 0.790663 0.150712
H5    H     H_    0.367899 0.870011 0.209337 0.150712
H6    H     H_    0.870011 0.632101 0.209337 0.150712
H7    H     H_    0.632101 0.129989 0.209337 0.150712
H8    H     H_    0.129989 0.367899 0.209337 0.150712
H9    H     H_    0.085795 0.419299 0.360854 0.150216
H10   H     H_    0.580701 0.085795 0.360854 0.150216
H11   H     H_    0.914205 0.580701 0.360854 0.150216
H12   H     H_    0.370011 0.867899 0.290662 0.150712
H13   H     H_    0.419299 0.914205 0.360854 0.150216
H14   H     H_    0.085795 0.580701 0.639146 0.150216
H15   H     H_    0.580701 0.914205 0.639146 0.150216
H16   H     H_    0.914205 0.419299 0.639146 0.150216
H17   H     H_    0.419299 0.085795 0.639146 0.150216
H18   H     H_    0.585795 0.919298 0.860854 0.150216
H19   H     H_    0.080701 0.585795 0.860854 0.150216
H20   H     H_    0.414205 0.080701 0.860854 0.150216
H21   H     H_    0.919298 0.414205 0.860854 0.150216
H22   H     H_    0.585795 0.080701 0.139146 0.150216
H23   H     H_    0.132101 0.370011 0.290662 0.150712
H24   H     H_    0.080701 0.414205 0.139146 0.150216
H25   H     H_    0.414205 0.919299 0.139146 0.150216
H26   H     H_    0.919299 0.585795 0.139146 0.150216
H27   H     H_    0.629988 0.132101 0.290662 0.150712
H28   H     H_    0.867899 0.370011 0.709337 0.150712
H29   H     H_    0.370011 0.132101 0.709337 0.150712
H30   H     H_    0.132101 0.629988 0.709337 0.150712
H31   H     H_    0.629988 0.867899 0.709337 0.150712
H32   H     H_    0.367899 0.129989 0.790663 0.150712
O1    O     O_R   0.107310 0.560570 0.000010 -0.620321
O2    O     O_R   0.939430 0.607310 0.500010 -0.620321
O3    O     O_R   0.392690 0.939430 0.500010 -0.620321
O4    O     O_R   0.060570 0.392690 0.500010 -0.620321
O5    O     O_R   0.607310 0.939430 0.499990 -0.620321
O6    O     O_R   0.939430 0.392690 0.499990 -0.620321
O7    O     O_R   0.392690 0.060570 0.499990 -0.620321
O8    O     O_R   0.060570 0.607310 0.499990 -0.620321
O9    O     O_R   0.999950 0.560580 0.066080 -0.623923
O10   O     O_R   0.439420 0.999950 0.066080 -0.623923
O11   O     O_R   0.000050 0.439420 0.066080 -0.623923
O12   O     O_R   0.439430 0.107310 0.000010 -0.620321
O13   O     O_R   0.560580 0.000050 0.066080 -0.623923
O14   O     O_R   0.999950 0.439420 0.933920 -0.623923
O15   O     O_R   0.439420 0.000050 0.933920 -0.623923
O16   O     O_R   0.000050 0.560580 0.933920 -0.623923
O17   O     O_R   0.560580 0.999950 0.933920 -0.623923
O18   O     O_R   0.499950 0.060580 0.566080 -0.623923
O19   O     O_R   0.939420 0.499950 0.566080 -0.623923
O20   O     O_R   0.500050 0.939420 0.566080 -0.623923
O21   O     O_R   0.060580 0.500050 0.566080 -0.623923
O22   O     O_R   0.499950 0.939420 0.433920 -0.623923
O23   O     O_R   0.892690 0.439430 0.000010 -0.620321
O24   O     O_R   0.939420 0.500050 0.433920 -0.623923
O25   O     O_R   0.500050 0.060580 0.433920 -0.623923
O26   O     O_R   0.060580 0.499950 0.433920 -0.623923
O27   O     O_R   0.499980 0.392670 0.037330 -0.619601
O28   O     O_R   0.607330 0.499980 0.037330 -0.619601
O29   O     O_R   0.500020 0.607330 0.037330 -0.619601
O30   O     O_R   0.392670 0.500020 0.037330 -0.619601
O31   O     O_R   0.499980 0.607330 0.962670 -0.619600
O32   O     O_R   0.607330 0.500020 0.962670 -0.619600
O33   O     O_R   0.500020 0.392670 0.962670 -0.619600
O34   O     O_R   0.560570 0.892690 0.000010 -0.620321
O35   O     O_R   0.392670 0.499980 0.962670 -0.619600
O36   O     O_R   0.999980 0.892670 0.537330 -0.619601
O37   O     O_R   0.107330 0.999980 0.537330 -0.619601
O38   O     O_R   0.000020 0.107330 0.537330 -0.619601
O39   O     O_R   0.892670 0.000020 0.537330 -0.619601
O40   O     O_R   0.999980 0.107330 0.462670 -0.619600
O41   O     O_R   0.107330 0.000020 0.462670 -0.619600
O42   O     O_R   0.000020 0.892670 0.462670 -0.619600
O43   O     O_R   0.892670 0.999980 0.462670 -0.619600
O44   O     O_R   0.107310 0.439430 0.999990 -0.620321
O45   O     O_R   0.439430 0.892690 0.999990 -0.620321
O46   O     O_R   0.892690 0.560570 0.999990 -0.620321
O47   O     O_R   0.560570 0.107310 0.999990 -0.620321
O48   O     O_R   0.607310 0.060570 0.500010 -0.620321
Zn1   Zn    Zn3+2 0.000000 0.580890 0.000000 0.964365
Zn2   Zn    Zn3+2 0.500000 0.500000 0.950170 0.969085
Zn3   Zn    Zn3+2 1.000000 1.000000 0.549830 0.969085
Zn4   Zn    Zn3+2 0.000000 0.000000 0.450170 0.969085
Zn5   Zn    Zn3+2 0.419110 0.000000 0.000000 0.964366
Zn6   Zn    Zn3+2 0.000000 0.419110 0.000000 0.964366
Zn7   Zn    Zn3+2 0.580890 0.000000 0.000000 0.964365
Zn8   Zn    Zn3+2 0.500000 0.080890 0.500000 0.964365
Zn9   Zn    Zn3+2 0.919110 0.500000 0.500000 0.964366
Zn10  Zn    Zn3+2 0.500000 0.919110 0.500000 0.964366
Zn11  Zn    Zn3+2 0.080890 0.500000 0.500000 0.964365
Zn12  Zn    Zn3+2 0.500000 0.500000 0.049830 0.969085

loop_
_geom_bond_atom_site_label_1
_geom_bond_atom_site_label_2
_ccdc_geom_bond_type
C10   C27   T    
C45   H14   S    
C72   O7    A    
C32   O33   A    
C45   C60   A    
C49   C63   A    
C20   O19   A    
C51   H19   S    
C21   O22   A    
C67   C85   A    
O20   Zn10  S    
C42   C70   A    
C57   C66   A    
C4    H5    S    
C69   C96   A    
C3    C79   A    
C1    O1    A    
C54   C65   A    
C49   C78   A    
C7    C96   A    
C54   H22   S    
C29   C36   S    
O22   Zn10  S    
O41   Zn4   S    
C46   C62   A    
C6    C82   A    
C44   H13   S    
C15   O13   A    
O30   Zn12  S    
O33   Zn2   S    
C4    C80   A    
C39   O34   A    
C86   C91   A    
C22   O26   A    
C1    O44   A    
C61   O2    A    
C38   O38   A    
O14   Zn6   S    
C5    H6    S    
O36   Zn3   S    
C56   C65   A    
C15   C65   S    
C32   O27   A    
C9    C39   S    
C35   O30   A    
C68   C86   A    
C7    H8    S    
C99   H29   S    
C6    H7    S    
C28   O46   A    
C83   O4    A    
C79   C90   A    
C43   C58   A    
C93   H1    S    
C47   C60   A    
C81   C92   A    
O45   Zn5   S    
C3    C100  A    
C26   C34   S    
C72   O3    A    
C30   C37   S    
C1    C94   S    
O26   Zn11  S    
O7    Zn8   S    
O48   Zn8   S    
O10   Zn5   S    
C74   C87   A    
C20   C60   S    
C34   O29   A    
C27   C40   S    
C56   H25   S    
O3    Zn10  S    
C76   C89   A    
C43   H11   S    
C50   O5    A    
C7    C84   A    
C12   C72   S    
C35   O35   A    
C2    C17   S    
C8    C25   T    
O23   Zn6   S    
O25   Zn8   S    
C46   C75   A    
C85   C92   A    
C100  H30   S    
C9    C26   T    
O40   Zn4   S    
O1    Zn1   S    
C101  H31   S    
C78   C89   A    
C76   C102  A    
C71   C98   A    
C77   C90   A    
O13   Zn7   S    
C68   C95   A    
O32   Zn2   S    
C78   C104  A    
C6    C97   A    
C57   H26   S    
C33   O28   A    
C36   O42   A    
C97   H27   S    
C48   H17   S    
O8    Zn11  S    
C74   C100  A    
O43   Zn4   S    
C52   C76   A    
O31   Zn2   S    
C37   O37   A    
O34   Zn7   S    
C28   O23   A    
C82   C91   A    
C96   H23   S    
O9    Zn1   S    
C45   C74   A    
C19   O20   A    
O46   Zn1   S    
C53   C77   A    
C42   H10   S    
C24   C32   S    
C73   C88   A    
C22   C58   S    
O19   Zn9   S    
C16   C64   S    
O38   Zn3   S    
C15   O10   A    
C4    C95   A    
C5    C81   A    
C83   O6    A    
C17   O47   A    
C61   O8    A    
C38   O40   A    
C14   O9    A    
C95   H12   S    
C17   O12   A    
O28   Zn12  S    
C14   C66   S    
C36   O36   A    
C16   O16   A    
C55   H24   S    
C84   C92   A    
C51   C79   A    
C47   C71   A    
C39   O45   A    
C18   O17   A    
C53   H21   S    
C71   C87   A    
C47   H16   S    
C101  C104  A    
C23   C35   S    
C20   O21   A    
C2    C24   T    
C8    C28   S    
C57   C81   A    
C44   C68   A    
C33   O32   A    
C40   O43   A    
C18   O15   A    
C10   C50   S    
O29   Zn12  S    
C48   C62   A    
C54   C82   A    
C55   C66   A    
C69   C85   A    
C41   C69   A    
O17   Zn7   S    
O2    Zn9   S    
O12   Zn5   S    
C73   C99   A    
O18   Zn8   S    
O37   Zn3   S    
C75   C101  A    
O35   Zn2   S    
C12   C30   T    
O21   Zn11  S    
C48   C73   A    
C13   C31   T    
C50   O48   A    
C51   C64   A    
C41   H9    S    
O16   Zn1   S    
C11   C61   S    
C52   C63   A    
O47   Zn7   S    
C42   C59   A    
C41   C58   A    
C40   O39   A    
C5    C93   A    
C70   C97   A    
C21   C59   S    
C3    H4    S    
C37   O41   A    
C13   C83   S    
C56   C80   A    
C31   C38   S    
C80   C91   A    
O42   Zn4   S    
O11   Zn6   S    
C44   C59   A    
C98   C103  A    
O44   Zn6   S    
C52   H20   S    
C22   O24   A    
O27   Zn12  S    
C49   H18   S    
C14   O11   A    
C53   C64   A    
O6    Zn9   S    
C46   H15   S    
C103  H2    S    
O5    Zn10  S    
C18   C63   S    
O4    Zn11  S    
C102  H32   S    
C77   C103  A    
O39   Zn3   S    
C23   C94   T    
C75   C88   A    
O15   Zn5   S    
C99   C102  A    
C88   C89   A    
C11   C29   T    
C43   C67   A    
C87   C90   A    
C98   H28   S    
C67   C93   A    
C19   O18   A    
C16   O14   A    
C19   C62   S    
C55   C84   A    
C104  H3    S    
C34   O31   A    
C25   C33   S    
O24   Zn9   S    
C21   O25   A    
C70   C86   A    
