data_mof_unit_pretest_1536.cif
_audit_creation_date              2012-12-10T18:20:01-0500
_audit_creation_method            fapswitch 2.2
_symmetry_space_group_name_H-M    P1
_symmetry_Int_Tables_number       1
_space_group_crystal_system       triclinic
_cell_length_a                    41.800446
_cell_length_b                    35.644861
_cell_length_c                    22.028688
_cell_angle_alpha                 91.205319
_cell_angle_beta                  121.500154
_cell_angle_gamma                 89.452042
_cell_volume                      27979.1702322

loop_
_atom_site_label
_atom_site_type_symbol
_atom_type_description
_atom_site_fract_x
_atom_site_fract_y
_atom_site_fract_z
_atom_type_partial_charge
C1    C     C_R   0.427612 0.499979 0.927612 0.776756
C2    C     C_R   0.572388 0.500040 0.072467 0.776916
C3    C     C_R   0.927612 0.999979 0.927612 0.776756
C4    C     C_R   0.072388 0.000040 0.072467 0.776916
C5    C     C_2   0.494110 0.497097 0.811426 0.033544
C6    C     C_2   0.505501 0.503178 0.188338 0.031980
C7    C     C_2   0.994110 0.997097 0.811426 0.033544
C8    C     C_2   0.005501 0.003178 0.188338 0.031980
C9    C     C_R   0.173005 0.500902 0.727042 -0.159740
C10   C     C_R   0.827003 0.501453 0.273043 -0.159788
C11   C     C_R   0.673005 0.000902 0.727042 -0.159740
C12   C     C_R   0.327003 0.001453 0.273043 -0.159787
C13   C     C_R   0.133791 0.500804 0.688199 -0.194169
C14   C     C_R   0.866216 0.501168 0.311870 -0.194546
C15   C     C_R   0.633791 0.000804 0.688199 -0.194170
C16   C     C_R   0.366216 0.001168 0.311870 -0.194546
C17   C     C_R   0.113758 0.500224 0.613283 -0.036587
C18   C     C_R   0.886242 0.500309 0.386726 -0.036605
C19   C     C_R   0.613758 0.000224 0.613283 -0.036587
C20   C     C_R   0.386243 0.000309 0.386726 -0.036606
C21   C     C_R   0.133825 0.499938 0.578152 -0.199104
C22   C     C_R   0.866173 0.499923 0.421828 -0.198892
C23   C     C_R   0.633825 0.999938 0.578152 -0.199104
C24   C     C_R   0.366173 0.999923 0.421828 -0.198892
C25   C     C_R   0.173042 0.500045 0.617133 -0.160285
C26   C     C_R   0.826958 0.500213 0.382863 -0.160372
C27   C     C_R   0.673042 0.000045 0.617133 -0.160284
C28   C     C_R   0.326958 0.000213 0.382863 -0.160372
C29   C     C_R   0.192690 0.500456 0.691604 0.146237
C30   C     C_R   0.807314 0.500916 0.308439 0.146140
C31   C     C_R   0.692690 0.000456 0.691604 0.146237
C32   C     C_R   0.307314 0.000916 0.308439 0.146140
C33   C     C_1   0.233036 0.500315 0.731678 -0.065774
C34   C     C_1   0.766968 0.500895 0.268361 -0.065665
C35   C     C_1   0.733036 0.000315 0.731678 -0.065774
C36   C     C_1   0.266968 0.000895 0.268361 -0.065665
C37   C     C_1   0.266843 0.500178 0.765391 -0.066453
C38   C     C_1   0.733160 0.500783 0.234651 -0.066392
C39   C     C_1   0.766843 0.000178 0.765391 -0.066453
C40   C     C_1   0.233160 0.000783 0.234651 -0.066392
C41   C     C_R   0.326763 0.466076 0.823595 -0.157520
C42   C     C_R   0.673255 0.466517 0.172608 -0.159360
C43   C     C_R   0.826763 0.966076 0.823595 -0.157520
C44   C     C_R   0.173255 0.966517 0.172608 -0.159361
C45   C     C_R   0.498050 0.499430 0.880908 0.855387
C46   C     C_R   0.501958 0.500605 0.119141 0.853880
C47   C     C_R   0.998050 0.999430 0.880908 0.855387
C48   C     C_R   0.001958 0.000605 0.119141 0.853880
C49   C     C_R   0.365986 0.465984 0.863242 -0.197577
C50   C     C_R   0.634036 0.466284 0.133004 -0.190137
C51   C     C_R   0.865986 0.965984 0.863242 -0.197577
C52   C     C_R   0.134036 0.966284 0.133004 -0.190137
C53   C     C_R   0.386110 0.499976 0.885602 -0.038835
C54   C     C_R   0.613890 0.500202 0.114497 -0.038236
C55   C     C_R   0.886110 0.999976 0.885602 -0.038836
C56   C     C_R   0.113890 0.000202 0.114497 -0.038236
C57   C     C_R   0.366156 0.534013 0.867259 -0.189267
C58   C     C_R   0.633823 0.534312 0.136676 -0.197418
C59   C     C_R   0.866156 0.034013 0.867259 -0.189267
C60   C     C_R   0.133823 0.034312 0.136676 -0.197418
C61   C     C_R   0.326948 0.534023 0.827644 -0.160048
C62   C     C_R   0.673036 0.534463 0.176291 -0.158111
C63   C     C_R   0.826948 0.034023 0.827644 -0.160048
C64   C     C_R   0.173036 0.034463 0.176291 -0.158111
C65   C     C_R   0.307188 0.500080 0.805803 0.146317
C66   C     C_R   0.692813 0.500587 0.194254 0.146260
C67   C     C_R   0.807188 0.000080 0.805803 0.146317
C68   C     C_R   0.192813 0.000587 0.194254 0.146260
C69   C     C_R   0.500180 0.692787 0.497093 0.145997
C70   C     C_R   0.000180 0.192787 0.497093 0.145997
C71   C     C_R   0.466102 0.633897 0.464625 -0.192247
C72   C     C_R   0.534126 0.633943 0.532640 -0.190915
C73   C     C_R   0.966102 0.133897 0.464625 -0.192247
C74   C     C_R   0.034126 0.133943 0.532640 -0.190915
C75   C     C_1   0.000204 0.266944 0.496378 -0.065436
C76   C     C_1   0.500204 0.766944 0.496378 -0.065436
C77   C     C_R   0.000169 0.307307 0.496901 0.146177
C78   C     C_R   0.500169 0.807307 0.496901 0.146177
C79   C     C_R   0.499983 0.427740 0.500086 0.868031
C80   C     C_R   0.999983 0.927740 0.500086 0.868031
C81   C     C_R   0.466188 0.673097 0.463655 -0.158723
C82   C     C_R   0.534129 0.673147 0.531588 -0.158832
C83   C     C_R   0.966188 0.173097 0.463655 -0.158723
C84   C     C_R   0.034129 0.173147 0.531588 -0.158832
C85   C     C_R   0.499856 0.502728 0.616968 0.861190
C86   C     C_R   0.500166 0.497581 0.383001 0.865993
C87   C     C_R   0.999856 0.002728 0.616968 0.861190
C88   C     C_R   0.000166 0.997581 0.383001 0.865993
C89   C     C_R   0.500029 0.572366 0.499866 0.792305
C90   C     C_R   0.000029 0.072366 0.499866 0.792305
C91   C     C_R   0.000008 0.427829 0.499461 0.793780
C92   C     C_R   0.500008 0.927829 0.499461 0.793780
C93   C     C_R   0.072244 0.500093 0.572097 0.791862
C94   C     C_R   0.927756 0.500087 0.427901 0.791736
C95   C     C_R   0.572244 0.000093 0.572097 0.791862
C96   C     C_R   0.427756 0.000087 0.427901 0.791735
C97   C     C_R   0.999966 0.572125 0.500535 0.867434
C98   C     C_R   0.499966 0.072125 0.500535 0.867432
C99   C     C_R   0.966082 0.672760 0.458691 0.433204
C100  C     C_R   0.033340 0.673114 0.546918 0.434147
C101  C     C_R   0.466082 0.172760 0.458691 0.433203
C102  C     C_R   0.533340 0.173114 0.546918 0.434149
C103  C     C_R   0.966217 0.633154 0.455748 0.010631
C104  C     C_R   0.033335 0.633532 0.548566 0.009693
C105  C     C_R   0.466217 0.133154 0.455747 0.010630
C106  C     C_R   0.533335 0.133532 0.548566 0.009692
C107  C     C_R   0.999827 0.613510 0.501727 -0.201814
C108  C     C_R   0.499827 0.113510 0.501728 -0.201814
C109  C     C_R   0.999686 0.692505 0.503058 -0.162594
C110  C     C_R   0.499686 0.192505 0.503058 -0.162594
C111  C     C_1   0.999662 0.732953 0.503166 0.075955
C112  C     C_1   0.499662 0.232953 0.503166 0.075955
C113  C     C_R   0.000051 0.386281 0.498395 -0.036660
C114  C     C_R   0.500051 0.886281 0.498395 -0.036661
C115  C     C_1   0.499622 0.266736 0.502882 0.077301
C116  C     C_1   0.999622 0.766736 0.502882 0.077301
C117  C     C_R   0.489051 0.325657 0.438634 0.435267
C118  C     C_R   0.510369 0.327787 0.565124 0.430797
C119  C     C_R   0.989051 0.825657 0.438634 0.435267
C120  C     C_R   0.010369 0.827787 0.565124 0.430797
C121  C     C_R   0.487860 0.365244 0.436945 0.008540
C122  C     C_R   0.512040 0.367370 0.565579 0.010718
C123  C     C_R   0.987860 0.865244 0.436945 0.008540
C124  C     C_R   0.012040 0.867370 0.565579 0.010716
C125  C     C_R   0.499921 0.386238 0.500862 -0.202121
C126  C     C_R   0.999920 0.886239 0.500862 -0.202120
C127  C     C_R   0.499587 0.307175 0.502180 -0.161440
C128  C     C_R   0.999587 0.807175 0.502180 -0.161440
C129  C     C_R   0.000161 0.327270 0.552238 -0.158922
C130  C     C_R   0.000117 0.326699 0.442260 -0.158274
C131  C     C_R   0.500161 0.827270 0.552238 -0.158922
C132  C     C_R   0.500117 0.826699 0.442260 -0.158274
C133  C     C_R   0.000103 0.366476 0.553053 -0.189910
C134  C     C_R   0.000059 0.365950 0.442939 -0.191258
C135  C     C_R   0.500103 0.866476 0.553053 -0.189910
C136  C     C_R   0.500059 0.865950 0.442939 -0.191258
C137  C     C_1   0.500210 0.733134 0.496493 -0.065462
C138  C     C_1   0.000210 0.233134 0.496493 -0.065462
C139  C     C_R   0.500090 0.613877 0.499151 -0.034836
C140  C     C_R   0.000090 0.113877 0.499151 -0.034836
C141  C     C_2   0.527387 0.502733 0.745437 -0.175280
C142  C     C_2   0.472438 0.495536 0.254211 -0.168297
C143  C     C_2   0.027387 0.002733 0.745437 -0.175279
C144  C     C_2   0.972438 0.995536 0.254211 -0.168298
C145  C     C_2   0.498781 0.510578 0.680559 -0.329568
C146  C     C_2   0.501468 0.489740 0.319664 -0.342737
C147  C     C_2   0.998781 0.010578 0.680559 -0.329567
C148  C     C_2   0.001468 0.989740 0.319664 -0.342737
C149  C     C_2   0.524254 0.507556 0.808501 -0.207866
C150  C     C_2   0.476133 0.490471 0.191787 -0.214941
C151  C     C_2   0.024254 0.007556 0.808501 -0.207866
C152  C     C_2   0.976133 0.990471 0.191787 -0.214941
Cu1   Cu    Cu3+1 0.500000 0.537250 0.000000 0.934734
Cu2   Cu    Cu3+1 0.000000 0.037250 0.000000 0.934734
Cu3   Cu    Cu3+1 0.500000 0.462730 0.000000 0.934195
Cu4   Cu    Cu3+1 0.000000 0.962730 0.000000 0.934195
Cu5   Cu    Cu3+1 0.537260 0.499990 0.537250 0.931893
Cu6   Cu    Cu3+1 0.462740 0.499990 0.462750 0.931544
Cu7   Cu    Cu3+1 0.037260 0.999990 0.537250 0.931893
Cu8   Cu    Cu3+1 0.962740 0.999990 0.462750 0.931544
Cu9   Cu    Cu3+1 1.000000 0.500090 0.438970 0.928710
Cu10  Cu    Cu3+1 0.000000 0.500090 0.561030 0.928835
Cu11  Cu    Cu3+1 0.500000 0.000090 0.438970 0.928710
Cu12  Cu    Cu3+1 0.500000 0.000090 0.561030 0.928836
H1    H     H_    0.439746 0.688043 0.436881 0.132341
H2    H     H_    0.560604 0.688132 0.557723 0.132360
H3    H     H_    0.939746 0.188043 0.436881 0.132341
H4    H     H_    0.060604 0.188132 0.557723 0.132360
H5    H     H_    0.311713 0.439639 0.806893 0.132149
H6    H     H_    0.688317 0.440132 0.186262 0.132491
H7    H     H_    0.811713 0.939639 0.806893 0.132149
H8    H     H_    0.188317 0.940132 0.186262 0.132492
H9    H     H_    0.380514 0.439323 0.876321 0.154529
H10   H     H_    0.619532 0.439568 0.116800 0.153899
H11   H     H_    0.880514 0.939323 0.876321 0.154529
H12   H     H_    0.119532 0.939568 0.116799 0.153899
H13   H     H_    0.380804 0.560651 0.883593 0.154088
H14   H     H_    0.619152 0.560894 0.123473 0.154705
H15   H     H_    0.880804 0.060651 0.883593 0.154088
H16   H     H_    0.119152 0.060894 0.123473 0.154705
H17   H     H_    0.312051 0.560502 0.814131 0.132190
H18   H     H_    0.687921 0.560993 0.192836 0.132041
H19   H     H_    0.812051 0.060502 0.814131 0.132190
H20   H     H_    0.187922 0.060993 0.192836 0.132041
H21   H     H_    0.439432 0.619305 0.438324 0.153263
H22   H     H_    0.560760 0.619383 0.559636 0.153561
H23   H     H_    0.939432 0.119305 0.438324 0.153263
H24   H     H_    0.060760 0.119383 0.559636 0.153561
H25   H     H_    0.000197 0.312528 0.594792 0.132333
H26   H     H_    0.000118 0.311493 0.399152 0.131938
H27   H     H_    0.500197 0.812528 0.594792 0.132333
H28   H     H_    0.500118 0.811493 0.399152 0.131938
H29   H     H_    0.553827 0.492635 0.753069 0.173359
H30   H     H_    0.445381 0.504016 0.245683 0.174157
H31   H     H_    0.053827 0.992636 0.753069 0.173359
H32   H     H_    0.945381 0.004016 0.245683 0.174158
H33   H     H_    0.000100 0.381233 0.596520 0.154109
H34   H     H_    0.000022 0.380326 0.400089 0.153021
H35   H     H_    0.500100 0.881233 0.596520 0.154109
H36   H     H_    0.500022 0.880326 0.400089 0.153021
H37   H     H_    0.473468 0.523444 0.673120 0.153839
H38   H     H_    0.527346 0.477985 0.327822 0.154540
H39   H     H_    0.973468 0.023444 0.673120 0.153839
H40   H     H_    0.027346 0.977985 0.327822 0.154540
H41   H     H_    0.549569 0.516805 0.857147 0.132789
H42   H     H_    0.451696 0.479170 0.143859 0.135144
H43   H     H_    0.049569 0.016805 0.857147 0.132789
H44   H     H_    0.951696 0.979170 0.143859 0.135144
H45   H     H_    0.187966 0.501276 0.784703 0.132827
H46   H     H_    0.812047 0.502038 0.215423 0.132951
H47   H     H_    0.687966 0.001276 0.784703 0.132828
H48   H     H_    0.312047 0.002038 0.215423 0.132951
H49   H     H_    0.119210 0.501162 0.716870 0.154112
H50   H     H_    0.880801 0.501624 0.283236 0.154177
H51   H     H_    0.619210 0.001162 0.716870 0.154112
H52   H     H_    0.380801 0.001624 0.283236 0.154177
H53   H     H_    0.119264 0.499622 0.520569 0.155573
H54   H     H_    0.880730 0.499393 0.479375 0.155618
H55   H     H_    0.619264 0.999622 0.520569 0.155573
H56   H     H_    0.380730 0.999393 0.479375 0.155618
H57   H     H_    0.188030 0.499754 0.589193 0.132361
H58   H     H_    0.811967 0.499833 0.410773 0.132400
H59   H     H_    0.688030 0.999754 0.589193 0.132361
H60   H     H_    0.311967 0.999833 0.410773 0.132400
O1    O     O_R   0.445630 0.531460 0.945630 -0.587197
O2    O     O_R   0.554370 0.531460 0.054370 -0.592019
O3    O     O_R   0.945630 0.031460 0.945630 -0.587197
O4    O     O_R   0.054370 0.031460 0.054370 -0.592019
O5    O     O_R   0.054370 0.500090 0.502830 -0.590623
O6    O     O_R   0.945630 0.500090 0.497170 -0.590500
O7    O     O_R   0.554370 0.000090 0.502830 -0.590623
O8    O     O_R   0.445630 0.000090 0.497170 -0.590500
O9    O     O_R   0.054360 0.500110 0.605880 -0.588330
O10   O     O_R   0.945640 0.500110 0.394120 -0.588550
O11   O     O_R   0.554360 0.000110 0.605880 -0.588330
O12   O     O_R   0.445640 0.000110 0.394120 -0.588549
O13   O     O_R   0.000010 0.554450 0.448450 -0.590610
O14   O     O_R   0.999990 0.554450 0.551550 -0.590629
O15   O     O_R   0.500010 0.054450 0.448450 -0.590609
O16   O     O_R   0.499990 0.054450 0.551550 -0.590629
O17   O     O_R   0.445610 0.468530 0.945600 -0.591507
O18   O     O_R   0.554390 0.468530 0.054400 -0.587341
O19   O     O_R   0.945610 0.968530 0.945600 -0.591507
O20   O     O_R   0.054390 0.968530 0.054400 -0.587341
O21   O     O_R   0.500010 0.531460 0.910980 -0.592313
O22   O     O_R   0.499990 0.531460 0.089020 -0.580710
O23   O     O_R   0.000010 0.031460 0.910980 -0.592313
O24   O     O_R   0.999990 0.031460 0.089020 -0.580710
O25   O     O_R   0.499990 0.468530 0.910950 -0.581926
O26   O     O_R   0.500010 0.468530 0.089050 -0.593969
O27   O     O_R   0.999990 0.968530 0.910950 -0.581926
O28   O     O_R   0.000010 0.968530 0.089050 -0.593969
O29   O     O_R   0.531450 0.445630 0.531430 -0.594764
O30   O     O_R   0.468550 0.445630 0.468570 -0.594116
O31   O     O_R   0.031450 0.945630 0.531430 -0.594764
O32   O     O_R   0.968550 0.945630 0.468570 -0.594116
O33   O     O_R   0.531450 0.499990 0.620480 -0.582730
O34   O     O_R   0.468550 0.499990 0.379520 -0.584444
O35   O     O_R   0.031450 0.999990 0.620480 -0.582730
O36   O     O_R   0.968550 0.999990 0.379520 -0.584444
O37   O     O_R   0.468510 0.499990 0.557540 -0.593932
O38   O     O_R   0.531490 0.499990 0.442460 -0.592691
O39   O     O_R   0.968510 0.999990 0.557540 -0.593932
O40   O     O_R   0.031490 0.999990 0.442460 -0.592691
O41   O     O_R   0.531470 0.554350 0.531480 -0.588752
O42   O     O_R   0.468530 0.554350 0.468520 -0.590619
O43   O     O_R   0.031470 0.054350 0.531480 -0.588752
O44   O     O_R   0.968530 0.054350 0.468520 -0.590619
O45   O     O_R   0.999980 0.445730 0.448470 -0.585239
O46   O     O_R   0.000020 0.445730 0.551530 -0.585488
O47   O     O_R   0.499980 0.945730 0.448470 -0.585239
O48   O     O_R   0.500020 0.945730 0.551530 -0.585488
O49   O     O_3   0.933225 0.692051 0.414344 -0.563145
C153  C     C_3   0.917277 0.704921 0.453873 -0.295090
H61   H     H_    0.920440 0.684759 0.494630 0.138664
H62   H     H_    0.886784 0.709185 0.416545 0.187113
H63   H     H_    0.929480 0.732427 0.479922 0.160109
O50   O     O_3   0.066156 0.692773 0.591734 -0.562584
C154  C     C_3   0.082111 0.704822 0.552538 -0.296514
H64   H     H_    0.078656 0.684222 0.510762 0.137967
H65   H     H_    0.112663 0.708967 0.589890 0.187333
H66   H     H_    0.070154 0.732244 0.527777 0.161308
O51   O     O_3   0.433226 0.192051 0.414343 -0.563144
C155  C     C_3   0.417277 0.204921 0.453871 -0.295089
H67   H     H_    0.420438 0.184758 0.494627 0.138666
H68   H     H_    0.386784 0.209186 0.416543 0.187113
H69   H     H_    0.429481 0.232427 0.479923 0.160107
O52   O     O_3   0.566156 0.192773 0.591735 -0.562584
C156  C     C_3   0.582111 0.204822 0.552539 -0.296517
H70   H     H_    0.578656 0.184222 0.510763 0.137967
H71   H     H_    0.612663 0.208967 0.589891 0.187333
H72   H     H_    0.570154 0.232244 0.527779 0.161309
C157  C     C_3   0.930202 0.612250 0.403776 -0.344683
C158  C     C_3   0.910061 0.598269 0.440196 -0.837071
H73   H     H_    0.928157 0.578936 0.483815 0.257384
H74   H     H_    0.901940 0.622147 0.462356 0.249440
H75   H     H_    0.884159 0.583026 0.400641 0.245889
H76   H     H_    0.910599 0.630451 0.359168 0.242377
H77   H     H_    0.936165 0.588204 0.378374 0.197964
C159  C     C_3   0.069363 0.613052 0.600087 -0.344652
C160  C     C_3   0.089795 0.598542 0.563649 -0.836519
H78   H     H_    0.071834 0.578901 0.519082 0.257620
H79   H     H_    0.098114 0.622142 0.542803 0.249627
H80   H     H_    0.115597 0.583480 0.602850 0.245293
H81   H     H_    0.088792 0.631683 0.645442 0.242118
H82   H     H_    0.063338 0.589319 0.624451 0.197453
C161  C     C_3   0.430202 0.112250 0.403776 -0.344684
C162  C     C_3   0.410061 0.098269 0.440194 -0.837071
H83   H     H_    0.428157 0.078936 0.483814 0.257384
H84   H     H_    0.401940 0.122147 0.462355 0.249439
H85   H     H_    0.384159 0.083026 0.400639 0.245889
H86   H     H_    0.410599 0.130451 0.359168 0.242377
H87   H     H_    0.436165 0.088205 0.378373 0.197964
C163  C     C_3   0.569363 0.113052 0.600088 -0.344651
C164  C     C_3   0.589795 0.098542 0.563649 -0.836517
H88   H     H_    0.571834 0.078901 0.519082 0.257620
H89   H     H_    0.598114 0.122142 0.542804 0.249627
H90   H     H_    0.615597 0.083480 0.602850 0.245293
H91   H     H_    0.588792 0.131683 0.645443 0.242117
H92   H     H_    0.563338 0.089319 0.624452 0.197453
O53   O     O_3   0.477856 0.305158 0.376472 -0.562784
C165  C     C_3   0.509758 0.291188 0.376937 -0.297008
H93   H     H_    0.535047 0.309482 0.406670 0.134536
H94   H     H_    0.502970 0.288882 0.321130 0.186557
H95   H     H_    0.516608 0.262595 0.399247 0.165332
O54   O     O_3   0.521720 0.309270 0.627929 -0.563704
C166  C     C_3   0.489762 0.298077 0.629261 -0.296134
H96   H     H_    0.467210 0.319664 0.608254 0.141301
H97   H     H_    0.498338 0.293110 0.685318 0.187650
H98   H     H_    0.478336 0.271276 0.599179 0.158230
O55   O     O_3   0.977856 0.805158 0.376472 -0.562783
C167  C     C_3   0.009757 0.791188 0.376937 -0.297010
H99   H     H_    0.035047 0.809482 0.406670 0.134536
H100  H     H_    0.002970 0.788882 0.321130 0.186557
H101  H     H_    0.016607 0.762595 0.399247 0.165333
O56   O     O_3   0.021720 0.809269 0.627928 -0.563704
C168  C     C_3   0.989762 0.798077 0.629261 -0.296134
H102  H     H_    0.967210 0.819664 0.608255 0.141300
H103  H     H_    0.998338 0.793110 0.685318 0.187650
H104  H     H_    0.978336 0.771277 0.599179 0.158231
C169  C     C_3   0.475210 0.384552 0.367006 -0.336506
C170  C     C_3   0.508676 0.396356 0.361786 -0.843713
H105  H     H_    0.526543 0.416811 0.404868 0.248522
H106  H     H_    0.525902 0.371648 0.365628 0.251386
H107  H     H_    0.498441 0.409531 0.309563 0.247990
H108  H     H_    0.457020 0.365792 0.320816 0.241313
H109  H     H_    0.457590 0.409372 0.360602 0.202181
C171  C     C_3   0.526641 0.388993 0.635505 -0.337277
C172  C     C_3   0.494791 0.405348 0.642402 -0.846697
H110  H     H_    0.476687 0.423924 0.597393 0.256406
H111  H     H_    0.477301 0.382649 0.643908 0.249433
H112  H     H_    0.506889 0.421949 0.692818 0.237948
H113  H     H_    0.543866 0.370783 0.681854 0.240926
H114  H     H_    0.545855 0.411779 0.640769 0.204960
C173  C     C_3   0.975210 0.884552 0.367006 -0.336506
C174  C     C_3   0.008676 0.896356 0.361786 -0.843711
H115  H     H_    0.026543 0.916811 0.404868 0.248522
H116  H     H_    0.025901 0.871648 0.365628 0.251385
H117  H     H_    0.998441 0.909531 0.309563 0.247990
H118  H     H_    0.957020 0.865792 0.320816 0.241313
H119  H     H_    0.957590 0.909372 0.360602 0.202181
C175  C     C_3   0.026641 0.888993 0.635505 -0.337274
C176  C     C_3   0.994791 0.905348 0.642402 -0.846697
H120  H     H_    0.976687 0.923923 0.597394 0.256406
H121  H     H_    0.977301 0.882649 0.643908 0.249432
H122  H     H_    0.006889 0.921949 0.692818 0.237948
H123  H     H_    0.043866 0.870783 0.681854 0.240926
H124  H     H_    0.045855 0.911779 0.640769 0.204960
C177  C     C_3   0.458929 0.478662 0.748970 -0.421062
C178  C     C_3   0.435219 0.455576 0.769046 -0.814445
H125  H     H_    0.451469 0.431350 0.801911 0.266030
H126  H     H_    0.425266 0.473321 0.797910 0.244039
H127  H     H_    0.410192 0.444396 0.719820 0.233610
H128  H     H_    0.440295 0.500952 0.713305 0.204232
H129  H     H_    0.466859 0.459457 0.718702 0.229313
C179  C     C_3   0.538851 0.524629 0.249588 -0.413240
C180  C     C_3   0.561980 0.548348 0.228989 -0.813626
H130  H     H_    0.573203 0.530730 0.202143 0.244654
H131  H     H_    0.544877 0.571669 0.194205 0.267179
H132  H     H_    0.586179 0.560920 0.277865 0.232714
H133  H     H_    0.528813 0.543933 0.276402 0.230666
H134  H     H_    0.558698 0.504105 0.288447 0.202750
C181  C     C_3   0.958929 0.978661 0.748970 -0.421063
C182  C     C_3   0.935219 0.955576 0.769046 -0.814447
H135  H     H_    0.951469 0.931350 0.801911 0.266031
H136  H     H_    0.925266 0.973321 0.797910 0.244039
H137  H     H_    0.910192 0.944396 0.719820 0.233610
H138  H     H_    0.940295 0.000952 0.713305 0.204231
H139  H     H_    0.966859 0.959457 0.718702 0.229313
C183  C     C_3   0.038851 0.024629 0.249588 -0.413240
C184  C     C_3   0.061980 0.048348 0.228989 -0.813626
H140  H     H_    0.073203 0.030730 0.202143 0.244654
H141  H     H_    0.044877 0.071669 0.194205 0.267179
H142  H     H_    0.086179 0.060920 0.277865 0.232714
H143  H     H_    0.028813 0.043933 0.276402 0.230666
H144  H     H_    0.058698 0.004105 0.288447 0.202750

loop_
_geom_bond_atom_site_label_1
_geom_bond_atom_site_label_2
_ccdc_geom_bond_type
C184  H142  S    
C99   C103  A    
Cu5   Cu6   S    
Cu6   O42   S    
C55   C59   A    
C142  C146  D    
C165  H94   S    
C49   H9    S    
C168  H102  S    
C175  H124  S    
C160  H78   S    
Cu1   O1    S    
C155  H67   S    
C183  H144  S    
Cu10  O14   S    
C179  H134  S    
C165  H95   S    
C1    O1    A    
C29   C33   S    
C100  C104  A    
C98   C108  S    
C89   O42   A    
C13   H49   S    
C9    C13   A    
C46   O26   A    
C180  H132  S    
Cu11  O12   S    
C42   H6    S    
C11   C15   A    
C72   C139  A    
C12   C16   A    
Cu7   O40   S    
Cu8   O39   S    
Cu7   O35   S    
O54   C166  S    
C70   C84   A    
C162  H85   S    
C141  C145  D    
C119  C128  A    
C143  C151  S    
C100  C109  A    
C113  C133  A    
C4    C56   S    
Cu12  O11   S    
C101  C105  A    
C130  C134  A    
C41   C49   A    
C25   C29   A    
C173  H119  S    
C23   H55   S    
C104  C159  S    
C63   H19   S    
C27   C31   A    
C28   C32   A    
C15   H51   S    
C87   O35   A    
C92   O47   A    
C62   C66   A    
C170  H105  S    
C94   O10   A    
C123  C126  A    
C98   O15   A    
C7    C181  S    
C101  C110  A    
C41   H5    S    
C170  H107  S    
C174  H117  S    
C17   C21   A    
C48   O28   A    
C19   C23   A    
C44   H8    S    
C84   H4    S    
C10   C30   A    
C173  C174  S    
C16   C20   A    
Cu1   O22   S    
C120  C128  A    
C88   C148  S    
C77   C129  A    
C46   O22   A    
C105  C161  S    
Cu9   O5    S    
C24   H56   S    
C70   C138  S    
C69   C137  S    
C181  C182  S    
C168  H104  S    
Cu11  O15   S    
C159  C160  S    
C2    O2    A    
C160  H80   S    
C133  H33   S    
C80   O32   A    
C27   H59   S    
C155  H69   S    
C181  H139  S    
O56   C168  S    
C75   C138  T    
C182  H136  S    
C90   C140  S    
C57   C61   A    
C119  C123  A    
C97   O13   A    
C59   C63   A    
Cu12  O8    S    
C60   C64   A    
C147  H39   S    
C90   O43   A    
C48   O24   A    
C135  H35   S    
Cu8   O32   S    
C74   C140  A    
C49   C53   A    
C171  C172  S    
C51   C55   A    
C154  H65   S    
C136  H36   S    
C177  H128  S    
C97   C107  S    
Cu3   O18   S    
C61   C65   A    
Cu9   O13   S    
O53   C165  S    
Cu11  O47   S    
C114  C136  A    
C47   O23   A    
C103  C107  A    
C151  H43   S    
C73   C83   A    
C104  C107  A    
C130  H26   S    
C159  H81   S    
C172  H110  S    
C178  H125  S    
C169  H109  S    
Cu4   O27   S    
C5    C149  D    
C76   C137  T    
C80   C126  S    
C64   C68   A    
C8    C152  D    
C85   C145  S    
C153  H61   S    
C109  C111  S    
C175  C176  S    
C120  O56   S    
C161  H86   S    
C118  C122  A    
C102  O52   S    
C157  H76   S    
C1    C53   S    
C181  H138  S    
C69   C82   A    
Cu4   O20   S    
C45   O25   A    
Cu10  O9    S    
C3    C55   S    
C10   H46   S    
Cu5   O33   S    
C129  H25   S    
C26   H58   S    
C132  H28   S    
C47   O27   A    
C28   H60   S    
C44   C52   A    
C79   C125  S    
C21   H53   S    
C71   H21   S    
C162  H84   S    
C30   C34   S    
C167  H99   S    
C150  H42   S    
C10   C14   A    
C166  H97   S    
C43   H7    S    
C83   H3    S    
Cu2   O4    S    
Cu6   O30   S    
C121  C125  A    
C157  C158  S    
C75   C77   S    
C132  C136  A    
C174  H116  S    
C156  H70   S    
C58   H14   S    
C141  H29   S    
C2    O18   A    
C42   C50   A    
C26   C30   A    
C172  H112  S    
C40   C68   S    
C176  H122  S    
C17   C93   S    
C118  C127  A    
C87   O39   A    
C19   C95   S    
C88   O40   A    
C124  C126  A    
C163  H91   S    
C184  H141  S    
C21   C25   A    
C164  H90   S    
C18   C22   A    
C152  H44   S    
C24   C28   A    
C74   C84   A    
C32   C36   S    
Cu8   O44   S    
C144  H32   S    
C13   C17   A    
C85   O33   A    
C122  C125  A    
C155  H68   S    
C146  H38   S    
C57   H13   S    
C142  H30   S    
C106  C108  A    
C6    C179  S    
C86   O38   A    
C165  H93   S    
C89   O41   A    
C110  C112  S    
C180  H131  S    
C123  C173  S    
C64   H20   S    
Cu2   O23   S    
C43   C67   A    
O51   C155  S    
O50   C154  S    
C4    O20   A    
C71   C81   A    
C58   C62   A    
C153  H63   S    
C167  H101  S    
Cu7   O31   S    
C91   O46   A    
C124  C175  S    
Cu9   Cu10  S    
C179  C180  S    
C15   C19   A    
C94   O6    A    
C50   C54   A    
C87   C147  S    
C95   O7    A    
C158  H73   S    
C92   O48   A    
C170  H106  S    
C98   O16   A    
C99   C109  A    
C156  H72   S    
C14   H50   S    
C16   H52   S    
C86   O34   A    
C73   H23   S    
Cu1   O21   S    
C176  H120  S    
C148  H40   S    
C111  C116  T    
C161  H87   S    
Cu1   Cu3   S    
C52   H12   S    
Cu2   Cu4   S    
Cu5   O38   S    
C164  H88   S    
C122  C171  S    
C86   C146  S    
C168  H103  S    
C103  C157  S    
C74   H24   S    
C175  H123  S    
C160  H79   S    
Cu3   O25   S    
C101  O51   S    
C171  H114  S    
C161  C162  S    
Cu1   O2    S    
C158  H75   S    
C2    C54   S    
C149  H41   S    
C183  H143  S    
C53   C57   A    
C179  H133  S    
Cu9   O45   S    
Cu6   O34   S    
C5    C45   S    
C33   C37   T    
C56   C60   A    
C7    C47   S    
C35   C39   T    
O55   C167  S    
C8    C48   S    
C62   H18   S    
Cu7   Cu8   S    
C143  H31   S    
C51   H11   S    
C70   C83   A    
C117  C127  A    
C72   H22   S    
Cu10  O6    S    
C7    C151  D    
Cu3   O17   S    
C113  C134  A    
C31   C35   S    
C102  C110  A    
C45   O21   A    
C3    O3    A    
C82   H2    S    
C159  H82   S    
C100  O50   S    
C76   C78   S    
C178  H126  S    
C169  H108  S    
Cu4   O28   S    
C183  C184  S    
C60   H16   S    
Cu5   O41   S    
C61   H17   S    
C93   O9    A    
C142  C150  S    
C59   H15   S    
C163  C164  S    
C154  H64   S    
C166  H96   S    
C43   C51   A    
C79   O30   A    
C77   C130  A    
C4    O4    A    
C41   C65   A    
C178  H127  S    
C69   C81   A    
C88   O36   A    
C8    C183  S    
C6    C150  D    
C144  C152  S    
C22   C26   A    
C145  H37   S    
C80   O31   A    
C14   C18   A    
C90   O44   A    
Cu11  Cu12  S    
C144  C148  D    
C182  H135  S    
C99   O49   S    
C141  C149  S    
C184  H140  S    
C169  C170  S    
C143  C147  D    
C97   O14   A    
C79   O29   A    
C167  H100  S    
Cu11  O7    S    
C117  O53   S    
Cu7   O43   S    
Cu8   O36   S    
C115  C127  S    
C154  H66   S    
C117  C121  A    
C78   C132  A    
C11   H47   S    
C177  H129  S    
Cu9   O10   S    
C38   C66   S    
C9    H45   S    
C89   C139  S    
Cu12  O16   S    
C114  C135  A    
C25   H57   S    
C23   C27   A    
C153  H62   S    
C9    C29   A    
C5    C177  S    
C173  H118  S    
Cu12  O48   S    
C11   C31   A    
C172  H111  S    
C12   C32   A    
C176  H121  S    
C95   O11   A    
Cu3   O26   S    
C171  H113  S    
C163  H92   S    
C105  C108  A    
C63   C67   A    
C164  H89   S    
C20   C24   A    
C36   C40   T    
C12   H48   S    
C71   C139  A    
C91   C113  S    
C37   C65   S    
C157  H77   S    
C78   C131  A    
Cu4   O19   S    
Cu5   O29   S    
C131  C135  A    
Cu6   O37   S    
O49   C153  S    
C96   O12   A    
C3    O19   A    
C180  H130  S    
C1    O17   A    
Cu2   O24   S    
C18   C94   S    
C129  C133  A    
C44   C68   A    
C182  H137  S    
C162  H83   S    
C106  C163  S    
C177  C178  S    
C54   C58   A    
C93   O5    A    
C134  H34   S    
Cu10  O46   S    
C6    C46   S    
C34   C38   T    
C39   C67   S    
C20   C96   S    
C85   O37   A    
C91   O45   A    
C121  C169  S    
C166  H98   S    
C73   C140  A    
C131  H27   S    
Cu2   O3    S    
C50   H10   S    
O52   C156  S    
C158  H74   S    
C174  H115  S    
C156  H71   S    
C102  C106  A    
C96   O8    A    
C22   H54   S    
C118  O54   S    
C120  C124  A    
C116  C128  S    
C119  O55   S    
C42   C66   A    
C81   H1    S    
C92   C114  S    
C112  C115  T    
C72   C82   A    
C52   C56   A    
