data_mof_unit_pretest_755.cif
_audit_creation_date              2012-12-10T16:47:58-0500
_audit_creation_method            fapswitch 2.2
_symmetry_space_group_name_H-M    P1
_symmetry_Int_Tables_number       1
_space_group_crystal_system       triclinic
_cell_length_a                    7.786418
_cell_length_b                    8.611099
_cell_length_c                    10.62065
_cell_angle_alpha                 91.32376
_cell_angle_beta                  83.347253
_cell_angle_gamma                 93.614363
_cell_volume                      705.818996883

loop_
_atom_site_label
_atom_site_type_symbol
_atom_type_description
_atom_site_fract_x
_atom_site_fract_y
_atom_site_fract_z
_atom_type_partial_charge
C1    C     C_R   0.545395 0.794183 0.494379 0.930048
C2    C     C_2   0.566049 0.956183 0.507353 0.155136
C3    C     C_2   0.770421 0.335923 0.859734 1.028209
C4    C     C_2   0.290529 0.430147 0.934885 0.930771
C5    C     C_2   0.304268 0.989913 0.391692 0.962207
C6    C     C_2   0.438677 0.043756 0.475777 -0.318369
C7    C     C_R   0.494902 0.484870 0.738156 0.912978
C8    C     C_R   0.455045 0.205095 0.501510 0.940305
C9    C     C_R   0.502397 0.498860 0.262197 0.997682
C10   C     C_2   0.581836 0.369831 0.063947 0.363200
C11   C     C_2   0.513424 0.491483 0.128746 -0.359023
C12   C     C_2   0.600569 0.375114 0.925888 -0.126525
C13   C     C_2   0.471810 0.433133 0.868812 -0.330157
Cl1   Cl    Cl    0.650251 0.206351 0.138861 -0.520991
Cl2   Cl    Cl    0.735240 0.019763 0.599356 -0.477716
H1    H     H_    0.474510 0.592616 0.082421 0.161971
H2    H     H_    0.014246 0.379196 0.406960 0.232501
H3    H     H_    0.985900 0.621536 0.592372 0.243046
H4    H     H_    0.002284 0.411457 0.772401 0.356399
H5    H     H_    0.097714 0.310089 0.041560 0.370879
H6    H     H_    0.058778 0.000205 0.350170 0.370492
N1    N     N_2   0.950320 0.457950 0.466680 -0.143451
N2    N     N_2   0.049680 0.542050 0.533320 -0.161648
O1    O     O_R   0.389250 0.738570 0.508180 -0.625456
O2    O     O_R   0.892841 0.454200 0.817380 -0.754827
O3    O     O_2   0.205589 0.544740 0.933699 -0.553002
O4    O     O_R   0.220158 0.297409 0.000115 -0.733618
O5    O     O_2   0.341300 0.902730 0.301327 -0.580604
O6    O     O_R   0.137438 0.043506 0.413912 -0.736220
O7    O     O_R   0.678390 0.711630 0.486820 -0.591444
O8    O     O_R   0.355470 0.513470 0.691600 -0.600185
O9    O     O_R   0.644610 0.486520 0.670240 -0.592022
O10   O     O_R   0.321610 0.288370 0.513180 -0.603389
O11   O     O_R   0.610750 0.261430 0.491820 -0.558938
O12   O     O_R   0.355390 0.513480 0.329760 -0.605620
O13   O     O_R   0.644530 0.486530 0.308400 -0.592612
O14   O     O_2   0.805902 0.199789 0.847817 -0.500472
Zn1   Zn    Zn3+2 0.306940 0.517990 0.514260 1.042678
Zn2   Zn    Zn3+2 0.693060 0.482010 0.485740 1.067786

loop_
_geom_bond_atom_site_label_1
_geom_bond_atom_site_label_2
_ccdc_geom_bond_type
C9    O13   A    
C4    O3    D    
C7    O9    A    
H5    O4    S    
N2    Zn1   S    
C11   H1    S    
O1    Zn1   S    
O10   Zn1   S    
O8    Zn1   S    
C3    O2    S    
O12   Zn1   S    
C8    O11   A    
C2    Cl2   S    
C9    C11   S    
C2    C6    D    
C10   C12   S    
N1    Zn2   S    
C1    O7    A    
O7    Zn2   S    
C5    O6    S    
C8    O10   A    
C5    C6    S    
H4    O2    S    
C7    O8    A    
C10   C11   D    
H3    N2    S    
C5    O5    D    
C7    C13   S    
C4    O4    S    
C12   C13   D    
C3    O14   D    
C1    O1    A    
C1    C2    S    
C10   Cl1   S    
O9    Zn2   S    
C4    C13   S    
C9    O12   A    
H2    N1    S    
N1    N2    D    
C6    C8    S    
C3    C12   S    
H6    O6    S    
O13   Zn2   S    
O11   Zn2   S    
