data_mof_unit_pretest_557.cif
_audit_creation_date              2012-12-10T17:21:41-0500
_audit_creation_method            fapswitch 2.2
_symmetry_space_group_name_H-M    P1
_symmetry_Int_Tables_number       1
_space_group_crystal_system       triclinic
_cell_length_a                    10.742168
_cell_length_b                    10.867726
_cell_length_c                    9.587746
_cell_angle_alpha                 90.683693
_cell_angle_beta                  90.086691
_cell_angle_gamma                 92.094474
_cell_volume                      1118.47210019

loop_
_atom_site_label
_atom_site_type_symbol
_atom_type_description
_atom_site_fract_x
_atom_site_fract_y
_atom_site_fract_z
_atom_type_partial_charge
C1    C     C_R   0.510999 0.262875 0.499209 0.804058
C2    C     C_3   0.878493 0.502103 0.498936 0.165800
C3    C     C_3   0.932766 0.616036 0.580368 -0.388321
C4    C     C_3   0.928937 0.506954 0.347108 -0.365252
C5    C     C_R   0.595113 0.118251 0.750890 0.200300
C6    C     C_R   0.570580 0.062941 0.879269 -0.145979
C7    C     C_R   0.498377 0.954620 0.885881 -0.192535
C8    C     C_R   0.463322 0.892851 0.763204 -0.165112
C9    C     C_R   0.496925 0.941635 0.631706 0.065095
C10   C     C_R   0.540995 0.065266 0.626631 0.039436
C11   C     C_R   0.528198 0.128759 0.498352 -0.188515
C12   C     C_R   0.260047 0.501046 0.499677 0.762487
C13   C     C_R   0.514271 0.059195 0.372549 0.142432
C14   C     C_R   0.502030 0.932613 0.377946 -0.200489
C15   C     C_R   0.491036 0.872260 0.505237 -0.163582
C16   C     C_R   0.663512 0.664941 0.146017 -0.170823
C17   C     C_R   0.741680 0.748003 0.075435 0.151475
C18   C     C_R   0.741465 0.746804 0.930900 -0.230915
C19   C     C_R   0.663076 0.664593 0.858093 -0.181318
C20   C     C_R   0.580256 0.580971 0.926290 0.145999
C21   C     C_R   0.580377 0.580954 0.075767 0.158605
C22   C     C_R   0.423473 0.423279 0.073259 -0.128748
C23   C     C_R   0.493393 0.737551 0.501542 0.789786
C24   C     C_R   0.423242 0.422777 0.924943 0.247714
C25   C     C_R   0.740211 0.501129 0.499850 0.725995
C26   C     C_3   0.068155 0.384131 0.568617 -0.367027
C27   C     C_3   0.924712 0.383981 0.568130 -0.387626
C28   C     C_3   0.076631 0.616410 0.579508 -0.377082
C29   C     C_3   0.071524 0.506085 0.346890 -0.369333
C30   C     C_3   0.122170 0.502049 0.498667 0.148504
Cu1   Cu    Cu3+1 0.499990 0.499990 0.640660 0.929995
Cu2   Cu    Cu3+1 0.500010 0.500010 0.359340 0.914317
H1    H     H_    0.101979 0.379098 0.678054 0.175816
H2    H     H_    0.898518 0.591841 0.295141 0.188220
H3    H     H_    0.114093 0.702155 0.530036 0.152040
H4    H     H_    0.900436 0.702073 0.532496 0.153934
H5    H     H_    0.609822 0.103297 0.973909 0.156702
H6    H     H_    0.475772 0.914623 0.986012 0.161076
H7    H     H_    0.407814 0.808658 0.773539 0.168670
H8    H     H_    0.498327 0.881568 0.280072 0.177016
H9    H     H_    0.360585 0.360995 0.128418 0.130191
H10   H     H_    0.100114 0.300969 0.512144 0.151960
H11   H     H_    0.672591 0.670700 0.255916 0.209290
H12   H     H_    0.802192 0.809882 0.873657 0.147371
H13   H     H_    0.671340 0.671438 0.748359 0.211751
H14   H     H_    0.887701 0.301208 0.510092 0.147398
H15   H     H_    0.890749 0.378531 0.677516 0.183226
H16   H     H_    0.111535 0.616483 0.688883 0.171368
H17   H     H_    0.899416 0.614678 0.690158 0.171330
H18   H     H_    0.109170 0.589966 0.293611 0.176196
H19   H     H_    0.101873 0.424530 0.286139 0.163890
H20   H     H_    0.891328 0.426495 0.285286 0.169895
N1    N     N_R   0.501200 0.501210 0.147910 -0.198034
N2    N     N_R   0.501250 0.501290 0.852040 -0.198756
O1    O     O_R   0.499990 0.319640 0.618810 -0.551233
O2    O     O_R   0.500000 0.319660 0.381240 -0.586366
O3    O     O_R   0.317680 0.499970 0.618790 -0.557336
O4    O     O_R   0.317700 0.499990 0.381210 -0.586644
O5    O     O_R   0.500000 0.680340 0.618760 -0.606568
O6    O     O_R   0.500010 0.680360 0.381190 -0.601063
O7    O     O_R   0.682300 0.500010 0.618790 -0.611998
O8    O     O_R   0.682320 0.500030 0.381210 -0.603607
N3    N     N_3   0.515534 0.112409 0.236526 -0.623017
H21   H     H_    0.434361 0.160699 0.221717 0.235900
H22   H     H_    0.595037 0.169898 0.225790 0.232705
N4    N     N_3   0.691411 0.213302 0.748258 -0.611255
H23   H     H_    0.659557 0.291876 0.798677 0.251525
H24   H     H_    0.716273 0.234434 0.646087 0.204637
N5    N     N_3   0.821929 0.832216 0.153303 -0.616614
H25   H     H_    0.765150 0.892422 0.207655 0.219857
H26   H     H_    0.876564 0.886254 0.085769 0.219454
N6    N     N_3   0.340329 0.339429 0.850952 -0.525689
H27   H     H_    0.360048 0.249924 0.880544 0.199122
H28   H     H_    0.249539 0.356476 0.883031 0.178300

loop_
_geom_bond_atom_site_label_1
_geom_bond_atom_site_label_2
_ccdc_geom_bond_type
C8    C9    A    
N4    H24   S    
N3    H22   S    
C17   N5    S    
C16   C21   A    
Cu1   O7    S    
C19   C20   A    
C1    C11   S    
Cu2   O4    S    
C3    H17   S    
C7    C8    A    
C23   O5    A    
C26   H10   S    
C26   C27   S    
C4    H20   S    
C3    C28   S    
C1    O2    A    
C5    C6    A    
C22   H9    S    
C24   N2    A    
C18   C19   A    
Cu1   O5    S    
N5    H26   S    
C28   H3    S    
C16   C17   A    
C2    C27   S    
C8    H7    S    
C9    C10   A    
C4    C29   S    
C12   O4    A    
C15   C23   S    
N4    H23   S    
C13   C14   A    
C22   N1    A    
C29   H18   S    
C23   O6    A    
C4    H2    S    
C20   N2    A    
C5    N4    S    
C2    C4    S    
C29   C30   S    
C18   H12   S    
C26   H1    S    
Cu1   Cu2   S    
C13   N3    S    
C17   C18   A    
C6    H5    S    
C25   O7    A    
C16   H11   S    
C12   O3    A    
C27   H14   S    
N6    H28   S    
C26   C30   S    
C22   C24   A    
Cu2   O6    S    
Cu2   N1    S    
C24   N6    S    
C29   H19   S    
C27   H15   S    
C28   H16   S    
C12   C30   S    
N6    H27   S    
C19   H13   S    
C6    C7    A    
Cu1   O3    S    
C28   C30   S    
C2    C3    S    
C1    O1    A    
Cu2   O8    S    
C5    C10   A    
C21   N1    A    
C11   C13   A    
C3    H4    S    
C7    H6    S    
C2    C25   S    
C25   O8    A    
Cu1   N2    S    
C9    C15   A    
N5    H25   S    
C10   C11   A    
C14   H8    S    
N3    H21   S    
C20   C21   A    
C14   C15   A    
Cu1   O1    S    
Cu2   O2    S    
