data_mof_unit_pretest_1413.cif
_audit_creation_date              2012-12-10T17:15:48-0500
_audit_creation_method            fapswitch 2.2
_symmetry_space_group_name_H-M    P1
_symmetry_Int_Tables_number       1
_space_group_crystal_system       triclinic
_cell_length_a                    10.137804
_cell_length_b                    10.666397
_cell_length_c                    10.748958
_cell_angle_alpha                 90.317844
_cell_angle_beta                  95.722896
_cell_angle_gamma                 81.720894
_cell_volume                      1144.43407383

loop_
_atom_site_label
_atom_site_type_symbol
_atom_type_description
_atom_site_fract_x
_atom_site_fract_y
_atom_site_fract_z
_atom_type_partial_charge
C1    C     C_R   0.443637 0.513223 0.267086 0.947697
C2    C     C_2   0.490563 0.556963 0.934366 -0.146986
C3    C     C_2   0.068128 0.500548 0.480633 0.171950
C4    C     C_R   0.504100 0.260895 0.516446 0.863232
C5    C     C_2   0.926926 0.511389 0.510643 -0.038843
C6    C     C_R   0.556681 0.495458 0.733416 0.869359
C7    C     C_R   0.499615 0.740872 0.492995 0.867108
C8    C     C_R   0.761966 0.079584 0.576002 0.024022
C9    C     C_R   0.875214 0.010560 0.529913 -0.241929
C10   C     C_R   0.862331 0.906751 0.452217 -0.007594
C11   C     C_R   0.738035 0.862888 0.433317 -0.143627
C12   C     C_R   0.633210 0.045375 0.538404 0.004523
C13   C     C_R   0.625254 0.925610 0.487579 0.059194
C14   C     C_2   0.780443 0.177364 0.672692 0.465467
C15   C     C_2   0.980436 0.842947 0.394708 0.382223
C16   C     C_R   0.510861 0.127633 0.541554 -0.141501
C17   C     C_R   0.389571 0.080039 0.539334 -0.193357
C18   C     C_R   0.387028 0.953609 0.520104 -0.199450
C19   C     C_R   0.503333 0.875476 0.492528 -0.107567
C20   C     C_2   0.411481 0.535788 0.134567 -0.385501
C21   C     C_2   0.509554 0.559750 0.068374 -0.142895
C22   C     C_2   0.589809 0.506856 0.867445 -0.078044
H1    H     H_    0.295647 0.140858 0.547831 0.174412
H2    H     H_    0.609123 0.568252 0.112600 0.212051
H3    H     H_    0.118966 0.503426 0.303090 0.245818
H4    H     H_    0.183959 0.367236 0.386051 0.227666
H5    H     H_    0.697457 0.216214 0.724345 0.022247
H6    H     H_    0.077327 0.874096 0.416295 0.057324
H7    H     H_    0.788076 0.435184 0.858715 0.224742
H8    H     H_    0.718374 0.384317 0.979954 0.195676
H9    H     H_    0.311533 0.528274 0.090799 0.161716
H10   H     H_    0.892694 0.575186 0.583552 0.134914
H11   H     H_    0.875989 0.387662 0.380367 0.195242
H12   H     H_    0.125975 0.596788 0.630196 0.141078
H13   H     H_    0.973419 0.038146 0.553497 0.167040
H14   H     H_    0.729502 0.783353 0.371879 0.199979
H15   H     H_    0.292688 0.918075 0.523879 0.159753
H16   H     H_    0.389471 0.587353 0.890970 0.172297
N1    N     N_2   0.157290 0.551390 0.551110 -0.207533
N2    N     N_2   0.842740 0.448550 0.448960 -0.186267
N3    N     N_3   0.101184 0.436774 0.367731 -0.459884
N4    N     N_3   0.722963 0.464598 0.926048 -0.449237
O1    O     O_R   0.568950 0.489660 0.307530 -0.607454
O2    O     O_2   0.970898 0.756040 0.321493 -0.586856
O3    O     O_R   0.348880 0.522640 0.340350 -0.621309
O4    O     O_R   0.610060 0.300270 0.483590 -0.608946
O5    O     O_R   0.389990 0.333260 0.516410 -0.628341
O6    O     O_R   0.651120 0.477360 0.659650 -0.607451
O7    O     O_R   0.431050 0.510340 0.692470 -0.620256
O8    O     O_R   0.610010 0.666740 0.483590 -0.630660
O9    O     O_R   0.389940 0.699730 0.516410 -0.610068
O10   O     O_2   0.888369 0.214849 0.696448 -0.596926
Zn1   Zn    Zn3+2 0.646940 0.477980 0.478090 0.964832
Zn2   Zn    Zn3+2 0.353060 0.522020 0.521910 0.936917

loop_
_geom_bond_atom_site_label_1
_geom_bond_atom_site_label_2
_ccdc_geom_bond_type
H11   N2    S    
C2    C22   D    
H3    N3    S    
C4    C16   S    
C20   H9    S    
C14   H5    S    
C9    C10   A    
C2    H16   S    
C8    C12   A    
O9    Zn2   S    
C5    H10   S    
C2    C21   S    
C17   C18   A    
C7    O9    A    
C4    O4    A    
C12   C13   A    
C11   C13   A    
C1    O3    A    
C15   H6    S    
C17   H1    S    
C6    O6    A    
O5    Zn2   S    
O4    Zn1   S    
C11   H14   S    
C18   H15   S    
O1    Zn1   S    
O3    Zn2   S    
N2    Zn1   S    
C7    C19   S    
C10   C15   S    
C6    O7    A    
O6    Zn1   S    
H7    N4    S    
C14   O10   D    
C5    N2    D    
N1    Zn2   S    
C16   C17   A    
C10   C11   A    
C13   C19   A    
C3    N1    D    
O7    Zn2   S    
O8    Zn1   S    
C12   C16   A    
C20   C21   D    
H4    N3    S    
C18   C19   A    
C21   H2    S    
C22   N4    S    
C9    H13   S    
C15   O2    D    
C3    N3    S    
C1    C20   S    
C8    C14   S    
C1    O1    A    
H8    N4    S    
H12   N1    S    
C7    O8    A    
C8    C9    A    
C3    C5    S    
C4    O5    A    
C6    C22   S    
