data_mof_unit_pretest_1021.cif
_audit_creation_date              2012-12-11T14:12:27-0500
_audit_creation_method            fapswitch 2.2
_symmetry_space_group_name_H-M    P1
_symmetry_Int_Tables_number       1
_space_group_crystal_system       triclinic
_cell_length_a                    14.635834
_cell_length_b                    16.397144
_cell_length_c                    6.916215
_cell_angle_alpha                 90.020716
_cell_angle_beta                  98.661242
_cell_angle_gamma                 89.807868
_cell_volume                      1640.85636367

loop_
_atom_site_label
_atom_site_type_symbol
_atom_type_description
_atom_site_fract_x
_atom_site_fract_y
_atom_site_fract_z
_atom_type_partial_charge
O1    O     O_R   0.584460 0.414130 0.534110 -0.554235
O2    O     O_R   0.584460 0.585870 0.534110 -0.561207
O3    O     O_R   0.595580 0.585780 0.208030 -0.556580
O4    O     O_R   0.595580 0.414220 0.208030 -0.552330
O5    O     O_R   0.415540 0.585790 0.977250 -0.521752
O6    O     O_R   0.415540 0.414210 0.977250 -0.502959
C1    C     C_R   0.618042 0.613241 0.385536 0.735687
C2    C     C_R   0.618331 0.386913 0.385555 0.782906
O7    O     O_3   0.440930 0.500000 0.319360 -0.291739
V1    V     V_3+5 0.510960 0.500000 0.068030 1.586045
O8    O     O_R   0.404420 0.414140 0.643900 -0.500634
O9    O     O_R   0.404420 0.585860 0.643900 -0.529443
C3    C     C_R   0.379471 0.388088 0.807974 0.839906
C4    C     C_R   0.381906 0.613910 0.806738 0.822459
V2    V     V_3+5 0.489040 0.500000 0.560660 1.647843
O10   O     O_3   0.559070 0.500000 0.859200 -0.413548
H1    H     H_    0.205369 0.820590 0.801589 0.135006
H2    H     H_    0.172883 0.206245 0.803295 0.165534
C5    C     C_2   0.322266 0.688263 0.800989 -0.396317
C6    C     C_2   0.309960 0.320964 0.805893 -0.367095
C7    C     C_2   0.261028 0.703029 0.926748 0.467999
C8    C     C_2   0.270007 0.295634 0.963180 0.417877
C9    C     C_2   0.189391 0.814147 0.100743 -0.228524
C10   C     C_2   0.198797 0.176437 0.104842 -0.253079
C11   C     C_2   0.217538 0.785014 0.935598 -0.243773
C12   C     C_2   0.210459 0.221653 0.946289 -0.237523
H3    H     H_    0.335872 0.736247 0.700923 0.083462
H4    H     H_    0.294131 0.287265 0.669853 0.171035
C13   C     C_2   0.817852 0.762984 0.343497 0.479175
C14   C     C_2   0.821984 0.239725 0.349184 0.462789
C15   C     C_2   0.823625 0.818814 0.491721 -0.403247
C16   C     C_2   0.824436 0.181870 0.492016 -0.388711
C17   C     C_2   0.737997 0.706486 0.296386 -0.198734
C18   C     C_2   0.742404 0.296759 0.299590 -0.210177
C19   C     C_2   0.689583 0.676807 0.430085 -0.357710
C20   C     C_2   0.690205 0.323393 0.430135 -0.348972
H5    H     H_    0.723425 0.683588 0.147554 0.180143
H6    H     H_    0.730864 0.322231 0.152972 0.155843
H7    H     H_    0.706458 0.695673 0.581700 0.148922
H8    H     H_    0.704448 0.302388 0.580508 0.136606
O11   O     O_R   0.925070 0.912130 0.373190 -0.509166
O12   O     O_R   0.925070 0.087870 0.373190 -0.510260
O13   O     O_R   0.914170 0.083600 0.699490 -0.530977
O14   O     O_R   0.914170 0.916400 0.699490 -0.527148
O15   O     O_R   0.094290 0.084740 0.929940 -0.548768
O16   O     O_R   0.094290 0.915260 0.929940 -0.545320
C21   C     C_R   0.894411 0.115668 0.525414 0.813268
C22   C     C_R   0.894141 0.884497 0.525165 0.813941
O17   O     O_3   0.068710 1.000000 0.587750 -0.408492
V3    V     V_3+5 0.998820 0.000000 0.839270 1.591690
O18   O     O_R   0.105520 0.913050 0.263180 -0.543629
O19   O     O_R   0.105520 0.086950 0.263180 -0.536506
C23   C     C_R   0.127703 0.886243 0.098823 0.785887
C24   C     C_R   0.128772 0.112092 0.099044 0.798917
V4    V     V_3+5 0.020980 1.000000 0.346670 1.606040
O20   O     O_3   0.950820 1.000000 0.048230 -0.342351
S1    S     S_3+6 0.215224 0.622092 0.050402 0.075459
O21   O     O_2   0.204403 0.548918 0.918164 -0.296463
O22   O     O_2   0.279694 0.603489 0.235402 -0.311229
O23   O     O_3   0.111021 0.647292 0.106686 -0.460106
H9    H     H_    0.092433 0.599932 0.180502 0.406766
S2    S     S_3+6 0.280928 0.348353 0.191483 0.048134
O24   O     O_2   0.371170 0.323610 0.310376 -0.359859
O25   O     O_2   0.279093 0.438589 0.162426 -0.244382
O26   O     O_3   0.194283 0.325890 0.316922 -0.485082
H10   H     H_    0.138192 0.349124 0.237784 0.399801
H11   H     H_    0.206450 0.780918 0.237332 0.181942
H12   H     H_    0.239870 0.188139 0.245988 0.185076
S3    S     S_3+6 0.905693 0.750603 0.194803 0.018352
O27   O     O_2   0.895835 0.816128 0.041187 -0.355099
O28   O     O_2   0.999282 0.756258 0.317840 -0.315085
O29   O     O_3   0.895185 0.658835 0.084681 -0.494362
H13   H     H_    0.922355 0.665519 0.962862 0.384459
S4    S     S_3+6 0.914268 0.253885 0.212644 0.012758
O30   O     O_2   0.005345 0.243647 0.343368 -0.315851
O31   O     O_2   0.907478 0.192106 0.050538 -0.357319
O32   O     O_3   0.909568 0.348226 0.115630 -0.476480
H14   H     H_    0.871473 0.342977 0.985137 0.341396
H15   H     H_    0.771139 0.819836 0.586933 0.108206
H16   H     H_    0.769654 0.179353 0.581355 0.100897

loop_
_geom_bond_atom_site_label_1
_geom_bond_atom_site_label_2
_ccdc_geom_bond_type
V4    O20   S    
O1    C2    A    
O2    C1    A    
H2    C12   S    
O4    C2    A    
O32   H14   S    
S4    O31   D    
C5    C7    D    
C10   C12   D    
O3    C1    A    
C14   S4    S    
S1    O22   D    
C8    S2    S    
C10   C24   S    
V2    O10   S    
C13   C17   S    
C2    C20   S    
C9    H11   S    
S3    O28   D    
O11   V4    S    
S2    O25   D    
O8    V2    S    
S4    O32   S    
O1    V2    S    
C5    H3    S    
O7    V1    S    
O18   V4    S    
C3    C6    S    
O19   V4    S    
O19   C24   A    
C9    C23   S    
C13   S3    S    
S4    O30   D    
C14   C18   S    
C20   H8    S    
S1    O23   S    
C6    H4    S    
O17   V4    S    
C17   H5    S    
O23   H9    S    
O18   C23   A    
S3    O29   S    
C19   H7    S    
C7    S1    S    
S2    O24   D    
O12   V4    S    
C16   H16   S    
O9    V2    S    
O2    V2    S    
O5    C4    A    
O9    C4    A    
O15   C24   A    
O26   H10   S    
C15   C22   S    
C16   C21   S    
O4    V1    S    
O14   V3    S    
C7    C11   S    
S2    O26   S    
C18   H6    S    
C1    C19   S    
C4    C5    S    
C6    C8    D    
O29   H13   S    
O6    V1    S    
O13   V3    S    
C15   H15   S    
O16   V3    S    
H1    C11   S    
O7    V2    S    
O5    V1    S    
C13   C15   D    
O3    V1    S    
V1    O10   S    
O6    C3    A    
C14   C16   D    
O8    C3    A    
S1    O21   D    
O15   V3    S    
O16   C23   A    
C17   C19   D    
O11   C22   A    
C18   C20   D    
O12   C21   A    
C9    C11   D    
S3    O27   D    
V3    O20   S    
C10   H12   S    
O17   V3    S    
C8    C12   S    
O13   C21   A    
O14   C22   A    
