data_mof_unit_pretest_111.cif
_audit_creation_date              2012-12-10T20:48:18-0500
_audit_creation_method            fapswitch 2.2
_symmetry_space_group_name_H-M    P1
_symmetry_Int_Tables_number       1
_space_group_crystal_system       triclinic
_cell_length_a                    10.700591
_cell_length_b                    8.929325
_cell_length_c                    8.104692
_cell_angle_alpha                 90.000915
_cell_angle_beta                  90.275551
_cell_angle_gamma                 89.993266
_cell_volume                      774.386698526

loop_
_atom_site_label
_atom_site_type_symbol
_atom_type_description
_atom_site_fract_x
_atom_site_fract_y
_atom_site_fract_z
_atom_type_partial_charge
C1    C     C_R   0.499969 0.217986 0.499999 0.917902
C2    C     C_1   0.499973 0.934798 0.500001 -0.160637
C3    C     C_3   0.070585 0.643626 0.483677 -0.438296
C4    C     C_3   0.929236 0.642831 0.514233 -0.468144
C5    C     C_3   0.121291 0.480771 0.498572 -0.235759
C6    C     C_3   0.878913 0.479708 0.500466 -0.177603
C7    C     C_R   0.257456 0.490099 0.499520 0.925836
C8    C     C_R   0.742525 0.489145 0.500375 0.942508
C9    C     C_R   0.499993 0.781984 0.500001 0.930789
C10   C     C_1   0.499963 0.065199 0.499998 -0.150888
C11   C     C_3   0.072801 0.413137 0.668075 0.715318
C12   C     C_3   0.070960 0.388660 0.343907 0.648016
C13   C     C_3   0.929543 0.382731 0.651116 0.664601
C14   C     C_3   0.926177 0.410321 0.332494 0.711998
H1    H     H_    0.164153 0.499331 0.860116 0.395195
H2    H     H_    0.090060 0.689699 0.358802 0.262203
H3    H     H_    0.909253 0.688764 0.639032 0.261514
H4    H     H_    0.882776 0.718488 0.423528 0.237557
H5    H     H_    0.102605 0.369609 0.107473 0.367113
H6    H     H_    0.897286 0.349276 0.884992 0.354306
H7    H     H_    0.829646 0.472930 0.133680 0.374115
H8    H     H_    0.125291 0.200408 0.638712 0.386825
H9    H     H_    0.191805 0.224588 0.347319 0.335118
H10   H     H_    0.814827 0.213424 0.629911 0.351043
H11   H     H_    0.894596 0.234637 0.193484 0.349629
H12   H     H_    0.116660 0.720354 0.573614 0.231402
N1    N     N_1   0.500000 0.500030 0.073640 -0.013303
N2    N     N_1   0.500000 0.500030 0.926360 -0.011251
O1    O     O_R   0.500000 0.285340 0.636850 -0.615351
O2    O     O_3   0.124614 0.442020 0.196042 -0.716429
O3    O     O_3   0.871425 0.423884 0.800556 -0.721792
O4    O     O_3   0.899284 0.512171 0.202310 -0.734648
O5    O     O_3   0.138963 0.282681 0.717756 -0.778466
O6    O     O_3   0.100040 0.235349 0.360490 -0.785596
O7    O     O_3   0.906441 0.229314 0.621842 -0.748860
O8    O     O_3   0.866134 0.271541 0.302652 -0.747104
O9    O     O_R   0.500000 0.285340 0.363150 -0.617625
O10   O     O_R   0.314790 0.499970 0.636880 -0.605969
O11   O     O_R   0.314790 0.499970 0.363120 -0.578505
O12   O     O_R   0.685210 0.499970 0.636880 -0.581505
O13   O     O_R   0.685210 0.499970 0.363120 -0.606884
O14   O     O_R   0.500000 0.714650 0.636900 -0.615474
O15   O     O_R   0.500000 0.714650 0.363100 -0.613036
O16   O     O_3   0.089059 0.523100 0.792867 -0.712741
Zn1   Zn    Zn3+2 0.500000 0.499990 0.682780 1.037254
Zn2   Zn    Zn3+2 0.500000 0.499990 0.317220 1.035623

loop_
_geom_bond_atom_site_label_1
_geom_bond_atom_site_label_2
_ccdc_geom_bond_type
O13   Zn2   S    
C13   O7    S    
C6    C14   S    
C1    O9    A    
H9    O6    S    
C4    H4    S    
C1    O1    A    
C11   O16   S    
C6    C13   S    
C11   C13   S    
C9    O14   A    
H5    O2    S    
O11   Zn2   S    
C4    H3    S    
N1    Zn2   S    
O15   Zn2   S    
C7    O10   A    
C12   C14   S    
H1    O16   S    
C5    C11   S    
C14   O8    S    
O12   Zn1   S    
H6    O3    S    
H7    O4    S    
N2    Zn1   S    
C9    O15   A    
H10   O7    S    
C1    C10   S    
H11   O8    S    
C12   O6    S    
C3    C4    S    
C2    C10   T    
C11   O5    S    
C8    O13   A    
C5    C12   S    
C4    C6    S    
O1    Zn1   S    
N1    N2    T    
C5    C7    S    
H8    O5    S    
C7    O11   A    
O10   Zn1   S    
C6    C8    S    
C8    O12   A    
C12   O2    S    
O9    Zn2   S    
C2    C9    S    
C13   O3    S    
C3    H12   S    
C3    H2    S    
C14   O4    S    
C3    C5    S    
O14   Zn1   S    
