data_mof_unit_pretest_1317.cif
_audit_creation_date              2012-12-10T18:33:41-0500
_audit_creation_method            fapswitch 2.2
_symmetry_space_group_name_H-M    P1
_symmetry_Int_Tables_number       1
_space_group_crystal_system       triclinic
_cell_length_a                    10.510623
_cell_length_b                    14.994793
_cell_length_c                    15.510473
_cell_angle_alpha                 81.676084
_cell_angle_beta                  89.342924
_cell_angle_gamma                 104.398231
_cell_volume                      2339.9235157

loop_
_atom_site_label
_atom_site_type_symbol
_atom_type_description
_atom_site_fract_x
_atom_site_fract_y
_atom_site_fract_z
_atom_type_partial_charge
C1    C     C_R   0.485885 0.441161 0.662087 0.869559
C2    C     C_R   0.518209 0.559150 0.337749 0.868979
C3    C     C_R   0.495026 0.467640 0.812650 -0.315932
C4    C     C_R   0.557423 0.538199 0.187700 -0.321318
C5    C     C_R   0.541496 0.454834 0.896135 0.091261
C6    C     C_R   0.566424 0.564701 0.097345 0.091651
C7    C     C_R   0.571717 0.369406 0.926524 0.124252
C8    C     C_R   0.553128 0.654629 0.063565 0.127099
C9    C     C_R   0.555739 0.524388 0.950529 0.080912
C10   C     C_R   0.578056 0.501402 0.039843 0.080232
C11   C     C_R   0.609545 0.415699 0.068425 -0.227416
C12   C     C_R   0.551148 0.616667 0.918049 -0.230878
C13   C     C_R   0.608131 0.351506 0.012056 -0.228291
C14   C     C_R   0.551887 0.681039 0.973868 -0.230010
C15   C     C_R   0.695066 0.841584 0.636299 -0.323188
C16   C     C_R   0.303395 0.158047 0.364593 -0.319224
C17   C     C_R   0.662502 0.752659 0.614343 0.017105
C18   C     C_R   0.335231 0.246757 0.387114 0.021032
C19   C     C_R   0.514637 0.794072 0.510676 -0.074349
C20   C     C_R   0.488170 0.206627 0.487351 -0.073504
C21   C     C_R   0.543563 0.885815 0.529530 -0.000069
C22   C     C_R   0.458995 0.114840 0.468625 -0.000533
C23   C     C_R   0.742394 0.500505 0.500129 0.853510
C24   C     C_R   0.257572 0.499448 0.499973 0.855534
C25   C     C_R   0.635992 0.908614 0.593965 0.182918
C26   C     C_R   0.364929 0.091638 0.405265 0.180394
C27   C     C_R   0.484303 0.954752 0.487228 0.081498
C28   C     C_R   0.518998 0.046097 0.510440 0.082312
C29   C     C_R   0.611592 0.065472 0.575062 -0.243739
C30   C     C_R   0.391395 0.935306 0.422799 -0.242396
C31   C     C_R   0.668715 0.997850 0.615800 -0.213757
C32   C     C_R   0.332854 0.002579 0.382983 -0.212573
C33   C     C_3   0.929251 0.417610 0.482139 -0.134748
C34   C     C_3   0.070621 0.582249 0.518120 -0.133886
C35   C     C_3   0.015906 0.430674 0.561239 -0.180576
C36   C     C_3   0.983979 0.569184 0.439015 -0.180618
C37   C     C_3   0.122104 0.499331 0.499997 0.029681
C38   C     C_3   0.877791 0.500537 0.500247 0.030713
C39   C     C_3   0.038121 0.486487 0.420948 -0.182490
C40   C     C_3   0.961739 0.513368 0.579309 -0.181136
C41   C     C_R   0.499170 0.405990 0.754215 -0.083115
C42   C     C_R   0.534661 0.597512 0.244347 -0.081889
C43   C     C_R   0.566710 0.303270 0.870637 -0.206942
C44   C     C_R   0.537033 0.716469 0.119764 -0.206152
C45   C     C_R   0.534864 0.321734 0.783410 0.201693
C46   C     C_R   0.525907 0.688815 0.210261 0.202354
H1    H     H_    0.033415 0.374237 0.610767 0.135223
H2    H     H_    0.966419 0.625606 0.389488 0.135638
H3    H     H_    0.559436 0.231971 0.532809 0.129112
H4    H     H_    0.445977 0.769310 0.463429 0.129665
H5    H     H_    0.288195 0.298932 0.356655 0.135382
H6    H     H_    0.707480 0.699940 0.646188 0.135369
H7    H     H_    0.765724 0.857848 0.685684 0.143971
H8    H     H_    0.231193 0.141408 0.316197 0.144221
H9    H     H_    0.642415 0.132309 0.596437 0.141171
H10   H     H_    0.360660 0.868478 0.401365 0.139791
H11   H     H_    0.867947 0.350228 0.467521 0.143974
H12   H     H_    0.131893 0.649633 0.532756 0.145315
H13   H     H_    0.073770 0.475363 0.356674 0.132876
H14   H     H_    0.925998 0.524453 0.643576 0.135187
H15   H     H_    0.633793 0.286960 0.035975 0.145213
H16   H     H_    0.545914 0.750650 0.946863 0.145355
H17   H     H_    0.560895 0.468885 0.215584 0.172009
H18   H     H_    0.456584 0.527016 0.790946 0.167660
H19   H     H_    0.592345 0.238625 0.894331 0.136115
H20   H     H_    0.528193 0.785414 0.092697 0.136115
H21   H     H_    0.640178 0.397519 0.133304 0.146757
H22   H     H_    0.549967 0.641672 0.849291 0.150019
H23   H     H_    0.739127 0.015640 0.665048 0.142476
H24   H     H_    0.261544 0.984578 0.334304 0.143410
N1    N     N_R   0.574200 0.731700 0.552740 -0.099654
N2    N     N_R   0.425800 0.268300 0.447260 -0.100316
O1    O     O_R   0.462600 0.383110 0.605620 -0.607407
O2    O     O_R   0.537400 0.616890 0.394380 -0.608206
O3    O     O_R   0.510210 0.531900 0.639510 -0.620263
O4    O     O_R   0.489790 0.468100 0.360490 -0.621268
O5    O     O_R   0.662240 0.425610 0.483080 -0.630051
O6    O     O_R   0.337760 0.574390 0.516920 -0.627038
O7    O     O_R   0.709860 0.574400 0.516970 -0.618856
O8    O     O_R   0.290140 0.425600 0.483030 -0.619119
Zn1   Zn    Zn3+2 0.468210 0.400660 0.477370 0.930841
Zn2   Zn    Zn3+2 0.531790 0.599340 0.522630 0.931822
C47   C     C_3   0.499036 0.756263 0.267199 -0.899794
H25   H     H_    0.583053 0.776643 0.309088 0.258572
H26   H     H_    0.485806 0.821180 0.228031 0.225852
H27   H     H_    0.407248 0.723967 0.308150 0.234449
C48   C     C_3   0.545329 0.252876 0.723592 -0.905661
H28   H     H_    0.620606 0.286977 0.670297 0.237749
H29   H     H_    0.575746 0.191934 0.758311 0.224755
H30   H     H_    0.448566 0.226123 0.696202 0.257605

loop_
_geom_bond_atom_site_label_1
_geom_bond_atom_site_label_2
_ccdc_geom_bond_type
C25   C31   A    
C38   C40   S    
C48   H28   S    
C26   C32   A    
C40   H14   S    
C34   C37   S    
C19   N1    A    
C35   H1    S    
C3    H18   S    
C12   H22   S    
C4    H17   S    
C33   C39   S    
C34   C40   S    
C15   H7    S    
C28   C29   A    
C35   C37   S    
C15   C25   A    
C14   H16   S    
C42   C46   A    
C44   H20   S    
C24   O8    A    
C44   C46   A    
C8    C14   A    
C7    C43   A    
C9    C10   A    
N2    Zn1   S    
C2    O2    A    
N1    Zn2   S    
C21   C27   A    
C22   C28   A    
C27   C30   A    
C18   N2    A    
O2    Zn2   S    
C17   H6    S    
O1    Zn1   S    
C11   H21   S    
C18   H5    S    
C16   C26   A    
C37   C39   S    
C1    O3    A    
C4    C6    A    
C5    C7    A    
C32   H24   S    
C29   H9    S    
C30   H10   S    
C5    C9    A    
C20   H3    S    
O6    Zn2   S    
C31   H23   S    
C47   H25   S    
O5    Zn1   S    
C43   H19   S    
C39   H13   S    
C24   C37   S    
C23   O5    A    
C43   C45   A    
C24   O6    A    
C47   H26   S    
C20   C22   A    
C17   N1    A    
C48   H29   S    
C2    O4    A    
C1    C41   S    
C15   C17   A    
C21   C25   A    
C3    C41   A    
C33   H11   S    
C45   C48   S    
C36   C39   S    
C8    C44   A    
C12   C14   A    
O8    Zn1   S    
C3    C5    A    
O4    Zn1   S    
C6    C10   A    
O7    Zn2   S    
C6    C8    A    
O3    Zn2   S    
C23   C38   S    
C33   C38   S    
C1    O1    A    
C36   C38   S    
C35   C40   S    
C29   C31   A    
C30   C32   A    
C11   C13   A    
C19   H4    S    
C4    C42   A    
C2    C42   S    
C33   C35   S    
C36   H2    S    
C34   C36   S    
C9    C12   A    
C16   H8    S    
C10   C11   A    
C46   C47   S    
C7    C13   A    
C47   H27   S    
C13   H15   S    
C16   C18   A    
C22   C26   A    
C48   H30   S    
C27   C28   A    
C34   H12   S    
C41   C45   A    
C20   N2    A    
C23   O7    A    
C19   C21   A    
