data_mof_unit_pretest_1806.cif
_audit_creation_date              2012-12-10T18:59:36-0500
_audit_creation_method            fapswitch 2.2
_symmetry_space_group_name_H-M    P1
_symmetry_Int_Tables_number       1
_space_group_crystal_system       triclinic
_cell_length_a                    26.183847
_cell_length_b                    34.577761
_cell_length_c                    34.562691
_cell_angle_alpha                 89.99995
_cell_angle_beta                  89.999769
_cell_angle_gamma                 90.000171
_cell_volume                      31292.3278273

loop_
_atom_site_label
_atom_site_type_symbol
_atom_type_description
_atom_site_fract_x
_atom_site_fract_y
_atom_site_fract_z
_atom_type_partial_charge
C1    C     C_R   0.611440 0.000083 0.250123 0.857295
C2    C     C_R   0.111440 0.000081 0.249880 0.857230
C3    C     C_R   0.270442 0.968522 0.582116 -0.168288
C4    C     C_R   0.208585 0.484340 0.417899 -0.178057
C5    C     C_R   0.229545 0.468527 0.582116 -0.168381
C6    C     C_R   0.791446 0.484379 0.417895 -0.178547
C7    C     C_R   0.770512 0.468564 0.582109 -0.178592
C8    C     C_R   0.208584 0.984339 0.917897 -0.167514
C9    C     C_R   0.229517 0.968546 0.082113 -0.178161
C10   C     C_R   0.791448 0.984382 0.917895 -0.179036
C11   C     C_R   0.770516 0.968565 0.082109 -0.178033
C12   C     C_R   0.708553 0.484380 0.917896 -0.178910
C13   C     C_R   0.888559 0.000084 0.750124 0.857058
C14   C     C_R   0.729486 0.468564 0.082109 -0.178039
C15   C     C_R   0.291419 0.484343 0.917896 -0.167631
C16   C     C_R   0.270488 0.468548 0.082113 -0.178147
C17   C     C_R   0.750005 0.999991 0.397510 0.000201
C18   C     C_R   0.750005 0.999991 0.602491 -0.000169
C19   C     C_R   0.249981 0.999977 0.397512 -0.000096
C20   C     C_R   0.249972 0.999971 0.602493 -0.006226
C21   C     C_R   0.250018 0.499978 0.397511 0.000020
C22   C     C_R   0.250027 0.499971 0.602493 -0.006203
C23   C     C_R   0.749994 0.499990 0.397511 0.000079
C24   C     C_R   0.888559 0.999843 0.250117 0.856500
C25   C     C_R   0.749994 0.499990 0.602492 -0.000200
C26   C     C_R   0.250019 0.999976 0.897511 -0.000626
C27   C     C_R   0.250013 0.999983 0.102492 -0.000534
C28   C     C_R   0.749994 0.999991 0.897511 0.000369
C29   C     C_R   0.749994 0.999990 0.102492 -0.000311
C30   C     C_R   0.750006 0.499990 0.897511 0.000192
C31   C     C_R   0.750007 0.499990 0.102492 -0.000290
C32   C     C_R   0.249981 0.499976 0.897511 -0.000443
C33   C     C_R   0.249987 0.499983 0.102492 -0.000569
C34   C     C_R   0.791465 0.015597 0.417890 -0.183782
C35   C     C_R   0.611440 0.499847 0.749886 0.856269
C36   C     C_R   0.770541 0.031414 0.582112 -0.184995
C37   C     C_R   0.208532 0.015604 0.417890 -0.183842
C38   C     C_R   0.229475 0.031404 0.582108 -0.184277
C39   C     C_R   0.291469 0.515600 0.417889 -0.183822
C40   C     C_R   0.270535 0.531401 0.582108 -0.184516
C41   C     C_R   0.708538 0.515603 0.417891 -0.183805
C42   C     C_R   0.729467 0.531416 0.582112 -0.184758
C43   C     C_R   0.291467 0.015601 0.917890 -0.182445
C44   C     C_R   0.270527 0.031412 0.082109 -0.184174
C45   C     C_R   0.708537 0.015601 0.917891 -0.184308
C46   C     C_R   0.611440 0.499844 0.250117 0.856489
C47   C     C_R   0.729464 0.031415 0.082112 -0.184716
C48   C     C_R   0.791463 0.515602 0.917890 -0.184182
C49   C     C_R   0.770535 0.531416 0.082112 -0.184498
C50   C     C_R   0.208531 0.515598 0.917890 -0.182573
C51   C     C_R   0.229469 0.531411 0.082109 -0.184390
C52   C     C_R   0.791647 0.015340 0.458153 -0.175518
C53   C     C_R   0.770204 0.031550 0.541849 -0.176463
C54   C     C_R   0.208337 0.015333 0.458153 -0.174436
C55   C     C_R   0.229801 0.031529 0.541846 -0.175290
C56   C     C_R   0.291664 0.515329 0.458152 -0.174471
C57   C     C_R   0.388560 0.500086 0.750125 0.851045
C58   C     C_R   0.270208 0.531526 0.541846 -0.175313
C59   C     C_R   0.708356 0.515346 0.458154 -0.175485
C60   C     C_R   0.729804 0.531551 0.541849 -0.176439
C61   C     C_R   0.291655 0.015338 0.958153 -0.173841
C62   C     C_R   0.270197 0.031540 0.041846 -0.176250
C63   C     C_R   0.708355 0.015344 0.958154 -0.175538
C64   C     C_R   0.729800 0.031551 0.041849 -0.176358
C65   C     C_R   0.791645 0.515345 0.958153 -0.175527
C66   C     C_R   0.770198 0.531551 0.041849 -0.176347
C67   C     C_R   0.208343 0.515334 0.958153 -0.173851
C68   C     C_R   0.388560 0.500081 0.249880 0.857199
C69   C     C_R   0.229799 0.531538 0.041846 -0.176259
C70   C     C_R   0.749999 0.999990 0.144858 0.781497
C71   C     C_R   0.749999 0.999990 0.855143 0.781110
C72   C     C_R   0.250002 0.999989 0.144858 0.781589
C73   C     C_R   0.250005 0.999986 0.855143 0.788040
C74   C     C_R   0.249998 0.499989 0.144858 0.781543
C75   C     C_R   0.249995 0.499986 0.855143 0.787815
C76   C     C_R   0.750001 0.499990 0.144858 0.781541
C77   C     C_R   0.750001 0.499990 0.855143 0.781352
C78   C     C_R   0.249994 0.999985 0.644858 0.788422
C79   C     C_R   0.775070 0.667938 0.220499 -0.195661
C80   C     C_R   0.249997 0.999988 0.355144 0.781625
C81   C     C_R   0.750001 0.999990 0.644857 0.781199
C82   C     C_R   0.750001 0.999990 0.355143 0.781250
C83   C     C_R   0.749999 0.499990 0.644858 0.781429
C84   C     C_R   0.749998 0.499990 0.355143 0.781450
C85   C     C_R   0.250006 0.499986 0.644858 0.788214
C86   C     C_R   0.250003 0.499988 0.355143 0.781423
C87   C     C_R   0.750011 0.999994 0.478670 0.111094
C88   C     C_R   0.750014 0.999992 0.521333 0.110889
C89   C     C_R   0.249946 0.999950 0.478672 0.111702
C90   C     C_R   0.775104 0.667942 0.779468 -0.195113
C91   C     C_R   0.249940 0.999950 0.521335 0.108957
C92   C     C_R   0.250051 0.499951 0.478671 0.111704
C93   C     C_R   0.250058 0.499951 0.521335 0.108981
C94   C     C_R   0.749987 0.499992 0.478670 0.111092
C95   C     C_R   0.749984 0.499991 0.521333 0.110864
C96   C     C_R   0.250037 0.999965 0.978670 0.110186
C97   C     C_R   0.250039 0.999968 0.021334 0.110482
C98   C     C_R   0.749987 0.999992 0.978670 0.111253
C99   C     C_R   0.749984 0.999991 0.021333 0.110710
C100  C     C_R   0.750013 0.499992 0.978670 0.111236
C101  C     C_R   0.224872 0.667939 0.220524 -0.195262
C102  C     C_R   0.750016 0.499991 0.021333 0.110706
C103  C     C_R   0.249963 0.499965 0.978670 0.110204
C104  C     C_R   0.249962 0.499969 0.021334 0.110481
C105  C     C_R   0.750002 0.105138 0.249998 0.789333
C106  C     C_R   0.749998 0.105137 0.749998 0.789186
C107  C     C_R   0.249998 0.105137 0.249998 0.789394
C108  C     C_R   0.250002 0.105139 0.749998 0.789290
C109  C     C_R   0.250002 0.605138 0.249998 0.789484
C110  C     C_R   0.249998 0.605138 0.749998 0.789411
C111  C     C_R   0.749998 0.605138 0.249998 0.789286
C112  C     C_R   0.611440 0.000082 0.749879 0.856968
C113  C     C_R   0.211080 0.667942 0.769013 -0.194213
C114  C     C_R   0.750002 0.605138 0.749998 0.789092
C115  C     C_R   0.749999 0.894839 0.249999 0.894961
C116  C     C_R   0.750001 0.894839 0.749998 0.894499
C117  C     C_R   0.250002 0.894840 0.249998 0.895188
C118  C     C_R   0.249997 0.894840 0.749998 0.895189
C119  C     C_R   0.249998 0.394839 0.249999 0.895127
C120  C     C_R   0.250002 0.394841 0.749998 0.895626
C121  C     C_R   0.750001 0.394839 0.249998 0.894782
C122  C     C_R   0.749998 0.394839 0.749999 0.894108
C123  C     C_R   0.705783 0.791685 0.260347 -0.263582
C124  C     C_R   0.274996 0.167936 0.220463 -0.195494
C125  C     C_R   0.705818 0.791682 0.739616 -0.264867
C126  C     C_R   0.294234 0.791688 0.260313 -0.263121
C127  C     C_R   0.263627 0.791692 0.716481 -0.262861
C128  C     C_R   0.205803 0.291682 0.260404 -0.263191
C129  C     C_R   0.236424 0.291693 0.716471 -0.262821
C130  C     C_R   0.794217 0.291685 0.260350 -0.263537
C131  C     C_R   0.794175 0.291681 0.739594 -0.264827
C132  C     C_R   0.236322 0.791683 0.783473 -0.262995
C133  C     C_R   0.205803 0.791684 0.239643 -0.263201
C134  C     C_R   0.794216 0.791686 0.760342 -0.264855
C135  C     C_R   0.288898 0.167944 0.769035 -0.194380
C136  C     C_R   0.794188 0.791682 0.239615 -0.263518
C137  C     C_R   0.705791 0.291685 0.760365 -0.264817
C138  C     C_R   0.705816 0.291681 0.239609 -0.263520
C139  C     C_R   0.263626 0.291685 0.783483 -0.262957
C140  C     C_R   0.294163 0.291679 0.239555 -0.263224
C141  C     C_R   0.705734 0.831936 0.260561 0.580469
C142  C     C_R   0.705758 0.831933 0.739416 0.577801
C143  C     C_R   0.294281 0.831939 0.260529 0.580590
C144  C     C_R   0.263908 0.831944 0.716447 0.578814
C145  C     C_R   0.205755 0.331933 0.260617 0.580782
C146  C     C_R   0.724939 0.167938 0.220494 -0.195437
C147  C     C_R   0.236143 0.331945 0.716437 0.578873
C148  C     C_R   0.794266 0.331936 0.260564 0.580339
C149  C     C_R   0.794234 0.331932 0.739394 0.577688
C150  C     C_R   0.236056 0.831934 0.783521 0.580172
C151  C     C_R   0.205743 0.831934 0.239441 0.579800
C152  C     C_R   0.794264 0.831937 0.760557 0.578739
C153  C     C_R   0.794247 0.831933 0.239414 0.579393
C154  C     C_R   0.705743 0.331935 0.760579 0.578630
C155  C     C_R   0.705756 0.331932 0.239408 0.579396
C156  C     C_R   0.263892 0.331936 0.783532 0.580232
C157  C     C_R   0.724920 0.167942 0.779482 -0.194905
C158  C     C_R   0.294223 0.331929 0.239356 0.579851
C159  C     C_R   0.749993 0.852417 0.249992 -0.298328
C160  C     C_R   0.750007 0.852417 0.749991 -0.296393
C161  C     C_R   0.250008 0.852419 0.249991 -0.298340
C162  C     C_R   0.249988 0.852420 0.749989 -0.294722
C163  C     C_R   0.249992 0.352415 0.249992 -0.298574
C164  C     C_R   0.250012 0.352421 0.749989 -0.294700
C165  C     C_R   0.750007 0.352417 0.249992 -0.298192
C166  C     C_R   0.749992 0.352417 0.749992 -0.296165
C167  C     C_R   0.749983 0.771242 0.249978 -0.078060
C168  C     C_R   0.288885 0.667944 0.730950 -0.195833
C169  C     C_R   0.750019 0.771242 0.749977 -0.076697
C170  C     C_R   0.250021 0.771243 0.249976 -0.078014
C171  C     C_R   0.249972 0.771246 0.749974 -0.076228
C172  C     C_R   0.249981 0.271239 0.249977 -0.078041
C173  C     C_R   0.250028 0.271247 0.749974 -0.076279
C174  C     C_R   0.750019 0.271242 0.249977 -0.078057
C175  C     C_R   0.749981 0.271241 0.749977 -0.076680
C176  C     C_R   0.774868 0.708183 0.220399 -0.170422
C177  C     C_R   0.774911 0.708187 0.779557 -0.171129
C178  C     C_R   0.225077 0.708183 0.220422 -0.170135
C179  C     C_R   0.275159 0.667944 0.279448 -0.194060
C180  C     C_R   0.210946 0.708187 0.768854 -0.170279
C181  C     C_R   0.274791 0.208181 0.220361 -0.170106
C182  C     C_R   0.289032 0.208188 0.768877 -0.170252
C183  C     C_R   0.725142 0.208183 0.220394 -0.170434
C184  C     C_R   0.725113 0.208186 0.779570 -0.171133
C185  C     C_R   0.289001 0.708189 0.731092 -0.170321
C186  C     C_R   0.274967 0.708188 0.279536 -0.169821
C187  C     C_R   0.725129 0.708182 0.720404 -0.171460
C188  C     C_R   0.725097 0.708187 0.279564 -0.170103
C189  C     C_R   0.774847 0.208182 0.720391 -0.171462
C190  C     C_R   0.724925 0.667937 0.720505 -0.196318
C191  C     C_R   0.774898 0.208187 0.279568 -0.170097
C192  C     C_R   0.211021 0.208190 0.731068 -0.170295
C193  C     C_R   0.225169 0.208185 0.279599 -0.169812
C194  C     C_R   0.724904 0.667943 0.279475 -0.194461
C195  C     C_R   0.775051 0.167937 0.720491 -0.196111
C196  C     C_R   0.388559 0.999846 0.249886 0.856357
C197  C     C_R   0.775090 0.167943 0.279479 -0.194478
C198  C     C_R   0.211137 0.167945 0.730928 -0.196003
C199  C     C_R   0.224976 0.167941 0.279510 -0.194058
C200  C     C_R   0.749991 0.647532 0.249991 -0.002194
C201  C     C_R   0.750010 0.647532 0.749991 -0.001908
C202  C     C_R   0.250011 0.647533 0.249990 -0.002356
C203  C     C_R   0.249988 0.647534 0.749988 -0.002555
C204  C     C_R   0.249990 0.147531 0.249991 -0.002307
C205  C     C_R   0.250012 0.147535 0.749988 -0.002468
C206  C     C_R   0.750010 0.147532 0.249991 -0.002184
C207  C     C_R   0.388560 0.999846 0.750115 0.850643
C208  C     C_R   0.749990 0.147531 0.749991 -0.001885
C209  C     C_R   0.749981 0.728647 0.249980 0.188669
C210  C     C_R   0.750021 0.728647 0.749978 0.188673
C211  C     C_R   0.250024 0.728649 0.249977 0.188473
C212  C     C_R   0.249971 0.728651 0.749970 0.187767
C213  C     C_R   0.249979 0.228645 0.249978 0.188465
C214  C     C_R   0.250029 0.228652 0.749970 0.187783
C215  C     C_R   0.750021 0.228647 0.249978 0.188648
C216  C     C_R   0.749979 0.228647 0.749978 0.188630
C217  C     C_2   0.528083 0.522744 0.271900 -0.164640
C218  C     C_R   0.111440 0.500083 0.250123 0.857292
C219  C     C_2   0.528083 0.522783 0.728141 -0.163378
C220  C     C_2   0.471917 0.521797 0.272845 -0.161719
C221  C     C_2   0.471918 0.521837 0.727193 -0.158762
C222  C     C_2   0.028083 0.021796 0.272846 -0.161711
C223  C     C_2   0.028083 0.022784 0.728142 -0.160620
C224  C     C_2   0.971917 0.022745 0.271899 -0.164636
C225  C     C_2   0.971917 0.021838 0.727195 -0.160982
C226  C     C_2   0.028083 0.521809 0.772836 -0.160737
C227  C     C_2   0.028083 0.521824 0.227184 -0.159692
C228  C     C_2   0.971917 0.522757 0.771889 -0.165079
C229  C     C_R   0.111440 0.500084 0.749877 0.851101
C230  C     C_2   0.971917 0.522770 0.228130 -0.162900
C231  C     C_2   0.528083 0.021810 0.772834 -0.162960
C232  C     C_2   0.528083 0.021824 0.227183 -0.159726
C233  C     C_2   0.471917 0.022758 0.771888 -0.162316
C234  C     C_2   0.471917 0.022770 0.228130 -0.162852
C235  C     C_2   0.556109 0.498295 0.250530 -0.278698
C236  C     C_2   0.556108 0.498305 0.749480 -0.282410
C237  C     C_2   0.443893 0.500471 0.248354 -0.277714
C238  C     C_2   0.443892 0.500487 0.751663 -0.285774
C239  C     C_2   0.056107 0.000472 0.248353 -0.277698
C240  C     C_R   0.888559 0.499846 0.249886 0.856323
C241  C     C_2   0.056108 0.998311 0.749486 -0.285580
C242  C     C_2   0.943891 0.998294 0.250531 -0.278702
C243  C     C_2   0.943892 0.000481 0.751659 -0.282052
C244  C     C_2   0.056107 0.500480 0.748346 -0.283989
C245  C     C_2   0.056108 0.500477 0.251656 -0.279562
C246  C     C_2   0.943892 0.498297 0.750529 -0.280947
C247  C     C_2   0.943891 0.498303 0.249479 -0.280179
C248  C     C_2   0.556107 0.000474 0.748351 -0.280227
C249  C     C_2   0.556107 0.000477 0.251656 -0.279593
C250  C     C_2   0.443892 0.998303 0.750524 -0.284158
C251  C     C_R   0.888560 0.499844 0.750116 0.856437
C252  C     C_2   0.443891 0.998303 0.249479 -0.280124
C253  C     C_R   0.708372 0.984647 0.458158 -0.174890
C254  C     C_R   0.729823 0.968433 0.541846 -0.174097
C255  C     C_R   0.291571 0.984578 0.458162 -0.174134
C256  C     C_R   0.270085 0.968377 0.541853 -0.173683
C257  C     C_R   0.208423 0.484585 0.458162 -0.174124
C258  C     C_R   0.229902 0.468383 0.541852 -0.173712
C259  C     C_R   0.791621 0.484638 0.458158 -0.174898
C260  C     C_R   0.770165 0.468429 0.541846 -0.174068
C261  C     C_R   0.208414 0.984592 0.958159 -0.173273
C262  C     C_R   0.111440 0.999849 0.749888 0.850327
C263  C     C_R   0.229872 0.968403 0.041850 -0.172145
C264  C     C_R   0.791623 0.984641 0.958158 -0.174974
C265  C     C_R   0.770169 0.968430 0.041846 -0.173978
C266  C     C_R   0.708378 0.484639 0.958158 -0.174986
C267  C     C_R   0.729833 0.468429 0.041846 -0.173959
C268  C     C_R   0.291589 0.484597 0.958159 -0.173253
C269  C     C_R   0.270132 0.468405 0.041850 -0.172166
C270  C     C_R   0.708548 0.984387 0.417895 -0.178679
C271  C     C_R   0.729476 0.968568 0.582109 -0.178697
C272  C     C_R   0.291410 0.984334 0.417900 -0.177948
F1    F     F_    0.661998 0.850736 0.270144 -0.634990
F2    F     F_    0.161992 0.850731 0.229892 -0.635140
F3    F     F_    0.837996 0.850737 0.770137 -0.638049
F4    F     F_    0.837987 0.850730 0.229836 -0.635652
F5    F     F_    0.662018 0.350735 0.770183 -0.638367
F6    F     F_    0.662018 0.350728 0.229826 -0.635644
F7    F     F_    0.276451 0.350733 0.816687 -0.637749
F8    F     F_    0.337945 0.350724 0.229720 -0.635091
F9    F     F_    0.662021 0.850729 0.729841 -0.638372
F10   F     F_    0.338027 0.850741 0.270084 -0.635189
F11   F     F_    0.276524 0.850750 0.683307 -0.642315
F12   F     F_    0.162038 0.350731 0.270258 -0.634777
F13   F     F_    0.223581 0.350753 0.683288 -0.642329
F14   F     F_    0.838000 0.350736 0.270152 -0.635340
F15   F     F_    0.837965 0.350728 0.729795 -0.638688
F16   F     F_    0.223443 0.850730 0.816667 -0.637739
H1    H     H_    0.670954 0.776508 0.267769 0.179693
H2    H     H_    0.170967 0.776505 0.232242 0.179768
H3    H     H_    0.285001 0.943338 0.526815 0.140107
H4    H     H_    0.175424 0.473187 0.473206 0.135976
H5    H     H_    0.214976 0.443346 0.526815 0.140105
H6    H     H_    0.824634 0.473259 0.473199 0.135733
H7    H     H_    0.785114 0.443402 0.526806 0.136951
H8    H     H_    0.175411 0.973197 0.973201 0.136044
H9    H     H_    0.214941 0.943369 0.026814 0.139138
H10   H     H_    0.824637 0.973264 0.973199 0.135671
H11   H     H_    0.785121 0.943405 0.026806 0.137001
H12   H     H_    0.675365 0.473261 0.973199 0.135688
H13   H     H_    0.829043 0.776511 0.767762 0.178470
H14   H     H_    0.714882 0.443404 0.026806 0.137007
H15   H     H_    0.324593 0.473204 0.973200 0.136028
H16   H     H_    0.285068 0.443373 0.026813 0.139139
H17   H     H_    0.675939 0.972480 0.402729 0.163328
H18   H     H_    0.713813 0.943854 0.597277 0.165494
H19   H     H_    0.324008 0.972408 0.402736 0.163591
H20   H     H_    0.286067 0.943797 0.597290 0.178603
H21   H     H_    0.175985 0.472418 0.402735 0.163470
H22   H     H_    0.213911 0.443805 0.597289 0.178597
H23   H     H_    0.824051 0.472466 0.402729 0.163470
H24   H     H_    0.829013 0.776503 0.232188 0.179716
H25   H     H_    0.786168 0.443847 0.597277 0.165504
H26   H     H_    0.175987 0.972412 0.902732 0.164880
H27   H     H_    0.213873 0.943827 0.097284 0.166230
H28   H     H_    0.824055 0.972472 0.902729 0.162997
H29   H     H_    0.786175 0.943850 0.097277 0.165795
H30   H     H_    0.675947 0.472468 0.902730 0.163139
H31   H     H_    0.713828 0.443848 0.097277 0.165801
H32   H     H_    0.324018 0.472420 0.902731 0.164730
H33   H     H_    0.286135 0.443830 0.097284 0.166251
H34   H     H_    0.824071 0.027503 0.402720 0.157995
H35   H     H_    0.670970 0.276508 0.767802 0.178475
H36   H     H_    0.786202 0.056128 0.597282 0.156839
H37   H     H_    0.175946 0.027539 0.402718 0.157826
H38   H     H_    0.213857 0.056135 0.597275 0.158633
H39   H     H_    0.324058 0.527531 0.402717 0.157820
H40   H     H_    0.286162 0.556129 0.597275 0.158599
H41   H     H_    0.675936 0.527516 0.402721 0.157998
H42   H     H_    0.713814 0.556133 0.597283 0.156877
H43   H     H_    0.324058 0.027530 0.902719 0.158257
H44   H     H_    0.286163 0.056136 0.097277 0.157156
H45   H     H_    0.675933 0.027511 0.902720 0.157559
H46   H     H_    0.670992 0.276502 0.232178 0.179740
H47   H     H_    0.713808 0.056131 0.097283 0.156951
H48   H     H_    0.824066 0.527513 0.902720 0.157834
H49   H     H_    0.786190 0.556132 0.097282 0.156994
H50   H     H_    0.175937 0.527524 0.902719 0.157974
H51   H     H_    0.213830 0.556133 0.097277 0.157123
H52   H     H_    0.273364 0.276504 0.809879 0.178420
H53   H     H_    0.328972 0.276499 0.232081 0.179760
H54   H     H_    0.824665 0.026715 0.473191 0.132961
H55   H     H_    0.785164 0.056573 0.526810 0.132610
H56   H     H_    0.175329 0.026728 0.473188 0.133151
H57   H     H_    0.670995 0.776504 0.732192 0.178503
H58   H     H_    0.214876 0.056562 0.526804 0.133242
H59   H     H_    0.324674 0.526720 0.473188 0.133128
H60   H     H_    0.285141 0.556557 0.526804 0.133235
H61   H     H_    0.675341 0.526727 0.473191 0.132978
H62   H     H_    0.714851 0.556577 0.526811 0.132618
H63   H     H_    0.324663 0.026731 0.973189 0.133229
H64   H     H_    0.285136 0.056569 0.026805 0.133074
H65   H     H_    0.675338 0.026722 0.973191 0.132908
H66   H     H_    0.714845 0.056576 0.026811 0.132637
H67   H     H_    0.824660 0.526724 0.973191 0.132969
H68   H     H_    0.329074 0.776513 0.267710 0.179712
H69   H     H_    0.785153 0.556576 0.026810 0.132648
H70   H     H_    0.175333 0.526724 0.973190 0.133163
H71   H     H_    0.214856 0.556566 0.026805 0.133066
H72   H     H_    0.793644 0.723282 0.196923 0.140480
H73   H     H_    0.793694 0.723288 0.803025 0.140686
H74   H     H_    0.206253 0.723281 0.196965 0.140758
H75   H     H_    0.179972 0.723286 0.783100 0.141702
H76   H     H_    0.293507 0.223279 0.196858 0.140763
H77   H     H_    0.319988 0.223288 0.783142 0.141683
H78   H     H_    0.706372 0.223281 0.196914 0.140489
H79   H     H_    0.273401 0.776518 0.690087 0.177784
H80   H     H_    0.706349 0.223288 0.803049 0.140694
H81   H     H_    0.319970 0.723290 0.716841 0.141569
H82   H     H_    0.293794 0.723290 0.302990 0.141355
H83   H     H_    0.706349 0.723279 0.696932 0.140066
H84   H     H_    0.706318 0.723289 0.303037 0.141087
H85   H     H_    0.793608 0.223280 0.696909 0.140072
H86   H     H_    0.793671 0.223290 0.303044 0.141090
H87   H     H_    0.180070 0.223291 0.716798 0.141551
H88   H     H_    0.206450 0.223287 0.303100 0.141367
H89   H     H_    0.794405 0.652828 0.197284 0.161805
H90   H     H_    0.170991 0.276505 0.267873 0.179740
H91   H     H_    0.794441 0.652836 0.802681 0.162960
H92   H     H_    0.205488 0.652829 0.197329 0.162029
H93   H     H_    0.180454 0.652834 0.783686 0.163153
H94   H     H_    0.294271 0.152825 0.197219 0.161916
H95   H     H_    0.319508 0.152836 0.783727 0.162935
H96   H     H_    0.705610 0.152828 0.197276 0.161864
H97   H     H_    0.705603 0.152835 0.802706 0.163019
H98   H     H_    0.319516 0.652837 0.716282 0.162780
H99   H     H_    0.294540 0.652838 0.302647 0.163387
H100  H     H_    0.705585 0.652827 0.697296 0.161588
H101  H     H_    0.226691 0.276519 0.690070 0.177781
H102  H     H_    0.705571 0.652836 0.302694 0.163167
H103  H     H_    0.794371 0.152827 0.697271 0.161643
H104  H     H_    0.794416 0.152837 0.302701 0.163169
H105  H     H_    0.180522 0.152838 0.716241 0.162565
H106  H     H_    0.205703 0.152834 0.302757 0.163341
H107  H     H_    0.546751 0.544218 0.289967 0.176355
H108  H     H_    0.546753 0.544276 0.710097 0.176817
H109  H     H_    0.453246 0.539836 0.294345 0.175816
H110  H     H_    0.453248 0.539893 0.705708 0.176361
H111  H     H_    0.046754 0.039834 0.294347 0.175820
H112  H     H_    0.829045 0.276509 0.267776 0.179680
H113  H     H_    0.046753 0.044273 0.710093 0.176179
H114  H     H_    0.953249 0.044220 0.289965 0.176361
H115  H     H_    0.953248 0.039901 0.705715 0.176695
H116  H     H_    0.046754 0.539849 0.794334 0.175174
H117  H     H_    0.046753 0.539881 0.205698 0.177018
H118  H     H_    0.953248 0.544237 0.789948 0.175963
H119  H     H_    0.953249 0.544257 0.210078 0.177218
H120  H     H_    0.546754 0.039857 0.794327 0.175508
H121  H     H_    0.546753 0.039880 0.205698 0.176995
H122  H     H_    0.453248 0.044234 0.789952 0.175326
H123  H     H_    0.828993 0.276502 0.732152 0.178508
H124  H     H_    0.453249 0.044257 0.210078 0.177248
H125  H     H_    0.539149 0.475805 0.233016 0.162757
H126  H     H_    0.539147 0.475799 0.766973 0.159750
H127  H     H_    0.460855 0.482979 0.225845 0.158619
H128  H     H_    0.460854 0.482983 0.774163 0.154844
H129  H     H_    0.039145 0.982982 0.225842 0.158615
H130  H     H_    0.039148 0.975812 0.766987 0.157334
H131  H     H_    0.960852 0.975803 0.233020 0.162763
H132  H     H_    0.960852 0.982967 0.774152 0.156249
H133  H     H_    0.039144 0.482990 0.725836 0.155888
H134  H     H_    0.226544 0.776503 0.809862 0.178422
H135  H     H_    0.039147 0.482970 0.274154 0.157561
H136  H     H_    0.960853 0.475801 0.733024 0.160333
H137  H     H_    0.960851 0.475804 0.266981 0.162162
H138  H     H_    0.539146 0.982975 0.725847 0.157291
H139  H     H_    0.539146 0.982971 0.274155 0.157554
H140  H     H_    0.460852 0.975814 0.733010 0.157915
H141  H     H_    0.460851 0.975803 0.266980 0.162169
H142  H     H_    0.675355 0.973274 0.473199 0.135702
H143  H     H_    0.714865 0.943410 0.526806 0.136949
H144  H     H_    0.324568 0.973176 0.473206 0.136002
O1    O     O_3   0.750000 0.999990 0.250000 -0.497895
O2    O     O_R   0.635430 0.977260 0.727280 -0.625453
O3    O     O_R   0.864580 0.022730 0.272760 -0.647131
O4    O     O_R   0.635420 0.522730 0.727240 -0.645029
O5    O     O_R   0.635420 0.522730 0.272760 -0.647145
O6    O     O_R   0.364580 0.522730 0.727240 -0.644254
O7    O     O_R   0.364580 0.522730 0.272760 -0.647514
O8    O     O_R   0.364570 0.977260 0.272720 -0.627107
O9    O     O_R   0.364570 0.977260 0.727280 -0.638142
O10   O     O_R   0.135430 0.477260 0.272720 -0.626793
O11   O     O_R   0.135430 0.477260 0.727280 -0.638047
O12   O     O_R   0.864570 0.477260 0.272720 -0.627119
O13   O     O_R   0.864570 0.477260 0.727280 -0.625664
O14   O     O_R   0.135430 0.977260 0.772720 -0.640558
O15   O     O_R   0.135430 0.977260 0.227280 -0.624447
O16   O     O_R   0.864570 0.977260 0.772720 -0.627764
O17   O     O_3   0.750000 0.999990 0.750000 -0.497342
O18   O     O_R   0.864570 0.977260 0.227280 -0.624735
O19   O     O_R   0.635430 0.477260 0.772720 -0.628032
O20   O     O_R   0.635430 0.477260 0.227280 -0.624731
O21   O     O_R   0.364570 0.477260 0.772720 -0.640405
O22   O     O_R   0.364570 0.477260 0.227280 -0.624456
O23   O     O_R   0.719960 0.022730 0.163260 -0.647934
O24   O     O_R   0.719960 0.022730 0.836740 -0.648497
O25   O     O_R   0.280040 0.022730 0.163260 -0.647625
O26   O     O_R   0.280040 0.022730 0.836740 -0.649316
O27   O     O_R   0.219960 0.522730 0.163260 -0.647871
O28   O     O_3   0.250000 0.999990 0.250000 -0.498008
O29   O     O_R   0.219960 0.522730 0.836740 -0.649511
O30   O     O_R   0.780040 0.522730 0.163260 -0.647691
O31   O     O_R   0.780040 0.522730 0.836740 -0.648308
O32   O     O_R   0.219960 0.022730 0.663260 -0.648082
O33   O     O_R   0.219960 0.022730 0.336740 -0.648458
O34   O     O_R   0.780040 0.022730 0.663260 -0.647972
O35   O     O_R   0.780040 0.022730 0.336740 -0.648253
O36   O     O_R   0.719960 0.522730 0.663260 -0.647754
O37   O     O_R   0.719960 0.522730 0.336740 -0.648272
O38   O     O_R   0.280040 0.522730 0.663260 -0.648308
O39   O     O_3   0.250000 0.999990 0.750000 -0.497680
O40   O     O_R   0.280040 0.522730 0.336740 -0.648439
O41   O     O_R   0.719950 0.086720 0.227250 -0.648165
O42   O     O_R   0.719950 0.086720 0.772750 -0.646583
O43   O     O_R   0.280050 0.086720 0.227250 -0.648425
O44   O     O_R   0.280050 0.086720 0.772750 -0.646660
O45   O     O_R   0.219950 0.586720 0.227250 -0.648209
O46   O     O_R   0.219950 0.586720 0.772750 -0.646484
O47   O     O_R   0.780050 0.586720 0.227250 -0.648400
O48   O     O_R   0.780050 0.586720 0.772750 -0.646765
O49   O     O_R   0.219950 0.086720 0.727250 -0.648583
O50   O     O_3   0.250000 0.499990 0.250000 -0.498043
O51   O     O_R   0.219950 0.086720 0.272750 -0.646447
O52   O     O_R   0.780050 0.086720 0.727250 -0.648278
O53   O     O_R   0.780050 0.086720 0.272750 -0.646754
O54   O     O_R   0.719950 0.586720 0.727250 -0.648462
O55   O     O_R   0.719950 0.586720 0.272750 -0.646706
O56   O     O_R   0.280050 0.586720 0.727250 -0.648407
O57   O     O_R   0.280050 0.586720 0.272750 -0.646514
O58   O     O_R   0.719970 0.913260 0.272730 -0.590368
O59   O     O_R   0.719970 0.913260 0.727270 -0.593030
O60   O     O_R   0.280030 0.913260 0.272730 -0.590588
O61   O     O_3   0.250000 0.499990 0.750000 -0.497703
O62   O     O_R   0.280030 0.913260 0.727270 -0.592565
O63   O     O_R   0.219970 0.413260 0.272730 -0.590236
O64   O     O_R   0.219970 0.413260 0.727270 -0.592348
O65   O     O_R   0.780030 0.413260 0.272730 -0.590620
O66   O     O_R   0.780030 0.413260 0.727270 -0.593256
O67   O     O_R   0.219970 0.913260 0.772730 -0.590703
O68   O     O_R   0.219970 0.913260 0.227270 -0.592646
O69   O     O_R   0.780030 0.913260 0.772730 -0.590711
O70   O     O_R   0.780030 0.913260 0.227270 -0.592962
O71   O     O_R   0.719970 0.413260 0.772730 -0.590934
O72   O     O_3   0.750000 0.499990 0.250000 -0.497865
O73   O     O_R   0.719970 0.413260 0.227270 -0.592945
O74   O     O_R   0.280030 0.413260 0.772730 -0.590490
O75   O     O_R   0.280030 0.413260 0.227270 -0.592561
O76   O     O_R   0.780040 0.977250 0.163260 -0.642249
O77   O     O_R   0.780040 0.977250 0.836740 -0.642198
O78   O     O_R   0.219960 0.977250 0.163260 -0.642574
O79   O     O_R   0.219960 0.977250 0.836740 -0.628954
O80   O     O_R   0.280040 0.477250 0.163260 -0.642481
O81   O     O_R   0.280040 0.477250 0.836740 -0.629182
O82   O     O_R   0.719960 0.477250 0.163260 -0.642309
O83   O     O_3   0.750000 0.499990 0.750000 -0.497298
O84   O     O_R   0.719960 0.477250 0.836740 -0.641948
O85   O     O_R   0.280040 0.977250 0.663260 -0.630974
O86   O     O_R   0.280040 0.977250 0.336740 -0.641676
O87   O     O_R   0.719960 0.977250 0.663260 -0.642700
O88   O     O_R   0.719960 0.977250 0.336740 -0.642108
O89   O     O_R   0.780040 0.477250 0.663260 -0.642439
O90   O     O_R   0.780040 0.477250 0.336740 -0.641812
O91   O     O_R   0.219960 0.477250 0.663260 -0.631216
O92   O     O_R   0.219960 0.477250 0.336740 -0.641941
O93   O     O_R   0.635420 0.022730 0.227240 -0.645579
O94   O     O_R   0.635430 0.977260 0.272720 -0.626800
O95   O     O_R   0.635420 0.022730 0.772760 -0.647353
O96   O     O_R   0.364580 0.022730 0.227240 -0.645046
O97   O     O_R   0.364580 0.022730 0.772760 -0.645947
O98   O     O_R   0.135420 0.522730 0.227240 -0.645556
O99   O     O_R   0.135420 0.522730 0.772760 -0.646153
O100  O     O_R   0.864580 0.522730 0.227240 -0.645080
O101  O     O_R   0.864580 0.522730 0.772760 -0.647082
O102  O     O_R   0.135420 0.022730 0.727240 -0.643936
O103  O     O_R   0.135420 0.022730 0.272760 -0.647518
O104  O     O_R   0.864580 0.022730 0.727240 -0.645411
Zn1   Zn    Zn3+2 0.792920 0.967500 0.217510 1.019212
Zn2   Zn    Zn3+2 0.292920 0.967500 0.282490 1.019441
Zn3   Zn    Zn3+2 0.707080 0.967500 0.717510 1.017603
Zn4   Zn    Zn3+2 0.707080 0.967500 0.282490 1.019155
Zn5   Zn    Zn3+2 0.792920 0.467500 0.717510 1.017482
Zn6   Zn    Zn3+2 0.792920 0.467500 0.282490 1.019082
Zn7   Zn    Zn3+2 0.207080 0.467500 0.717510 1.018394
Zn8   Zn    Zn3+2 0.207080 0.467500 0.282490 1.019526
Zn9   Zn    Zn3+2 0.707080 0.032480 0.217500 0.963649
Zn10  Zn    Zn3+2 0.707080 0.032480 0.782500 0.962826
Zn11  Zn    Zn3+2 0.292920 0.032480 0.217500 0.963826
Zn12  Zn    Zn3+2 0.792920 0.967500 0.782490 1.017607
Zn13  Zn    Zn3+2 0.292920 0.032480 0.782500 0.963448
Zn14  Zn    Zn3+2 0.207080 0.532480 0.217500 0.963668
Zn15  Zn    Zn3+2 0.207080 0.532480 0.782500 0.963309
Zn16  Zn    Zn3+2 0.792920 0.532480 0.217500 0.963783
Zn17  Zn    Zn3+2 0.792920 0.532480 0.782500 0.962981
Zn18  Zn    Zn3+2 0.207080 0.032480 0.717500 0.963693
Zn19  Zn    Zn3+2 0.207080 0.032480 0.282500 0.963520
Zn20  Zn    Zn3+2 0.792920 0.032480 0.717500 0.963070
Zn21  Zn    Zn3+2 0.792920 0.032480 0.282500 0.963352
Zn22  Zn    Zn3+2 0.707080 0.532480 0.717500 0.963278
Zn23  Zn    Zn3+2 0.207080 0.967500 0.217510 1.019429
Zn24  Zn    Zn3+2 0.707080 0.532480 0.282500 0.963458
Zn25  Zn    Zn3+2 0.292920 0.532480 0.717500 0.963499
Zn26  Zn    Zn3+2 0.292920 0.532480 0.282500 0.963391
Zn27  Zn    Zn3+2 0.207080 0.967500 0.782490 1.018809
Zn28  Zn    Zn3+2 0.292920 0.467500 0.217510 1.019524
Zn29  Zn    Zn3+2 0.292920 0.467500 0.782490 1.018926
Zn30  Zn    Zn3+2 0.707080 0.467500 0.217510 1.019129
Zn31  Zn    Zn3+2 0.707080 0.467500 0.782490 1.017456
Zn32  Zn    Zn3+2 0.292920 0.967500 0.717510 1.018307

loop_
_geom_bond_atom_site_label_1
_geom_bond_atom_site_label_2
_ccdc_geom_bond_type
O64   Zn7   S    
O13   Zn5   S    
C139  H52   S    
C132  C150  A    
O85   Zn32  S    
O53   Zn21  S    
C133  C151  A    
O57   Zn26  S    
O63   Zn8   S    
C32   C75   S    
C16   C269  A    
C15   C32   A    
C111  O47   A    
C130  C174  A    
C192  H87   S    
C181  H76   S    
C182  H77   S    
C146  C183  A    
C120  O64   A    
C81   O87   A    
C155  F6    S    
C147  C164  A    
C106  C208  S    
O100  Zn16  S    
C128  C145  A    
C270  H17   S    
C251  O13   A    
O50   Zn28  S    
C110  O46   A    
C126  C143  A    
O87   Zn3   S    
C50   H50   S    
C124  H94   S    
C174  C215  S    
C271  H18   S    
C192  C214  A    
C104  C269  A    
C36   C53   A    
O61   Zn15  S    
C184  H80   S    
C71   O77   A    
C38   C55   A    
C72   O78   A    
C151  C161  A    
C134  C169  A    
C138  C174  A    
O18   Zn1   S    
C195  H103  S    
C61   H63   S    
C24   C242  S    
C192  C198  A    
C48   C65   A    
C125  C169  A    
C255  C272  A    
C136  H24   S    
C131  H123  S    
C138  H46   S    
C90   C177  A    
O25   Zn11  S    
C148  F14   S    
C186  C211  A    
C148  C165  A    
C149  F15   S    
O22   Zn28  S    
C197  C206  A    
O55   Zn24  S    
C249  H139  S    
C233  C250  D    
C233  H122  S    
C197  H104  S    
C250  H140  S    
C183  C215  A    
C40   C58   A    
C23   C84   S    
C41   H41   S    
C117  O68   A    
C167  C209  S    
C156  F7    S    
C15   C268  A    
O82   Zn30  S    
C47   C64   A    
C17   C270  A    
C207  O9    A    
C114  O48   A    
C193  C199  A    
O39   Zn18  S    
C266  H12   S    
C72   O25   A    
O59   Zn3   S    
O49   Zn18  S    
C13   O104  A    
O21   Zn29  S    
C122  O71   A    
C176  H72   S    
C240  O12   A    
C133  C170  A    
C38   H38   S    
C68   O7    A    
O93   Zn9   S    
C70   O23   A    
C189  C216  A    
C62   H64   S    
C4    H21   S    
O90   Zn6   S    
O1    Zn4   S    
C226  C244  D    
C39   C56   A    
C179  C202  A    
C6    H23   S    
C262  O14   A    
C232  C234  S    
C114  C201  S    
C238  H128  S    
C127  H79   S    
O74   Zn29  S    
C248  H138  S    
C242  H131  S    
C13   O16   A    
O19   Zn31  S    
C245  H135  S    
O101  Zn17  S    
C246  H136  S    
C132  H134  S    
O58   Zn4   S    
C199  C204  A    
O88   Zn4   S    
C5    C258  A    
C131  C149  A    
C28   C71   S    
O51   Zn19  S    
C17   C34   A    
C234  C252  D    
C262  O102  A    
C43   C61   A    
C198  H105  S    
C68   O22   A    
C49   H49   S    
C21   C86   S    
C118  C162  S    
C79   C200  A    
O1    Zn9   S    
C56   H59   S    
O17   Zn10  S    
C269  H16   S    
C15   H32   S    
C193  C213  A    
C63   C98   A    
C59   H61   S    
O83   Zn22  S    
C83   O36   A    
C23   C41   A    
C117  C161  S    
C175  C216  S    
C64   H66   S    
C81   O34   A    
C46   C235  S    
C136  C153  A    
C31   C76   S    
C100  C266  A    
C223  C241  D    
C222  H111  S    
O28   Zn2   S    
C7    H25   S    
C113  C203  A    
C19   C80   S    
C151  F2    S    
C12   C266  A    
C129  C147  A    
C97   C263  A    
O39   Zn27  S    
C60   C95   A    
C98   C264  A    
C180  H75   S    
C98   C99   S    
C2    O103  A    
C25   C83   S    
O24   Zn10  S    
O28   Zn11  S    
C51   C69   A    
C143  C161  A    
O78   Zn23  S    
C240  O100  A    
C60   H62   S    
C105  O53   A    
C251  O101  A    
O32   Zn18  S    
C14   C31   A    
C119  C163  S    
C217  C235  D    
C24   O3    A    
C92   C257  A    
C61   C96   A    
O103  Zn19  S    
C105  C206  S    
C179  C186  A    
O71   Zn31  S    
O20   Zn30  S    
O50   Zn14  S    
C110  O56   A    
C29   C47   A    
C30   C48   A    
C109  C202  S    
C106  O42   A    
C193  H88   S    
O50   Zn8   S    
C137  C175  A    
O35   Zn21  S    
C106  O52   A    
C2    C239  S    
C228  C246  D    
C127  C171  A    
C190  H100  S    
C254  C271  A    
C118  O67   A    
O70   Zn1   S    
O3    Zn21  S    
C17   C82   S    
C22   C85   S    
C35   O4    A    
O83   Zn5   S    
O81   Zn29  S    
C101  C178  A    
O68   Zn23  S    
C140  C158  A    
O83   Zn31  S    
C27   C44   A    
C141  C159  A    
C64   C99   A    
C194  C200  A    
C195  C208  A    
C259  H6    S    
C125  H57   S    
C137  C154  A    
C240  C247  S    
C157  C184  A    
C86   O92   A    
C89   C91   S    
C40   H40   S    
C50   C67   A    
O30   Zn16  S    
O89   Zn5   S    
C135  H95   S    
C69   H71   S    
O91   Zn7   S    
O92   Zn8   S    
C150  F16   S    
C268  H15   S    
C14   H31   S    
O17   Zn12  S    
C207  C250  S    
C196  O96   A    
C246  C251  S    
O69   Zn12  S    
C95   C260  A    
C244  H133  S    
C188  H84   S    
C49   C66   A    
C108  O44   A    
C218  C245  S    
C229  C244  S    
C168  H98   S    
C145  C163  A    
C146  H96   S    
O9    Zn32  S    
O67   Zn27  S    
C67   H70   S    
C80   O33   A    
C177  C210  A    
O66   Zn5   S    
C126  C170  A    
C111  C200  S    
C62   C97   A    
C158  F8    S    
C47   H47   S    
O50   Zn26  S    
O47   Zn16  S    
C196  C252  S    
C144  F11   S    
O1    Zn21  S    
C122  O66   A    
C222  C224  S    
C33   C51   A    
C226  H116  S    
C158  C163  A    
O1    Zn1   S    
C134  H13   S    
C120  O74   A    
C102  C267  A    
O7    Zn26  S    
C113  H93   S    
C189  H85   S    
O37   Zn24  S    
C14   C267  A    
C185  H81   S    
O23   Zn9   S    
C73   O79   A    
C79   C176  A    
C154  F5    S    
C77   O84   A    
C137  H35   S    
C136  C167  A    
C121  C165  S    
C239  H129  S    
O6    Zn25  S    
O31   Zn17  S    
O10   Zn8   S    
O72   Zn6   S    
C171  C212  S    
C258  H5    S    
O43   Zn11  S    
O39   Zn13  S    
C76   O82   A    
C169  C210  S    
C112  O95   A    
C76   O30   A    
C43   H43   S    
O34   Zn20  S    
C236  H126  S    
C120  C164  S    
C6    C259  A    
C80   O86   A    
O8    Zn2   S    
C243  H132  S    
C181  C213  A    
C232  C249  D    
C117  O60   A    
O94   Zn4   S    
C8    C261  A    
C256  H3    S    
C157  H97   S    
C230  C247  D    
O73   Zn30  S    
C9    H27   S    
C138  C155  A    
C10   H28   S    
C87   C88   S    
C4    C257  A    
C10   C28   A    
C232  H121  S    
O52   Zn20  S    
C121  O73   A    
C230  H119  S    
C129  C173  A    
C217  C220  S    
C225  H115  S    
C123  C141  A    
C231  H120  S    
C58   C93   A    
C116  C160  S    
C68   C237  S    
O96   Zn11  S    
C82   O88   A    
C184  C216  A    
C51   H51   S    
C26   C73   S    
C109  O45   A    
C176  C209  A    
O72   Zn16  S    
C82   O35   A    
C63   H65   S    
C186  H82   S    
C179  H99   S    
C3    C256  A    
C187  C190  A    
C55   C91   A    
C252  H141  S    
C191  C215  A    
C30   C77   S    
C99   C265  A    
C114  O54   A    
C3    H20   S    
C36   H36   S    
C59   C94   A    
C141  F1    S    
O65   Zn6   S    
O95   Zn10  S    
C135  C205  A    
C144  C162  A    
C48   H48   S    
C52   H54   S    
C187  H83   S    
C75   O29   A    
C7    C260  A    
C140  H53   S    
C31   C49   A    
C234  H124  S    
C52   C87   A    
C150  C162  A    
C86   O40   A    
C149  C166  A    
C67   C103  A    
C191  C197  A    
C116  O69   A    
O14   Zn27  S    
C196  O8    A    
C88   C254  A    
C16   H33   S    
C13   C243  S    
O72   Zn30  S    
O26   Zn13  S    
C74   O80   A    
C115  C159  S    
C110  C203  S    
C109  O57   A    
O28   Zn19  S    
C37   H37   S    
C227  C245  D    
C224  H114  S    
C188  C209  A    
C189  C195  A    
O2    Zn3   S    
C134  C152  A    
C34   H34   S    
C223  C225  S    
C3    C20   A    
C207  O97   A    
C103  C268  A    
C79   H89   S    
O42   Zn10  S    
C46   O5    A    
O12   Zn6   S    
O45   Zn14  S    
O48   Zn17  S    
C77   O31   A    
O84   Zn31  S    
O104  Zn20  S    
C107  O43   A    
C220  C237  D    
O77   Zn12  S    
C19   C37   A    
C74   O27   A    
C172  C213  S    
O61   Zn7   S    
C255  H144  S    
C9    C27   A    
C29   C70   S    
O61   Zn29  S    
C44   H44   S    
C177  H73   S    
C12   C30   A    
C221  H110  S    
C65   C100  A    
C264  H10   S    
C108  C205  S    
C152  F3    S    
C25   C42   A    
O15   Zn23  S    
C19   C272  A    
C20   C78   S    
C225  C243  D    
C130  H112  S    
C34   C52   A    
C7    C25   A    
C198  C205  A    
C221  C238  D    
C133  H2    S    
C173  C214  S    
O98   Zn14  S    
C124  C181  A    
O76   Zn1   S    
C156  C164  A    
C227  H117  S    
C224  C242  D    
C131  C175  A    
C92   C93   S    
C178  C211  A    
C1    C249  S    
C127  C144  A    
C263  H9    S    
C183  H78   S    
C94   C95   S    
C123  H1    S    
C101  H92   S    
O17   Zn20  S    
C93   C258  A    
C33   C74   S    
C87   C253  A    
C113  C180  A    
C65   H67   S    
C103  C104  S    
C154  C166  A    
C267  H14   S    
C1    O94   A    
C18   C36   A    
C27   C72   S    
C152  C160  A    
C96   C261  A    
C122  C166  S    
C119  O75   A    
C12   H30   S    
C66   C102  A    
C231  C248  D    
C272  H19   S    
C24   O18   A    
C146  C206  A    
C84   O90   A    
C53   H55   S    
O86   Zn2   S    
O4    Zn22  S    
C124  C204  A    
C129  H101  S    
C253  H142  S    
C112  O2    A    
C235  H125  S    
C199  H106  S    
C105  O41   A    
C101  C202  A    
C142  F9    S    
C78   O85   A    
C91   C256  A    
C70   O76   A    
C18   C81   S    
C111  O55   A    
C84   O37   A    
C180  C212  A    
O40   Zn26  S    
C178  H74   S    
C229  O99   A    
C218  O10   A    
C57   O21   A    
O11   Zn7   S    
C128  H90   S    
C5    C22   A    
O56   Zn25  S    
O75   Zn28  S    
C11   H29   S    
O46   Zn15  S    
C260  H7    S    
C46   O20   A    
C132  C171  A    
O29   Zn15  S    
C253  C270  A    
C57   C238  S    
C90   C201  A    
O79   Zn27  S    
C188  C194  A    
C140  C172  A    
C85   O38   A    
C54   H56   S    
C220  H109  S    
C119  O63   A    
C157  C208  A    
C247  H137  S    
O36   Zn22  S    
O44   Zn13  S    
C116  O59   A    
O41   Zn9   S    
C18   C271  A    
C26   C43   A    
O39   Zn32  S    
C8    C26   A    
C155  C165  A    
C78   O32   A    
C28   C45   A    
C265  H11   S    
C170  C211  S    
C130  C148  A    
C237  H127  S    
O60   Zn2   S    
C41   C59   A    
C54   C89   A    
C231  C233  S    
C42   C60   A    
C39   H39   S    
C45   H45   S    
C44   C62   A    
C58   H60   S    
C45   C63   A    
C115  O58   A    
O5    Zn24  S    
C147  F13   S    
C153  C159  A    
C16   C33   A    
C219  C221  S    
C20   C38   A    
C90   H91   S    
C85   O91   A    
C94   C259  A    
C21   C39   A    
C187  C210  A    
C125  C142  A    
O16   Zn12  S    
C22   C40   A    
C96   C97   S    
C100  C102  S    
C11   C265  A    
C185  C212  A    
C71   O24   A    
O97   Zn13  S    
C121  O65   A    
C32   C50   A    
O99   Zn15  S    
C37   C54   A    
C128  C172  A    
C55   H58   S    
C226  C228  S    
C89   C255  A    
C139  C173  A    
O54   Zn22  S    
C219  H108  S    
C73   O26   A    
C69   C104  A    
C112  C248  S    
C191  H86   S    
O83   Zn17  S    
C143  F10   S    
C228  H118  S    
C168  C185  A    
C8    H26   S    
C229  O11   A    
C219  C236  D    
O72   Zn24  S    
O28   Zn23  S    
C254  H143  S    
C75   O81   A    
C142  C160  A    
C107  O51   A    
O27   Zn14  S    
C190  C201  A    
O80   Zn28  S    
C223  H113  S    
C168  C203  A    
C35   O19   A    
C241  C262  S    
C115  O70   A    
C118  O62   A    
C83   O89   A    
C123  C167  A    
C107  C204  S    
C218  O98   A    
C4    C21   A    
C66   H69   S    
O102  Zn18  S    
C139  C156  A    
C6    C23   A    
C9    C263  A    
C57   O6    A    
C10   C264  A    
C153  F4    S    
C53   C88   A    
O33   Zn19  S    
C126  H68   S    
C42   H42   S    
O62   Zn32  S    
O61   Zn25  S    
C5    H22   S    
C56   C92   A    
C227  C230  S    
C1    O93   A    
C2    O15   A    
C11   C29   A    
O17   Zn3   S    
C108  O49   A    
C261  H8    S    
C182  C214  A    
C222  C239  D    
C35   C236  S    
C135  C182  A    
C241  H130  S    
C194  H102  S    
C145  F12   S    
O38   Zn25  S    
C257  H4    S    
C217  H107  S    
