data_mof_unit_pretest_1109.cif
_audit_creation_date              2012-12-10T17:49:32-0500
_audit_creation_method            fapswitch 2.2
_symmetry_space_group_name_H-M    P1
_symmetry_Int_Tables_number       1
_space_group_crystal_system       triclinic
_cell_length_a                    14.681354
_cell_length_b                    14.83062
_cell_length_c                    15.880114
_cell_angle_alpha                 76.876213
_cell_angle_beta                  103.212751
_cell_angle_gamma                 115.242267
_cell_volume                      3011.53565716

loop_
_atom_site_label
_atom_site_type_symbol
_atom_type_description
_atom_site_fract_x
_atom_site_fract_y
_atom_site_fract_z
_atom_type_partial_charge
C1    C     C_R   0.879862 0.312803 0.517255 0.788960
C2    C     C_3   0.096306 0.481859 0.072486 -0.127780
C3    C     C_3   0.003077 0.501254 0.083234 0.234143
C4    C     C_3   0.004627 0.602535 0.027845 -0.360489
C5    C     C_3   0.006763 0.603148 0.930656 -0.362041
C6    C     C_1   0.001472 0.500835 0.175255 -0.093722
C7    C     C_1   0.001256 0.500748 0.825085 -0.096498
C8    C     C_1   0.000448 0.500474 0.749414 -0.166730
C9    C     C_R   0.811385 0.208579 0.543617 -0.047235
C10   C     C_R   0.190566 0.795206 0.492565 -0.126648
C11   C     C_R   0.780776 0.049169 0.638583 -0.194078
C12   C     C_R   0.000054 0.500072 0.659735 0.830746
C13   C     C_R   0.848449 0.140975 0.601286 -0.195752
C14   C     C_R   0.706208 0.182091 0.521166 -0.250444
C15   C     C_R   0.636736 0.091611 0.560006 0.085748
C16   C     C_R   0.675503 0.024386 0.619026 0.164236
C17   C     C_R   0.529757 0.064873 0.540319 0.070696
C18   C     C_R   0.463770 0.964941 0.568162 0.068692
C19   C     C_R   0.504259 0.905798 0.635375 -0.190968
C20   C     C_R   0.608667 0.934318 0.659433 -0.218544
C21   C     C_R   0.486224 0.134477 0.496175 -0.219950
C22   C     C_R   0.381168 0.103651 0.474382 -0.203959
C23   C     C_R   0.120848 0.687728 0.489362 0.803155
C24   C     C_R   0.317436 0.001500 0.487950 0.151201
C25   C     C_R   0.358899 0.929365 0.530280 0.014194
C26   C     C_R   0.213277 0.970862 0.456826 -0.193454
C27   C     C_R   0.150324 0.869071 0.460997 -0.202793
C28   C     C_R   0.296450 0.825363 0.526594 -0.058795
C29   C     C_R   0.712872 0.663540 0.352043 -0.309553
C30   C     C_R   0.796166 0.636777 0.377078 0.080512
C31   C     C_R   0.714272 0.508610 0.487461 0.010729
C32   C     C_R   0.626731 0.532002 0.465188 -0.022782
C33   C     C_R   0.628099 0.611704 0.395910 0.158916
C34   C     C_R   0.000108 0.500114 0.340286 0.829550
C35   C     C_R   0.539238 0.480455 0.509230 0.072653
C36   C     C_R   0.455427 0.511363 0.483919 0.075403
C37   C     C_R   0.460768 0.590825 0.413966 -0.176090
C38   C     C_R   0.545257 0.639535 0.370962 -0.184950
C39   C     C_R   0.532712 0.399202 0.577625 -0.235766
C40   C     C_R   0.448901 0.351531 0.621534 -0.189301
C41   C     C_R   0.368008 0.382303 0.599111 0.159063
C42   C     C_R   0.369274 0.461841 0.529700 -0.031180
C43   C     C_R   0.285264 0.333576 0.645619 -0.319366
C44   C     C_R   0.204004 0.363457 0.623227 0.086638
C45   C     C_3   0.096805 0.484664 0.973882 -0.421881
C46   C     C_R   0.283491 0.487918 0.509738 0.033164
C47   C     C_3   0.904864 0.415478 0.949314 -0.379934
C48   C     C_3   0.904913 0.415950 0.046817 -0.404781
C49   C     C_1   0.000611 0.500490 0.250676 -0.151875
C50   C     C_3   0.002345 0.500922 0.917446 0.297343
Cu1   Cu    Cu3+1 0.081750 0.475690 0.522550 0.970354
Cu2   Cu    Cu3+1 0.918250 0.524310 0.477450 0.939921
H1    H     H_    0.167259 0.545459 0.951197 0.191016
H2    H     H_    0.935511 0.613110 0.032915 0.159339
H3    H     H_    0.637081 0.885056 0.708933 0.145183
H4    H     H_    0.070194 0.848347 0.435424 0.162561
H5    H     H_    0.810784 0.998367 0.684112 0.133809
H6    H     H_    0.929554 0.160672 0.620234 0.148298
H7    H     H_    0.680048 0.233504 0.473066 0.151491
H8    H     H_    0.096150 0.412288 0.964330 0.153711
H9    H     H_    0.455654 0.838121 0.671600 0.174299
H10   H     H_    0.545940 0.700265 0.317755 0.149653
H11   H     H_    0.276909 0.546281 0.457507 0.146287
H12   H     H_    0.139643 0.325557 0.658579 0.120781
H13   H     H_    0.447574 0.289862 0.673927 0.143691
H14   H     H_    0.714823 0.724568 0.298880 0.139647
H15   H     H_    0.861806 0.676670 0.343412 0.124899
H16   H     H_    0.720689 0.450109 0.539639 0.124926
H17   H     H_    0.836030 0.425430 0.909192 0.169547
H18   H     H_    0.400650 0.617647 0.390431 0.160938
H19   H     H_    0.283321 0.272581 0.698812 0.139314
H20   H     H_    0.900565 0.341149 0.941043 0.165876
H21   H     H_    0.899614 0.341492 0.085163 0.167283
H22   H     H_    0.836356 0.426641 0.053290 0.177141
H23   H     H_    0.077452 0.665480 0.909989 0.184290
H24   H     H_    0.940993 0.617987 0.889190 0.161087
H25   H     H_    0.071034 0.667451 0.053001 0.203742
N1    N     N_R   0.795410 0.560790 0.443550 -0.178342
N2    N     N_R   0.204590 0.439170 0.556520 -0.177119
O1    O     O_R   0.977910 0.338120 0.529720 -0.591194
O2    O     O_R   0.839850 0.379180 0.491640 -0.591428
O3    O     O_R   0.069060 0.479460 0.639610 -0.565764
O4    O     O_R   0.931000 0.520530 0.601530 -0.581964
O5    O     O_R   0.160150 0.620820 0.508360 -0.553891
O6    O     O_R   0.022090 0.661880 0.470280 -0.591470
O7    O     O_R   0.069000 0.479470 0.398470 -0.572284
O8    O     O_R   0.930940 0.520540 0.360390 -0.581934
H26   H     H_    0.085795 0.404191 0.106066 0.129135
C51   C     C_2   0.197570 0.552048 0.115500 0.842197
O9    O     O_2   0.233537 0.641715 0.086256 -0.608172
O10   O     O_R   0.250218 0.513179 0.189025 -0.768674
H27   H     H_    0.316637 0.566737 0.212481 0.331401
C52   C     C_2   0.345001 0.751782 0.545059 0.838763
O11   O     O_2   0.400792 0.756955 0.495987 -0.607230
O12   O     O_R   0.329368 0.679032 0.619872 -0.755191
H28   H     H_    0.369524 0.635921 0.626988 0.328619
H29   H     H_    0.350131 0.159465 0.442426 0.150501
H30   H     H_    0.531387 0.214010 0.481295 0.144362
H31   H     H_    0.180655 0.025965 0.427150 0.139311
H32   H     H_    0.591290 0.370061 0.599073 0.132880

loop_
_geom_bond_atom_site_label_1
_geom_bond_atom_site_label_2
_ccdc_geom_bond_type
C10   C27   A    
C45   H8    S    
C52   O11   D    
Cu2   O4    S    
C41   C42   A    
C36   C42   A    
O12   H28   S    
C9    C14   A    
C3    C6    S    
C7    C8    T    
C44   H12   S    
C25   C28   A    
C14   H7    S    
C26   C27   A    
C37   C38   A    
C21   C22   A    
Cu2   O6    S    
C24   C26   A    
C42   C46   A    
C46   N2    A    
C19   H9    S    
C1    O2    A    
C15   C16   A    
C29   C33   A    
C3    C48   S    
C18   C19   A    
C34   O7    A    
C9    C13   A    
Cu1   O1    S    
C47   H17   S    
C47   C48   S    
C2    H26   S    
C51   O10   S    
C30   H15   S    
C8    C12   S    
C26   H31   S    
C45   H1    S    
C52   O12   S    
C22   H29   S    
C37   H18   S    
C41   C43   A    
C18   C25   A    
C20   H3    S    
Cu2   N1    S    
Cu1   O7    S    
C47   C50   S    
Cu2   O8    S    
C2    C45   S    
C31   H16   S    
C23   O5    A    
Cu1   Cu2   S    
C32   C35   A    
C48   H22   S    
C1    C9    S    
C24   C25   A    
C39   C40   A    
C27   H4    S    
C13   H6    S    
C17   C21   A    
C12   O4    A    
C28   C52   S    
C35   C36   A    
C5    H23   S    
C2    C51   S    
C35   C39   A    
C43   C44   A    
C29   C30   A    
C11   C16   A    
C31   C32   A    
C16   C20   A    
C17   C18   A    
C12   O3    A    
Cu1   O3    S    
C40   C41   A    
C40   H13   S    
C22   C24   A    
C5    C50   S    
C3    C4    S    
O10   H27   S    
C31   N1    A    
C10   C28   A    
C15   C17   A    
C36   C37   A    
C34   C49   S    
C43   H19   S    
C4    H2    S    
C48   H21   S    
C44   N2    A    
C7    C50   S    
C4    C5    S    
C10   C23   S    
C33   C38   A    
C46   H11   S    
C32   C33   A    
C19   C20   A    
C2    C3    S    
C4    H25   S    
C21   H30   S    
C11   C13   A    
C39   H32   S    
C45   C50   S    
C5    H24   S    
C34   O8    A    
C6    C49   T    
Cu2   O2    S    
Cu1   N2    S    
C47   H20   S    
C29   H14   S    
C30   N1    A    
C23   O6    A    
C1    O1    A    
C14   C15   A    
C51   O9    D    
C11   H5    S    
Cu1   O5    S    
C38   H10   S    
