data_mof_unit_pretest_1780.cif
_audit_creation_date              2012-10-26T17:56:28-0400
_audit_creation_method            fapswitch 2.2
_symmetry_space_group_name_H-M    P1
_symmetry_Int_Tables_number       1
_space_group_crystal_system       tetragonal
_cell_length_a                    21.72087
_cell_length_b                    21.72087
_cell_length_c                    35.682846
_cell_angle_alpha                 90.0
_cell_angle_beta                  90.0
_cell_angle_gamma                 90.0
_cell_volume                      16835.0309181

loop_
_atom_site_label
_atom_site_type_symbol
_atom_type_description
_atom_site_fract_x
_atom_site_fract_y
_atom_site_fract_z
_atom_type_partial_charge
C1    C     C_R   0.500000 0.881418 0.000000 0.527660
C2    C     C_1   1.000000 0.500000 0.733125 -0.015323
C3    C     C_R   0.956462 0.464447 0.634117 0.044864
C4    C     C_R   0.535553 0.043537 0.365883 0.044864
C5    C     C_R   0.043538 0.464447 0.365883 0.044864
C6    C     C_R   0.464447 0.956462 0.365883 0.044864
C7    C     C_R   0.956462 0.535553 0.365883 0.044864
C8    C     C_R   0.035553 0.456463 0.134117 0.044864
C9    C     C_R   0.543538 0.035553 0.134117 0.044864
C10   C     C_R   0.964447 0.543537 0.134117 0.044864
C11   C     C_R   0.456463 0.964447 0.134117 0.044864
C12   C     C_R   0.035553 0.543537 0.865883 0.044864
C13   C     C_1   0.500000 0.000000 0.266875 -0.015323
C14   C     C_R   0.543537 0.964447 0.865883 0.044864
C15   C     C_R   0.964447 0.456462 0.865883 0.044864
C16   C     C_R   0.456462 0.035553 0.865883 0.044864
C17   C     C_R   0.500000 0.000000 0.613854 0.016882
C18   C     C_R   1.000000 0.500000 0.613854 0.016882
C19   C     C_R   0.500000 0.000000 0.386145 0.016882
C20   C     C_R   0.000000 0.500000 0.386145 0.016882
C21   C     C_R   0.000000 0.500000 0.113854 0.016882
C22   C     C_R   0.500000 0.000000 0.113854 0.016882
C23   C     C_R   1.000000 0.500000 0.886145 0.016882
C24   C     C_1   0.000000 0.500000 0.266875 -0.015323
C25   C     C_R   0.500000 0.000000 0.886145 0.016882
C26   C     C_R   0.500000 1.000000 0.692847 -0.012856
C27   C     C_R   1.000000 0.500000 0.692847 -0.012856
C28   C     C_R   0.500000 0.000000 0.307152 -0.012856
C29   C     C_R   0.000000 0.500000 0.307152 -0.012856
C30   C     C_R   0.000000 0.500000 0.192848 -0.012856
C31   C     C_R   0.500000 0.000000 0.192848 -0.012856
C32   C     C_R   1.000000 0.500000 0.807152 -0.012856
C33   C     C_R   0.500000 1.000000 0.807152 -0.012856
C34   C     C_3   0.545395 0.818848 0.065875 -0.240039
C35   C     C_1   0.000000 0.500000 0.233125 -0.015323
C36   C     C_3   0.558705 0.781131 0.101403 -0.313881
C37   C     C_3   0.576465 0.823010 0.134038 -0.429179
C38   C     C_3   0.181152 0.545395 0.065875 -0.240039
C39   C     C_3   0.218869 0.558705 0.101403 -0.313881
C40   C     C_3   0.176990 0.576465 0.134038 -0.429178
C41   C     C_3   0.454605 0.181152 0.065875 -0.240039
C42   C     C_3   0.441295 0.218869 0.101403 -0.313881
C43   C     C_3   0.423535 0.176990 0.134038 -0.429179
C44   C     C_3   0.818848 0.454605 0.065875 -0.240039
C45   C     C_3   0.781131 0.441295 0.101403 -0.313881
C46   C     C_1   0.500000 0.000000 0.233125 -0.015323
C47   C     C_3   0.823010 0.423535 0.134038 -0.429178
C48   C     C_3   0.545395 0.181152 0.934125 -0.240039
C49   C     C_3   0.558705 0.218869 0.898597 -0.313881
C50   C     C_3   0.576465 0.176990 0.865962 -0.429179
C51   C     C_3   0.181152 0.454605 0.934125 -0.240039
C52   C     C_3   0.218869 0.441295 0.898597 -0.313881
C53   C     C_3   0.176990 0.423535 0.865962 -0.429178
C54   C     C_3   0.454605 0.818848 0.934125 -0.240039
C55   C     C_3   0.441295 0.781131 0.898597 -0.313881
C56   C     C_3   0.423535 0.823010 0.865962 -0.429179
C57   C     C_1   0.000000 0.500000 0.766875 -0.015323
C58   C     C_3   0.818848 0.545395 0.934125 -0.240038
C59   C     C_3   0.781131 0.558705 0.898597 -0.313881
C60   C     C_3   0.823010 0.576465 0.865962 -0.429178
C61   C     C_3   0.045394 0.318848 0.565875 -0.240038
C62   C     C_3   0.058704 0.281131 0.601403 -0.313881
C63   C     C_3   0.076464 0.323010 0.634038 -0.429179
C64   C     C_3   0.681152 0.045395 0.565875 -0.240039
C65   C     C_3   0.718869 0.058705 0.601403 -0.313881
C66   C     C_3   0.676990 0.076465 0.634038 -0.429179
C67   C     C_3   0.954605 0.681152 0.565875 -0.240038
C68   C     C_1   0.500000 1.000000 0.766875 -0.015323
C69   C     C_3   0.941295 0.718869 0.601403 -0.313881
C70   C     C_3   0.923535 0.676990 0.634038 -0.429179
C71   C     C_3   0.318848 0.954605 0.565875 -0.240039
C72   C     C_3   0.281131 0.941295 0.601403 -0.313881
C73   C     C_3   0.323010 0.923535 0.634038 -0.429179
C74   C     C_3   0.045395 0.681152 0.434125 -0.240039
C75   C     C_3   0.058705 0.718869 0.398597 -0.313881
C76   C     C_3   0.076465 0.676990 0.365962 -0.429179
C77   C     C_3   0.681152 0.954605 0.434125 -0.240038
C78   C     C_3   0.718869 0.941295 0.398597 -0.313881
C79   C     C_R   0.521302 0.718338 0.031431 -0.111108
C80   C     C_3   0.676990 0.923535 0.365962 -0.429178
C81   C     C_3   0.954605 0.318848 0.434125 -0.240038
C82   C     C_3   0.941295 0.281131 0.398597 -0.313880
C83   C     C_3   0.923535 0.323010 0.365962 -0.429178
C84   C     C_3   0.318848 0.045395 0.434125 -0.240039
C85   C     C_3   0.281131 0.058705 0.398597 -0.313881
C86   C     C_3   0.323010 0.076465 0.365962 -0.429179
C87   C     C_R   0.281662 0.521302 0.031431 -0.111108
C88   C     C_R   0.478698 0.281662 0.031431 -0.111108
C89   C     C_R   0.118582 0.500000 0.000000 0.527659
C90   C     C_R   0.718338 0.478698 0.031431 -0.111108
C91   C     C_R   0.521302 0.281662 0.968569 -0.111107
C92   C     C_R   0.281662 0.478698 0.968569 -0.111107
C93   C     C_R   0.478698 0.718338 0.968569 -0.111108
C94   C     C_R   0.718338 0.521302 0.968569 -0.111108
C95   C     C_R   0.021302 0.218338 0.531431 -0.111108
C96   C     C_R   0.781662 0.021302 0.531431 -0.111108
C97   C     C_R   0.978698 0.781662 0.531431 -0.111108
C98   C     C_R   0.218338 0.978698 0.531431 -0.111107
C99   C     C_R   0.021302 0.781662 0.468569 -0.111108
C100  C     C_R   0.500000 0.118582 0.000000 0.527659
C101  C     C_R   0.781661 0.978698 0.468569 -0.111107
C102  C     C_R   0.978698 0.218338 0.468569 -0.111108
C103  C     C_R   0.218338 0.021302 0.468569 -0.111107
C104  C     C_R   0.380724 0.500000 0.000000 0.553292
C105  C     C_R   0.500000 0.380724 0.000000 0.553292
C106  C     C_R   0.619275 0.500000 0.000000 0.553292
C107  C     C_R   0.500000 0.619275 0.000000 0.553292
C108  C     C_R   0.880724 1.000000 0.500000 0.553292
C109  C     C_R   1.000000 0.880724 0.500000 0.553292
C110  C     C_R   0.119275 1.000000 0.500000 0.553292
C111  C     C_R   0.881418 0.500000 0.000000 0.527660
C112  C     C_R   0.000000 0.119275 0.500000 0.553292
C113  C     C_R   0.521938 0.782748 0.031983 -0.014875
C114  C     C_R   0.217252 0.521938 0.031983 -0.014876
C115  C     C_R   0.478062 0.217252 0.031983 -0.014875
C116  C     C_R   0.782748 0.478062 0.031983 -0.014876
C117  C     C_R   0.521938 0.217252 0.968017 -0.014876
C118  C     C_R   0.217252 0.478062 0.968017 -0.014875
C119  C     C_R   0.478062 0.782748 0.968017 -0.014875
C120  C     C_R   0.782748 0.521938 0.968017 -0.014875
C121  C     C_R   0.021938 0.282748 0.531983 -0.014876
C122  C     C_R   0.000000 0.381418 0.500000 0.527659
C123  C     C_R   0.717252 0.021938 0.531983 -0.014876
C124  C     C_R   0.978062 0.717252 0.531983 -0.014876
C125  C     C_R   0.282748 0.978062 0.531983 -0.014876
C126  C     C_R   0.021938 0.717252 0.468017 -0.014876
C127  C     C_R   0.717252 0.978062 0.468017 -0.014876
C128  C     C_R   0.978062 0.282748 0.468017 -0.014876
C129  C     C_R   0.282748 0.021938 0.468017 -0.014876
C130  C     C_R   0.500000 0.000000 0.927635 0.552834
C131  C     C_R   1.000000 0.500000 0.927635 0.552834
C132  C     C_R   0.500000 0.000000 0.072365 0.552834
C133  C     C_R   0.618582 1.000000 0.500000 0.527659
C134  C     C_R   0.000000 0.500000 0.072365 0.552834
C135  C     C_R   0.000000 0.500000 0.427635 0.552834
C136  C     C_R   0.500000 1.000000 0.427635 0.552834
C137  C     C_R   1.000000 0.500000 0.572365 0.552834
C138  C     C_R   0.500000 1.000000 0.572365 0.552834
C139  C     C_R   0.500000 0.686430 0.000000 -0.008025
C140  C     C_R   0.313570 0.500000 0.000000 -0.008025
C141  C     C_R   0.500000 0.313570 0.000000 -0.008025
C142  C     C_R   0.686430 0.500000 0.000000 -0.008025
C143  C     C_R   1.000000 0.186429 0.500000 -0.008025
C144  C     C_R   0.000000 0.618582 0.500000 0.527659
C145  C     C_R   0.813570 1.000000 0.500000 -0.008025
C146  C     C_R   0.000000 0.813570 0.500000 -0.008025
C147  C     C_R   0.186429 0.000000 0.500000 -0.008025
C148  C     C_R   0.500000 0.814537 0.000000 0.046673
C149  C     C_R   0.185463 0.500000 0.000000 0.046673
C150  C     C_R   0.500000 0.185463 0.000000 0.046673
C151  C     C_R   0.814537 0.500000 0.000000 0.046673
C152  C     C_R   1.000000 0.314537 0.500000 0.046673
C153  C     C_R   0.685463 1.000000 0.500000 0.046673
C154  C     C_R   1.000000 0.685463 0.500000 0.046673
C155  C     C_R   0.381418 0.000000 0.500000 0.527659
C156  C     C_R   0.314537 0.000000 0.500000 0.046673
C157  C     C_R   0.535145 0.956941 0.673296 -0.102309
C158  C     C_R   0.043059 0.535145 0.673296 -0.102309
C159  C     C_R   0.464855 0.043059 0.673296 -0.102309
C160  C     C_R   0.956941 0.464855 0.673296 -0.102309
C161  C     C_R   0.535145 0.043059 0.326703 -0.102309
C162  C     C_R   0.043059 0.464855 0.326703 -0.102309
C163  C     C_R   0.464855 0.956941 0.326703 -0.102309
C164  C     C_R   0.956941 0.535145 0.326703 -0.102310
C165  C     C_R   0.035145 0.456941 0.173296 -0.102309
C166  C     C_1   0.500000 1.000000 0.733125 -0.015323
C167  C     C_R   0.543059 0.035145 0.173296 -0.102309
C168  C     C_R   0.964855 0.543059 0.173296 -0.102309
C169  C     C_R   0.456941 0.964855 0.173296 -0.102309
C170  C     C_R   0.035145 0.543059 0.826703 -0.102309
C171  C     C_R   0.543059 0.964855 0.826703 -0.102309
C172  C     C_R   0.964855 0.456941 0.826703 -0.102309
C173  C     C_R   0.456941 0.035145 0.826703 -0.102309
C174  C     C_R   0.535553 0.956462 0.634117 0.044864
C175  C     C_R   0.043537 0.535553 0.634117 0.044864
C176  C     C_R   0.464447 0.043537 0.634117 0.044864
Cu1   Cu    Cu3+1 0.438290 0.000000 0.000000 1.018408
Cu2   Cu    Cu3+1 0.500000 0.500000 0.962840 0.931847
Cu3   Cu    Cu3+1 1.000000 1.000000 0.537160 0.931848
Cu4   Cu    Cu3+1 0.000000 0.000000 0.462840 0.931847
Cu5   Cu    Cu3+1 0.000000 0.438290 0.000000 1.018408
Cu6   Cu    Cu3+1 0.561710 0.000000 0.000000 1.018407
Cu7   Cu    Cu3+1 0.000000 0.561710 0.000000 1.018407
Cu8   Cu    Cu3+1 0.938290 0.500000 0.500000 1.018408
Cu9   Cu    Cu3+1 0.500000 0.938290 0.500000 1.018408
Cu10  Cu    Cu3+1 0.061710 0.500000 0.500000 1.018408
Cu11  Cu    Cu3+1 0.500000 0.061710 0.500000 1.018407
Cu12  Cu    Cu3+1 0.500000 0.500000 0.037160 0.931848
H1    H     H_    0.538117 0.692251 0.055091 0.130760
H2    H     H_    0.807749 0.038117 0.555091 0.130759
H3    H     H_    0.751146 0.097453 0.596110 0.166256
H4    H     H_    0.656616 0.088215 0.557657 0.172014
H5    H     H_    0.645943 0.010361 0.573215 0.174782
H6    H     H_    0.882147 0.649393 0.626805 0.169772
H7    H     H_    0.962077 0.645429 0.641017 0.177141
H8    H     H_    0.913015 0.705400 0.659099 0.154975
H9    H     H_    0.982917 0.745532 0.609502 0.179997
H10   H     H_    0.902547 0.751146 0.596110 0.166256
H11   H     H_    0.911785 0.656616 0.557657 0.172014
H12   H     H_    0.989639 0.645943 0.573215 0.174782
H13   H     H_    0.961883 0.807749 0.555091 0.130760
H14   H     H_    0.350607 0.882147 0.626805 0.169772
H15   H     H_    0.354571 0.962077 0.641017 0.177141
H16   H     H_    0.294600 0.913015 0.659099 0.154975
H17   H     H_    0.254468 0.982917 0.609502 0.179997
H18   H     H_    0.248854 0.902547 0.596110 0.166256
H19   H     H_    0.343384 0.911785 0.557657 0.172014
H20   H     H_    0.354056 0.989639 0.573215 0.174782
H21   H     H_    0.117852 0.649393 0.373195 0.169772
H22   H     H_    0.037923 0.645429 0.358983 0.177141
H23   H     H_    0.086985 0.705400 0.340900 0.154975
H24   H     H_    0.192251 0.961883 0.555091 0.130759
H25   H     H_    0.017083 0.745532 0.390498 0.179997
H26   H     H_    0.097453 0.751146 0.403889 0.166256
H27   H     H_    0.088215 0.656616 0.442343 0.172014
H28   H     H_    0.010361 0.645943 0.426785 0.174782
H29   H     H_    0.649393 0.882147 0.373195 0.169772
H30   H     H_    0.645429 0.962077 0.358983 0.177141
H31   H     H_    0.705400 0.913015 0.340900 0.154975
H32   H     H_    0.745532 0.982917 0.390498 0.179997
H33   H     H_    0.751146 0.902547 0.403889 0.166256
H34   H     H_    0.656616 0.911785 0.442343 0.172014
H35   H     H_    0.038117 0.807749 0.444909 0.130760
H36   H     H_    0.645943 0.989639 0.426785 0.174782
H37   H     H_    0.882147 0.350607 0.373195 0.169772
H38   H     H_    0.962077 0.354571 0.358983 0.177141
H39   H     H_    0.913015 0.294600 0.340900 0.154975
H40   H     H_    0.982917 0.254468 0.390498 0.179997
H41   H     H_    0.902547 0.248854 0.403889 0.166256
H42   H     H_    0.911785 0.343384 0.442343 0.172014
H43   H     H_    0.989639 0.354056 0.426785 0.174782
H44   H     H_    0.350607 0.117853 0.373195 0.169772
H45   H     H_    0.354571 0.037923 0.358983 0.177141
H46   H     H_    0.807749 0.961883 0.444909 0.130759
H47   H     H_    0.294600 0.086985 0.340900 0.154975
H48   H     H_    0.254468 0.017083 0.390498 0.179997
H49   H     H_    0.248854 0.097453 0.403889 0.166256
H50   H     H_    0.343384 0.088215 0.442343 0.172014
H51   H     H_    0.354056 0.010361 0.426785 0.174782
H52   H     H_    0.961884 0.192251 0.444909 0.130760
H53   H     H_    0.192251 0.038117 0.444909 0.130759
H54   H     H_    0.562756 0.923810 0.688562 0.148391
H55   H     H_    0.076190 0.562756 0.688562 0.148391
H56   H     H_    0.437244 0.076189 0.688562 0.148391
H57   H     H_    0.307749 0.538117 0.055091 0.130759
H58   H     H_    0.923810 0.437244 0.688562 0.148391
H59   H     H_    0.562756 0.076190 0.311437 0.148391
H60   H     H_    0.076190 0.437244 0.311437 0.148391
H61   H     H_    0.437244 0.923810 0.311437 0.148391
H62   H     H_    0.923810 0.562756 0.311437 0.148391
H63   H     H_    0.062756 0.423810 0.188562 0.148391
H64   H     H_    0.576190 0.062756 0.188562 0.148391
H65   H     H_    0.937244 0.576189 0.188562 0.148391
H66   H     H_    0.423810 0.937244 0.188562 0.148391
H67   H     H_    0.062756 0.576189 0.811438 0.148391
H68   H     H_    0.461883 0.307749 0.055091 0.130760
H69   H     H_    0.576190 0.937244 0.811438 0.148391
H70   H     H_    0.937244 0.423810 0.811438 0.148391
H71   H     H_    0.423810 0.062756 0.811438 0.148391
H72   H     H_    0.617853 0.850607 0.126805 0.169772
H73   H     H_    0.537923 0.854571 0.141017 0.177141
H74   H     H_    0.586985 0.794600 0.159099 0.154975
H75   H     H_    0.517083 0.754468 0.109502 0.179997
H76   H     H_    0.597453 0.748854 0.096111 0.166256
H77   H     H_    0.588215 0.843384 0.057657 0.172014
H78   H     H_    0.510361 0.854057 0.073215 0.174782
H79   H     H_    0.692251 0.461883 0.055091 0.130759
H80   H     H_    0.149393 0.617853 0.126805 0.169772
H81   H     H_    0.145429 0.537923 0.141017 0.177141
H82   H     H_    0.205400 0.586985 0.159099 0.154975
H83   H     H_    0.245532 0.517083 0.109502 0.179997
H84   H     H_    0.251146 0.597453 0.096111 0.166256
H85   H     H_    0.156616 0.588215 0.057657 0.172014
H86   H     H_    0.145943 0.510361 0.073215 0.174782
H87   H     H_    0.382147 0.149393 0.126805 0.169772
H88   H     H_    0.462077 0.145429 0.141017 0.177141
H89   H     H_    0.413015 0.205400 0.159099 0.154975
H90   H     H_    0.538116 0.307749 0.944909 0.130759
H91   H     H_    0.482917 0.245532 0.109502 0.179997
H92   H     H_    0.402547 0.251146 0.096111 0.166257
H93   H     H_    0.411785 0.156616 0.057657 0.172014
H94   H     H_    0.489639 0.145943 0.073215 0.174782
H95   H     H_    0.850607 0.382147 0.126805 0.169772
H96   H     H_    0.854571 0.462077 0.141017 0.177141
H97   H     H_    0.794600 0.413015 0.159099 0.154975
H98   H     H_    0.754468 0.482917 0.109502 0.179997
H99   H     H_    0.748854 0.402547 0.096111 0.166257
H100  H     H_    0.843384 0.411785 0.057657 0.172014
H101  H     H_    0.307749 0.461883 0.944909 0.130759
H102  H     H_    0.854057 0.489639 0.073215 0.174782
H103  H     H_    0.617853 0.149393 0.873195 0.169772
H104  H     H_    0.537923 0.145429 0.858983 0.177141
H105  H     H_    0.586985 0.205400 0.840901 0.154975
H106  H     H_    0.517083 0.245532 0.890498 0.179997
H107  H     H_    0.597453 0.251146 0.903889 0.166256
H108  H     H_    0.588215 0.156616 0.942343 0.172014
H109  H     H_    0.510361 0.145943 0.926785 0.174782
H110  H     H_    0.149393 0.382147 0.873195 0.169772
H111  H     H_    0.145429 0.462077 0.858983 0.177141
H112  H     H_    0.461883 0.692251 0.944909 0.130760
H113  H     H_    0.205400 0.413015 0.840901 0.154975
H114  H     H_    0.245532 0.482917 0.890498 0.179997
H115  H     H_    0.251146 0.402547 0.903889 0.166256
H116  H     H_    0.156616 0.411785 0.942343 0.172014
H117  H     H_    0.145943 0.489639 0.926785 0.174782
H118  H     H_    0.382147 0.850607 0.873195 0.169772
H119  H     H_    0.462077 0.854571 0.858983 0.177141
H120  H     H_    0.413015 0.794600 0.840901 0.154975
H121  H     H_    0.482917 0.754468 0.890498 0.179997
H122  H     H_    0.402547 0.748854 0.903889 0.166257
H123  H     H_    0.692251 0.538117 0.944909 0.130759
H124  H     H_    0.411785 0.843384 0.942343 0.172014
H125  H     H_    0.489639 0.854057 0.926785 0.174782
H126  H     H_    0.850607 0.617853 0.873195 0.169772
H127  H     H_    0.854571 0.537923 0.858983 0.177141
H128  H     H_    0.794600 0.586985 0.840901 0.154975
H129  H     H_    0.754468 0.517083 0.890498 0.179997
H130  H     H_    0.748854 0.597453 0.903889 0.166256
H131  H     H_    0.843384 0.588215 0.942343 0.172014
H132  H     H_    0.854057 0.510361 0.926785 0.174782
H133  H     H_    0.117852 0.350606 0.626806 0.169772
H134  H     H_    0.038116 0.192251 0.555091 0.130760
H135  H     H_    0.037922 0.354571 0.641017 0.177141
H136  H     H_    0.086984 0.294599 0.659100 0.154975
H137  H     H_    0.017082 0.254468 0.609502 0.179997
H138  H     H_    0.097452 0.248853 0.596111 0.166256
H139  H     H_    0.088214 0.343384 0.557657 0.172014
H140  H     H_    0.010361 0.354056 0.573215 0.174782
H141  H     H_    0.649393 0.117853 0.626805 0.169772
H142  H     H_    0.645429 0.037923 0.641017 0.177141
H143  H     H_    0.705400 0.086985 0.659099 0.154975
H144  H     H_    0.745532 0.017083 0.609502 0.179997
I1    I     I_    0.594666 0.890384 0.608738 -0.380995
I2    I     I_    0.609616 0.094666 0.108738 -0.380995
I3    I     I_    0.905334 0.609616 0.108738 -0.380995
I4    I     I_    0.390384 0.905334 0.108738 -0.380994
I5    I     I_    0.094666 0.609616 0.891262 -0.380995
I6    I     I_    0.609616 0.905334 0.891262 -0.380995
I7    I     I_    0.905334 0.390384 0.891262 -0.380994
I8    I     I_    0.390384 0.094666 0.891262 -0.380994
I9    I     I_    0.109616 0.594666 0.608738 -0.380995
I10   I     I_    0.405334 0.109616 0.608738 -0.380994
I11   I     I_    0.890384 0.405334 0.608738 -0.380994
I12   I     I_    0.594666 0.109616 0.391262 -0.380995
I13   I     I_    0.109616 0.405334 0.391262 -0.380994
I14   I     I_    0.405334 0.890384 0.391262 -0.380994
I15   I     I_    0.890384 0.594666 0.391262 -0.380994
I16   I     I_    0.094666 0.390384 0.108738 -0.380995
O1    O     O_R   0.447910 0.909920 0.999900 -0.503948
O2    O     O_R   0.590080 0.947910 0.499900 -0.503949
O3    O     O_R   0.052090 0.590080 0.499900 -0.503949
O4    O     O_R   0.409920 0.052090 0.499900 -0.503949
O5    O     O_R   0.947910 0.590080 0.500100 -0.503949
O6    O     O_R   0.590080 0.052090 0.500100 -0.503949
O7    O     O_R   0.052090 0.409920 0.500100 -0.503949
O8    O     O_R   0.409920 0.947910 0.500100 -0.503948
O9    O     O_R   0.447910 0.000100 0.945520 -0.482816
O10   O     O_R   0.999900 0.447910 0.945520 -0.482816
O11   O     O_R   0.552090 0.999900 0.945520 -0.482816
O12   O     O_R   0.090080 0.447910 0.999900 -0.503949
O13   O     O_R   0.000100 0.552090 0.945520 -0.482816
O14   O     O_R   0.447910 0.999900 0.054480 -0.482816
O15   O     O_R   0.999900 0.552090 0.054480 -0.482816
O16   O     O_R   0.552090 0.000100 0.054480 -0.482816
O17   O     O_R   0.000100 0.447910 0.054480 -0.482816
O18   O     O_R   0.947910 0.500100 0.445520 -0.482816
O19   O     O_R   0.499900 0.947910 0.445520 -0.482816
O20   O     O_R   0.052090 0.499900 0.445520 -0.482816
O21   O     O_R   0.500100 0.052090 0.445520 -0.482816
O22   O     O_R   0.947910 0.499900 0.554480 -0.482816
O23   O     O_R   0.552090 0.090080 0.999900 -0.503949
O24   O     O_R   0.499900 0.052090 0.554480 -0.482816
O25   O     O_R   0.052090 0.500100 0.554480 -0.482816
O26   O     O_R   0.500100 0.947910 0.554480 -0.482816
O27   O     O_R   0.409810 0.500100 0.031350 -0.512535
O28   O     O_R   0.499900 0.409810 0.031350 -0.512535
O29   O     O_R   0.590190 0.499900 0.031350 -0.512536
O30   O     O_R   0.500100 0.590190 0.031350 -0.512536
O31   O     O_R   0.409810 0.499900 0.968650 -0.512536
O32   O     O_R   0.499900 0.590190 0.968650 -0.512536
O33   O     O_R   0.590190 0.500100 0.968650 -0.512536
O34   O     O_R   0.909920 0.552090 0.999900 -0.503949
O35   O     O_R   0.500100 0.409810 0.968650 -0.512536
O36   O     O_R   0.909810 0.000100 0.531350 -0.512535
O37   O     O_R   0.999900 0.909810 0.531350 -0.512535
O38   O     O_R   0.090190 0.999900 0.531350 -0.512536
O39   O     O_R   0.000100 0.090190 0.531350 -0.512536
O40   O     O_R   0.909810 0.999900 0.468650 -0.512535
O41   O     O_R   0.999900 0.090190 0.468650 -0.512536
O42   O     O_R   0.090190 0.000100 0.468650 -0.512536
O43   O     O_R   0.000100 0.909810 0.468650 -0.512535
O44   O     O_R   0.447910 0.090080 0.000100 -0.503949
O45   O     O_R   0.090080 0.552090 0.000100 -0.503949
O46   O     O_R   0.552090 0.909920 0.000100 -0.503949
O47   O     O_R   0.909920 0.447910 0.000100 -0.503948
O48   O     O_R   0.947910 0.409920 0.499900 -0.503948

loop_
_geom_bond_atom_site_label_1
_geom_bond_atom_site_label_2
_ccdc_geom_bond_type
C16   C173  A    
C174  I1    S    
C79   C139  A    
C111  O34   A    
C108  O36   A    
C27   C158  A    
C96   C145  A    
C12   C23   A    
C61   H140  S    
C97   C124  A    
Cu12  O29   S    
C38   C114  S    
C66   H143  S    
Cu1   Cu6   S    
C51   C118  S    
Cu8   O22   S    
C63   H136  S    
C51   H117  S    
C70   H7    S    
C10   I3    S    
C4    I12   S    
C90   C116  A    
Cu2   Cu12  S    
C71   H19   S    
C32   C172  A    
C122  O48   A    
C59   C60   S    
C32   C57   S    
Cu10  O20   S    
C137  O22   A    
C64   H4    S    
C12   I5    S    
C110  O38   A    
C155  C156  S    
C9    I2    S    
Cu5   Cu7   S    
C10   C21   A    
C108  O40   A    
C86   H45   S    
C11   I4    S    
Cu5   O12   S    
C51   C52   S    
Cu12  O27   S    
C67   H12   S    
C26   C159  A    
C38   H86   S    
C72   H18   S    
C43   H88   S    
C100  C150  S    
C119  C148  A    
C82   H40   S    
C45   H98   S    
C104  C140  S    
C54   H125  S    
C91   H90   S    
C164  H62   S    
C75   C76   S    
C93   C139  A    
C163  H61   S    
Cu6   O46   S    
C65   H144  S    
C126  C154  A    
C82   H41   S    
C31   C167  A    
C11   C169  A    
C81   C128  S    
C56   H120  S    
C159  H56   S    
C39   C40   S    
C7    C164  A    
C136  O19   A    
C76   H22   S    
C16   C25   A    
C132  O14   A    
C72   C73   S    
C129  C156  A    
C161  H59   S    
C40   H82   S    
Cu11  O21   S    
C90   H79   S    
C64   C65   S    
C15   C172  A    
C49   H107  S    
C144  C154  S    
C69   C70   S    
C105  C141  S    
C1    O46   A    
C3    I11   S    
C138  O24   A    
C6    C163  A    
C44   C116  S    
C10   C168  A    
C79   H1    S    
C101  H46   S    
C4    C161  A    
C15   I7    S    
C50   H103  S    
C62   H137  S    
C68   C166  T    
Cu1   O14   S    
Cu6   O16   S    
C87   C140  A    
C7    I15   S    
C2    C57   T    
C103  C147  A    
C60   H128  S    
C5    C20   A    
C85   C86   S    
C6    C19   A    
C73   H15   S    
C101  C145  A    
Cu9   O19   S    
C170  H67   S    
C107  O32   A    
C113  C148  A    
C36   C37   S    
C55   H122  S    
C173  H71   S    
C89   O45   A    
C63   H135  S    
C38   C39   S    
C78   C80   S    
Cu9   Cu11  S    
C98   C147  A    
C14   I6    S    
C61   C121  S    
C96   H2    S    
C58   H131  S    
C92   C118  A    
C37   H74   S    
C59   H130  S    
Cu2   O35   S    
Cu1   O1    S    
C94   C120  A    
C128  C152  A    
C98   C125  A    
C65   H3    S    
Cu9   O26   S    
C31   C46   S    
Cu7   O45   S    
C48   H108  S    
C157  C174  A    
C133  O2    A    
C54   C119  S    
C162  H60   S    
C132  O16   A    
C52   H115  S    
C53   H110  S    
C41   C115  S    
Cu3   O36   S    
C39   H83   S    
C28   C161  A    
C87   H57   S    
C99   C126  A    
C99   H35   S    
C94   H123  S    
C111  O47   A    
C94   C142  A    
C36   H75   S    
C135  O20   A    
C41   H94   S    
C80   H29   S    
C75   H25   S    
C167  H64   S    
C122  C152  S    
C157  H54   S    
C42   H92   S    
C43   H89   S    
C112  O41   A    
C23   C131  S    
C155  O4    A    
C47   H95   S    
Cu8   O5    S    
C82   C83   S    
C159  C176  A    
C79   C113  A    
C81   H43   S    
C69   H10   S    
C155  O8    A    
C84   H51   S    
C88   C141  A    
C16   I8    S    
Cu2   O32   S    
C52   C53   S    
Cu4   O43   S    
C54   C55   S    
C120  C151  A    
C96   C123  A    
C29   C162  A    
Cu10  O25   S    
C30   C165  A    
C97   H13   S    
C14   C171  A    
C56   H119  S    
Cu10  O3    S    
C48   C117  S    
C8    I16   S    
C86   H44   S    
Cu6   O23   S    
C61   H139  S    
C88   C115  A    
C53   H113  S    
C71   C72   S    
Cu2   O33   S    
Cu12  O30   S    
C100  O23   A    
C101  C127  A    
C34   C36   S    
Cu9   O2    S    
C107  C139  S    
C61   C62   S    
C134  O17   A    
C54   H124  S    
C8    C165  A    
C19   C136  S    
C158  C175  A    
C70   H8    S    
C49   C50   S    
C93   C119  A    
C66   H141  S    
C116  C151  A    
C33   C68   S    
C91   C141  A    
C83   H38   S    
C55   C56   S    
C95   C143  A    
C74   H27   S    
C41   C42   S    
C34   H77   S    
C135  O18   A    
C80   H31   S    
C77   C78   S    
C34   C113  S    
C130  O11   A    
C112  C143  S    
Cu12  O28   S    
C67   H11   S    
C89   O12   A    
C43   H87   S    
Cu4   O40   S    
Cu11  O6    S    
Cu3   O39   S    
C24   C29   S    
C78   H32   S    
C91   C117  A    
C13   C28   S    
C106  C142  S    
C2    C27   S    
C125  C156  A    
C22   C132  S    
C95   C121  A    
C89   C149  S    
C29   C164  A    
C175  I9    S    
C106  O29   A    
Cu1   O44   S    
C95   H134  S    
Cu1   O9    S    
C52   H114  S    
C171  H69   S    
C84   C85   S    
C1    O1    A    
C31   C169  A    
C58   C59   S    
Cu5   O47   S    
C98   H24   S    
C111  C151  S    
Cu11  O24   S    
C134  O15   A    
C63   H133  S    
C62   C63   S    
Cu4   O41   S    
C109  O43   A    
C77   H36   S    
C70   H6    S    
C58   C120  S    
C49   H106  S    
C104  O31   A    
C103  C129  A    
C90   C142  A    
C40   H80   S    
C71   H20   S    
C81   H42   S    
C42   C43   S    
C50   H104  S    
C48   H109  S    
C92   C140  A    
C21   C134  S    
C17   C174  A    
C62   H138  S    
C108  C145  S    
C123  C153  A    
C75   H26   S    
C130  O9    A    
Cu3   O38   S    
C84   H50   S    
Cu7   O15   S    
C60   H126  S    
C121  C152  A    
C38   H85   S    
C72   H17   S    
C138  O26   A    
C64   C123  S    
Cu4   O42   S    
C73   H14   S    
C102  H52   S    
C45   H99   S    
C5    C162  A    
C50   H105  S    
C55   H121  S    
C30   C168  A    
C56   H118  S    
C80   H30   S    
C51   H116  S    
C136  O21   A    
C48   C49   S    
C168  H65   S    
C131  O10   A    
Cu8   Cu10  S    
C85   H49   S    
C158  H55   S    
C14   C25   A    
C58   H132  S    
Cu8   O48   S    
C37   H73   S    
C59   H129  S    
Cu3   Cu4   S    
C7    C20   A    
C71   C125  S    
C114  C149  A    
Cu10  O7    S    
C76   H21   S    
C124  C154  A    
C18   C137  S    
C85   H48   S    
C97   C146  A    
C109  C146  S    
C37   H72   S    
C67   C124  S    
C127  C153  A    
C81   C82   S    
C88   H68   S    
C83   H39   S    
C40   H81   S    
C44   H102  S    
C30   C35   S    
C3    C18   A    
C133  C153  S    
C122  O7    A    
C36   H76   S    
C41   H93   S    
C109  O37   A    
C13   C46   T    
C9    C22   A    
C110  O42   A    
Cu3   O37   S    
C84   C129  S    
C133  O6    A    
C26   C157  A    
C45   C47   S    
C87   C114  A    
C4    C19   A    
C92   H101  S    
C93   H112  S    
C117  C150  A    
C137  O25   A    
C17   C176  A    
C18   C175  A    
C15   C23   A    
C131  O13   A    
C69   H9    S    
Cu7   O13   S    
C60   H127  S    
C176  I10   S    
C112  O39   A    
C44   H100  S    
C73   H16   S    
C144  O5    A    
C24   C35   T    
C74   C75   S    
C9    C167  A    
C47   H97   S    
C12   C170  A    
C107  O30   A    
C27   C160  A    
C5    I13   S    
C100  O44   A    
C67   C69   S    
C77   H34   S    
C64   H5    S    
C8    C21   A    
Cu11  O4    S    
C25   C130  S    
C106  O33   A    
C17   C138  S    
C76   H23   S    
Cu8   O18   S    
C99   C146  A    
C3    C160  A    
C118  C149  A    
C102  C143  A    
C53   H111  S    
C110  C147  S    
C66   H142  S    
Cu6   O11   S    
C33   C173  A    
C39   H84   S    
C83   H37   S    
C32   C170  A    
C26   C166  S    
C74   H28   S    
C165  H63   S    
Cu9   O8    S    
C169  H66   S    
C34   H78   S    
C44   C45   S    
C160  H58   S    
C144  O3    A    
C77   C127  S    
C105  O28   A    
C11   C22   A    
C86   H47   S    
Cu7   O34   S    
Cu5   O10   S    
C104  O27   A    
C42   H91   S    
C74   C126  S    
C115  C150  A    
C103  H53   S    
C20   C135  S    
C47   H96   S    
C105  O35   A    
C78   H33   S    
C28   C163  A    
C65   C66   S    
Cu5   O17   S    
C1    C148  S    
C6    I14   S    
C102  C128  A    
C172  H70   S    
Cu2   O31   S    
C33   C171  A    
