data_mof_unit_pretest_723.cif
_audit_creation_date              2013-03-05T15:45:45-0500
_audit_creation_method            fapswitch 2.2
_symmetry_space_group_name_H-M    P1
_symmetry_Int_Tables_number       1
_space_group_crystal_system       triclinic
_cell_length_a                    18.790392
_cell_length_b                    11.140042
_cell_length_c                    18.703566
_cell_angle_alpha                 89.923784
_cell_angle_beta                  90.609248
_cell_angle_gamma                 90.124803
_cell_volume                      3914.90412431

loop_
_atom_site_label
_atom_site_type_symbol
_atom_site_description
_atom_site_fract_x
_atom_site_fract_y
_atom_site_fract_z
_atom_type_partial_charge
O1    O     O_R   0.214270 0.709000 0.827470 -0.483467
O2    O     O_R   0.785730 0.709000 0.172530 -0.477145
O3    O     O_R   0.714270 0.209000 0.827470 -0.475491
O4    O     O_R   0.285730 0.209000 0.172530 -0.485162
O5    O     O_R   0.236160 0.958490 0.823130 -0.435543
O6    O     O_R   0.763840 0.958490 0.176870 -0.429863
O7    O     O_R   0.736160 0.458490 0.823130 -0.437264
O8    O     O_R   0.263840 0.458490 0.176870 -0.427846
C1    C     C_R   0.271945 0.040315 0.854702 0.595011
C2    C     C_R   0.727876 0.041065 0.145692 0.601404
C3    C     C_R   0.771932 0.540355 0.854679 0.591668
C4    C     C_R   0.227859 0.541014 0.145666 0.604742
O9    O     O_R   0.332080 0.075470 0.831280 -0.492220
O10   O     O_R   0.667920 0.075470 0.168720 -0.496736
O11   O     O_R   0.832080 0.575470 0.831280 -0.493013
O12   O     O_R   0.167920 0.575470 0.168720 -0.496167
O13   O     O_R   0.446300 0.918110 0.826620 -0.509945
O14   O     O_R   0.553700 0.918110 0.173380 -0.520140
O15   O     O_R   0.946300 0.418110 0.826620 -0.510617
O16   O     O_R   0.053700 0.418110 0.173380 -0.519399
C5    C     C_R   0.469554 0.821797 0.855572 0.558004
C6    C     C_R   0.531232 0.821983 0.144042 0.548455
C7    C     C_R   0.969547 0.321796 0.855577 0.550446
C8    C     C_R   0.031228 0.321984 0.144046 0.556029
O17   O     O_R   0.457110 0.716200 0.831760 -0.481549
O18   O     O_R   0.542890 0.716200 0.168240 -0.460223
O19   O     O_R   0.957110 0.216200 0.831760 -0.485931
O20   O     O_R   0.042890 0.216200 0.168240 -0.455799
O21   O     O_R   0.320980 0.624310 0.823030 -0.449320
O22   O     O_R   0.679020 0.624310 0.176970 -0.447822
O23   O     O_R   0.820980 0.124310 0.823030 -0.446669
O24   O     O_R   0.179020 0.124310 0.176970 -0.450691
C9    C     C_R   0.259702 0.633759 0.850691 0.559577
C10   C     C_R   0.740418 0.632654 0.149739 0.569033
C11   C     C_R   0.759717 0.133796 0.850714 0.571710
C12   C     C_R   0.240431 0.132622 0.149758 0.556225
O25   O     O_R   0.213890 0.710430 0.665540 -0.496271
O26   O     O_R   0.786110 0.710430 0.334460 -0.472922
O27   O     O_R   0.713890 0.210430 0.665540 -0.471324
O28   O     O_R   0.286110 0.210430 0.334460 -0.497115
O29   O     O_R   0.235810 0.959820 0.673020 -0.436729
O30   O     O_R   0.764190 0.959820 0.326980 -0.480521
O31   O     O_R   0.735810 0.459820 0.673020 -0.481488
O32   O     O_R   0.264190 0.459820 0.326980 -0.435192
C13   C     C_R   0.291555 0.998692 0.637709 0.553535
C14   C     C_R   0.730883 0.051639 0.350698 0.572055
C15   C     C_R   0.769095 0.551790 0.649346 0.571105
C16   C     C_R   0.208489 0.498803 0.362287 0.553483
O33   O     O_R   0.331700 0.076900 0.669350 -0.405345
O34   O     O_R   0.668300 0.076900 0.330650 -0.439098
O35   O     O_R   0.831700 0.576900 0.669350 -0.438612
O36   O     O_R   0.168300 0.576900 0.330650 -0.405836
O37   O     O_R   0.445950 0.919440 0.676520 -0.495174
O38   O     O_R   0.554050 0.919440 0.323480 -0.499936
O39   O     O_R   0.945950 0.419440 0.676520 -0.500021
O40   O     O_R   0.054050 0.419440 0.323480 -0.495123
C17   C     C_R   0.468880 0.823217 0.646701 0.552837
C18   C     C_R   0.530056 0.824427 0.352522 0.522700
C19   C     C_R   0.970001 0.324671 0.647502 0.522692
C20   C     C_R   0.031183 0.323007 0.353334 0.553074
O41   O     O_R   0.456730 0.717630 0.669840 -0.443106
O42   O     O_R   0.543270 0.717630 0.330160 -0.442813
O43   O     O_R   0.956730 0.217630 0.669840 -0.441334
O44   O     O_R   0.043270 0.217630 0.330160 -0.444483
O45   O     O_R   0.320620 0.625640 0.672920 -0.446394
O46   O     O_R   0.679380 0.625640 0.327080 -0.424901
O47   O     O_R   0.820620 0.125640 0.672920 -0.424793
O48   O     O_R   0.179380 0.125640 0.327080 -0.447047
C21   C     C_R   0.257720 0.629521 0.647553 0.550015
C22   C     C_R   0.724099 0.686430 0.364265 0.541418
C23   C     C_R   0.775877 0.186336 0.635724 0.541029
C24   C     C_R   0.242241 0.129309 0.352413 0.549917
Cr1   Cr    Cr6+3 0.229630 0.835900 0.747350 1.160772
Cr2   Cr    Cr6+3 0.770370 0.835900 0.252650 1.158943
Cr3   Cr    Cr6+3 0.729630 0.335900 0.747350 1.159883
Cr4   Cr    Cr6+3 0.270370 0.335900 0.252650 1.160326
Cr5   Cr    Cr6+3 0.387410 0.989850 0.750850 1.136143
Cr6   Cr    Cr6+3 0.612590 0.989850 0.249150 1.115457
Cr7   Cr    Cr6+3 0.887410 0.489850 0.750850 1.120470
Cr8   Cr    Cr6+3 0.112590 0.489850 0.249150 1.131403
Cr9   Cr    Cr6+3 0.385800 0.677120 0.749340 1.157081
Cr10  Cr    Cr6+3 0.614200 0.677120 0.250660 1.185976
Cr11  Cr    Cr6+3 0.885800 0.177120 0.749340 1.180459
Cr12  Cr    Cr6+3 0.114200 0.177120 0.250660 1.162270
O49   O     O_3   0.334280 0.834290 0.749180 -0.355843
O50   O     O_3   0.665720 0.834290 0.250820 -0.354433
O51   O     O_3   0.834280 0.334290 0.749180 -0.352809
O52   O     O_3   0.165720 0.334290 0.250820 -0.357067
C25   C     C_3   0.503499 0.946936 0.022920 -0.125050
C26   C     C_3   0.554526 0.892629 0.966859 -0.132134
C27   C     C_3   0.003522 0.446942 0.022920 -0.124636
C28   C     C_3   0.054535 0.392593 0.966860 -0.133488
C29   C     C_3   0.439527 0.885781 0.984897 -0.150234
C30   C     C_3   0.563515 0.779628 0.013984 -0.076702
C31   C     C_3   0.939536 0.385821 0.984903 -0.148705
C32   C     C_3   0.063503 0.279597 0.013992 -0.077913
H1    H     H_    0.387471 0.924317 0.969952 0.122899
H2    H     H_    0.614941 0.735852 0.027307 0.139604
H3    H     H_    0.887491 0.424414 0.969964 0.123331
H4    H     H_    0.114916 0.235778 0.027317 0.140338
H5    H     H_    0.504154 0.040421 0.043402 0.152578
H6    H     H_    0.597682 0.938496 0.937578 0.138715
H7    H     H_    0.004198 0.540429 0.043397 0.152816
H8    H     H_    0.097696 0.438407 0.937560 0.136588
C33   C     C_3   0.490994 0.831220 0.930626 0.034874
C34   C     C_3   0.511629 0.832742 0.068669 0.044756
C35   C     C_3   0.990989 0.331217 0.930633 0.035355
C36   C     C_3   0.011629 0.332749 0.068675 0.044205
C37   C     C_3   0.499516 0.719449 0.976871 -0.017340
C38   C     C_3   0.448217 0.773119 0.031803 -0.103296
C39   C     C_3   0.999493 0.219449 0.976886 -0.017665
C40   C     C_3   0.948204 0.273159 0.031817 -0.102141
H9    H     H_    0.497901 0.629568 0.953889 0.269672
H10   H     H_    0.402884 0.730162 0.059031 0.184820
H11   H     H_    0.997912 0.129548 0.953929 0.269716
H12   H     H_    0.902868 0.230248 0.059066 0.185511
C41   C     C_R   0.303742 0.524906 0.959859 0.178593
C42   C     C_R   0.695999 0.520060 0.041822 0.162596
C43   C     C_R   0.803809 0.025079 0.959939 0.176937
C44   C     C_R   0.196063 0.019905 0.041895 0.164259
C45   C     C_R   0.304349 0.526219 0.035540 0.180248
C46   C     C_R   0.695653 0.518009 0.966008 0.189939
C47   C     C_R   0.804413 0.026420 0.035622 0.179575
C48   C     C_R   0.195701 0.017860 0.966082 0.190537
C49   C     C_R   0.243481 0.570390 0.071161 -0.013310
C50   C     C_R   0.755839 0.566479 0.929816 -0.008653
C51   C     C_R   0.743532 0.070559 0.071221 -0.011462
C52   C     C_R   0.255871 0.066368 0.929864 -0.010504
C53   C     C_R   0.186668 0.618754 0.031374 -0.161820
C54   C     C_R   0.812281 0.616369 0.969610 -0.162042
C55   C     C_R   0.686731 0.118953 0.031429 -0.161184
C56   C     C_R   0.312318 0.116257 0.969652 -0.162433
H13   H     H_    0.138068 0.649432 0.055950 0.210856
H14   H     H_    0.860420 0.649065 0.944816 0.216046
H15   H     H_    0.638127 0.149627 0.055997 0.211161
H16   H     H_    0.360449 0.148970 0.944849 0.215813
C57   C     C_R   0.189108 0.624928 0.958600 -0.186406
C58   C     C_R   0.811632 0.616875 0.042645 -0.175709
C59   C     C_R   0.689172 0.125109 0.958658 -0.187136
C60   C     C_R   0.311681 0.116748 0.042691 -0.175351
H17   H     H_    0.143846 0.663130 0.930805 0.213875
H18   H     H_    0.857872 0.651093 0.070642 0.211754
H19   H     H_    0.643911 0.163312 0.930862 0.214276
H20   H     H_    0.357926 0.150949 0.070687 0.211034
C61   C     C_R   0.248640 0.584656 0.922286 -0.027404
C62   C     C_R   0.751614 0.579544 0.079075 -0.031137
C63   C     C_R   0.748694 0.084794 0.922347 -0.029025
C64   C     C_R   0.251663 0.079434 0.079128 -0.029857
C65   C     C_R   0.430254 0.803121 0.522650 -0.042332
C66   C     C_R   0.442440 0.810239 0.449621 -0.045430
C67   C     C_R   0.057665 0.310875 0.550473 -0.045375
C68   C     C_R   0.069786 0.303271 0.477454 -0.041942
H21   H     H_    0.377898 0.777232 0.541088 0.099795
H22   H     H_    0.400254 0.789088 0.411829 0.148015
H23   H     H_    0.099817 0.289932 0.588318 0.147876
H24   H     H_    0.122090 0.277423 0.459078 0.100359
C69   C     C_R   0.510499 0.839140 0.426230 0.098586
C70   C     C_R   0.485123 0.830613 0.571757 0.104205
C71   C     C_R   0.014918 0.330230 0.428276 0.104359
C72   C     C_R   0.989662 0.339758 0.573807 0.098417
C73   C     C_R   0.564972 0.869274 0.475362 -0.046607
C74   C     C_R   0.552121 0.865779 0.548359 -0.045524
C75   C     C_R   0.948024 0.365549 0.451596 -0.045408
C76   C     C_R   0.935223 0.369507 0.524592 -0.045979
H25   H     H_    0.618008 0.891199 0.457085 0.091144
H26   H     H_    0.594292 0.887458 0.586143 0.136841
H27   H     H_    0.905885 0.387009 0.413760 0.137145
H28   H     H_    0.882229 0.391389 0.542812 0.091608
C77   C     C_R   0.172399 0.572604 0.556044 -0.135373
C78   C     C_R   0.775991 0.720087 0.480520 -0.178392
C79   C     C_R   0.724113 0.219941 0.519324 -0.178400
C80   C     C_R   0.327587 0.071796 0.443693 -0.134907
H29   H     H_    0.131048 0.609518 0.589326 0.230197
H30   H     H_    0.812372 0.781534 0.454807 0.225973
H31   H     H_    0.687899 0.281463 0.544906 0.225430
H32   H     H_    0.369007 0.108441 0.410212 0.229243
C81   C     C_R   0.158091 0.553225 0.484133 0.146394
C82   C     C_R   0.786023 0.697849 0.552091 0.151918
C83   C     C_R   0.714162 0.197787 0.447737 0.152269
C84   C     C_R   0.341927 0.052741 0.515655 0.146832
C85   C     C_R   0.216651 0.516219 0.439865 -0.079558
C86   C     C_R   0.742137 0.615311 0.586578 -0.032576
C87   C     C_R   0.757862 0.115163 0.413441 -0.032083
C88   C     C_R   0.283317 0.016102 0.560119 -0.078967
C89   C     C_R   0.283637 0.487924 0.472834 0.144243
C90   C     C_R   0.678062 0.580210 0.555063 0.158568
C91   C     C_R   0.821829 0.080208 0.445046 0.158486
C92   C     C_R   0.216149 0.987967 0.527348 0.144422
C93   C     C_R   0.291834 0.496061 0.546740 0.199075
C94   C     C_R   0.668106 0.593950 0.480615 0.175048
C95   C     C_R   0.831773 0.094028 0.519479 0.174679
C96   C     C_R   0.207829 0.995947 0.453453 0.199018
C97   C     C_R   0.239823 0.556911 0.585288 -0.071858
C98   C     C_R   0.722075 0.661585 0.441784 -0.098843
C99   C     C_R   0.777865 0.161487 0.558207 -0.099108
C100  C     C_R   0.260017 0.056434 0.414653 -0.071416
N1    N     N_R   0.084441 0.574273 0.461592 0.090645
O53   O     O_R   0.066654 0.616455 0.399328 -0.213657
O54   O     O_R   0.035144 0.577771 0.509931 -0.320624
N2    N     N_R   0.842361 0.756907 0.589778 0.136322
O55   O     O_R   0.826186 0.820413 0.645635 -0.259491
O56   O     O_R   0.906426 0.713380 0.584947 -0.223023
N3    N     N_R   0.658420 0.257642 0.409734 0.136193
O57   O     O_R   0.675353 0.321854 0.354266 -0.260980
O58   O     O_R   0.594070 0.214706 0.413967 -0.222218
N4    N     N_R   0.415618 0.073992 0.538094 0.090362
O59   O     O_R   0.433513 0.115951 0.600344 -0.214411
O60   O     O_R   0.464906 0.077589 0.489730 -0.321303
N5    N     N_R   0.346717 0.468670 0.431661 0.138877
O61   O     O_R   0.366126 0.361007 0.413780 -0.255061
O62   O     O_R   0.381395 0.560258 0.406595 -0.289284
N6    N     N_R   0.620463 0.547176 0.601256 0.115655
O63   O     O_R   0.610132 0.435316 0.618434 -0.280925
O64   O     O_R   0.594147 0.629487 0.642353 -0.343053
N7    N     N_R   0.879421 0.047607 0.398888 0.115896
O65   O     O_R   0.889711 0.935832 0.381843 -0.282876
O66   O     O_R   0.905598 0.130087 0.357555 -0.341600
N8    N     N_R   0.153053 0.969132 0.568677 0.138865
O67   O     O_R   0.133321 0.861637 0.587037 -0.254435
O68   O     O_R   0.118632 0.060975 0.593300 -0.290048
S1    S     S_3+6 0.366803 0.428624 0.588955 0.095632
O69   O     O_2   0.350219 0.393733 0.664699 -0.244074
O70   O     O_2   0.387113 0.318374 0.548772 -0.192056
O71   O     O_3   0.435687 0.524238 0.587566 -0.447980
H33   H     H_    0.472333 0.485988 0.618319 0.409252
S2    S     S_3+6 0.586969 0.526192 0.447221 0.118009
O72   O     O_2   0.526411 0.605665 0.466267 -0.255789
O73   O     O_2   0.582920 0.498769 0.368896 -0.154062
O74   O     O_3   0.571325 0.397687 0.490915 -0.428540
H34   H     H_    0.519604 0.382547 0.485053 0.433063
S3    S     S_3+6 0.912910 0.026795 0.552929 0.117787
O75   O     O_2   0.973460 0.106684 0.533786 -0.256547
O76   O     O_2   0.916998 0.999271 0.631277 -0.153235
O77   O     O_3   0.928643 0.898581 0.509329 -0.428384
H35   H     H_    0.980332 0.883712 0.515414 0.433490
S4    S     S_3+6 0.132381 0.929034 0.411604 0.095158
O78   O     O_2   0.148603 0.893705 0.335925 -0.244397
O79   O     O_2   0.111451 0.819177 0.452169 -0.191719
O80   O     O_3   0.064077 0.025285 0.412871 -0.448943
H36   H     H_    0.027197 0.987346 0.382208 0.409138
N9    N     N_R   0.351162 0.448796 0.921123 0.115966
O81   O     O_R   0.324437 0.357976 0.886394 -0.324218
O82   O     O_R   0.413700 0.487597 0.903283 -0.262138
N10   N     N_R   0.643208 0.456330 0.081625 0.115825
O83   O     O_R   0.662490 0.362951 0.118774 -0.317277
O84   O     O_R   0.583353 0.508333 0.096588 -0.233950
N11   N     N_R   0.851202 0.948890 0.921230 0.115786
O85   O     O_R   0.824444 0.858098 0.886498 -0.321785
O86   O     O_R   0.913777 0.987570 0.903435 -0.262410
N12   N     N_R   0.143309 0.956121 0.081722 0.115994
O87   O     O_R   0.162644 0.862768 0.118866 -0.319930
O88   O     O_R   0.083453 0.008082 0.096735 -0.233530
S5    S     S_3+6 0.381552 0.481826 0.085015 0.047114
O89   O     O_2   0.375121 0.353856 0.108076 -0.262475
O90   O     O_2   0.446776 0.493283 0.041072 -0.200879
O91   O     O_3   0.391472 0.568838 0.157988 -0.528622
H37   H     H_    0.432517 0.534273 0.184479 0.394734
S6    S     S_3+6 0.617307 0.471577 0.917838 0.037299
O92   O     O_2   0.629175 0.360635 0.875088 -0.262033
O93   O     O_2   0.556800 0.443491 0.966135 -0.185003
O94   O     O_3   0.594232 0.582815 0.861364 -0.535261
H38   H     H_    0.562966 0.544566 0.824972 0.396529
S7    S     S_3+6 0.881593 0.982012 0.085152 0.047423
O95   O     O_2   0.875160 0.853991 0.108121 -0.262865
O96   O     O_2   0.946861 0.993579 0.041286 -0.201498
O97   O     O_3   0.891416 0.068919 0.158194 -0.519961
H39   H     H_    0.931884 0.033479 0.185171 0.397100
S8    S     S_3+6 0.117334 0.971444 0.917963 0.036707
O98   O     O_2   0.129184 0.860547 0.875170 -0.262533
O99   O     O_2   0.056847 0.943349 0.966290 -0.184486
O100  O     O_3   0.094227 0.082702 0.861533 -0.541502
H40   H     H_    0.062255 0.044721 0.825662 0.394058

loop_
_geom_bond_atom_site_label_1
_geom_bond_atom_site_label_2
_geom_bond_distance
_ccdc_geom_bond_type
C18   O42   1.287190 A    
S7    O97   1.683778 S    
Cr11  O51   2.002520 S    
N3    O57   1.301269 A    
O4    C12   1.272775 A    
C46   C50   1.428779 A    
O94   H38   0.990557 S    
C66   C69   1.392929 A    
O39   C19   1.273658 A    
O20   Cr12  2.078024 S    
C80   C84   1.386006 A    
O15   C7    1.277036 A    
O80   H36   0.989283 S    
C20   C71   1.440182 S    
C28   C32   1.544291 S    
C17   C70   1.439950 S    
O71   H33   0.989328 S    
C60   C64   1.386599 A    
O26   C22   1.323642 A    
C73   C74   1.389515 A    
C86   C90   1.390469 A    
O1    C9    1.270529 A    
S7    O95   1.493933 D    
O46   C22   1.278569 A    
S4    O78   1.504179 D    
O7    C3    1.273603 A    
C80   H32   1.082961 S    
N3    O58   1.302506 A    
C59   C63   1.390328 A    
S1    O69   1.504185 D    
C5    O17   1.278599 A    
C83   N3    1.425780 S    
C78   C82   1.372155 A    
C73   H25   1.084247 S    
C72   C76   1.408622 A    
C57   C61   1.390348 A    
N6    O64   1.299268 A    
C44   N12   1.433044 S    
S1    O71   1.674871 S    
C87   C91   1.389996 A    
C31   C40   1.538358 S    
N7    O66   1.299252 A    
O30   C14   1.282429 A    
S5    O89   1.493873 D    
C31   H3    1.102258 S    
C56   H16   1.083047 S    
C24   C100  1.454701 S    
O25   C21   1.270356 A    
C30   H2    1.109173 S    
C43   C63   1.412690 A    
O100  H40   0.990519 S    
S4    O79   1.493247 D    
O21   C9    1.271960 A    
O45   C21   1.269694 A    
O8    Cr4   1.969988 S    
C1    O9    1.276797 A    
N10   O83   1.300203 A    
C41   C61   1.412530 A    
N9    O81   1.300129 A    
C42   C46   1.418154 A    
C77   C81   1.385892 A    
C34   C38   1.522069 S    
O32   Cr4   1.964992 S    
C65   H21   1.084275 S    
O44   Cr12  2.058529 S    
C43   N11   1.433960 S    
C29   C33   1.536253 S    
C45   C49   1.419037 A    
C74   H26   1.083218 S    
C3    O11   1.276730 A    
C12   C64   1.466059 S    
C95   S3    1.805601 S    
O11   Cr7   2.072455 S    
C68   H24   1.084270 S    
C47   S7    1.783107 S    
N2    O55   1.301528 A    
C25   C34   1.539148 S    
C82   N2    1.425729 S    
C67   C68   1.389705 A    
O6    Cr2   1.969988 S    
C8    C36   1.458071 S    
C67   H23   1.082252 S    
C15   O35   1.261575 A    
O14   C6    1.273087 A    
O3    Cr3   2.080660 S    
C65   C70   1.406985 A    
Cr4   O52   1.966392 S    
C66   H22   1.082235 S    
O47   C23   1.279377 A    
O2    Cr2   2.084219 S    
C37   H9    1.090403 S    
C29   C38   1.538332 S    
C48   C52   1.428923 A    
C89   N5    1.436987 S    
C36   C40   1.522033 S    
C22   C98   1.476579 S    
O2    C10   1.272831 A    
O42   Cr10  2.058529 S    
C68   C71   1.406986 A    
Cr5   O49   1.998172 S    
O18   Cr10  2.078024 S    
C81   N1    1.461734 S    
O97   H39   0.990600 S    
C31   C35   1.536280 S    
O17   Cr9   2.077660 S    
C79   C83   1.372567 A    
C54   H14   1.083047 S    
C59   H19   1.079953 S    
C15   C86   1.456798 S    
C84   N4    1.461517 S    
O34   Cr6   2.079761 S    
Cr7   O51   1.998172 S    
C42   N10   1.432989 S    
Cr9   O49   2.002520 S    
C96   S4    1.775237 S    
C83   C87   1.396067 A    
C7    O19   1.278602 A    
N11   O86   1.297962 A    
O31   Cr3   1.962036 S    
O24   Cr12  1.941702 S    
C32   C39   1.535336 S    
C91   N7    1.439015 S    
O30   Cr2   1.964992 S    
C1    C52   1.470464 S    
O22   C10   1.269233 A    
O27   Cr3   2.092067 S    
O48   Cr12  1.958454 S    
C4    O12   1.270592 A    
C42   C62   1.413997 A    
C3    C50   1.470223 S    
C55   C59   1.363969 A    
C79   C99   1.399668 A    
C58   H18   1.078825 S    
O36   Cr8   2.079761 S    
C27   C28   1.552536 S    
S5    O90   1.488049 D    
C94   C98   1.460971 A    
N4    O59   1.295988 A    
C77   C97   1.385943 A    
C4    C49   1.463621 S    
C49   C53   1.402943 A    
N12   O87   1.300204 A    
Cr10  O50   1.998836 S    
C79   H31   1.082375 S    
C48   S8    1.793187 S    
O13   C5    1.277023 A    
O40   C20   1.285287 A    
C88   C92   1.431491 A    
O48   C24   1.268594 A    
N9    O82   1.297997 A    
Cr12  O52   1.998836 S    
C14   C87   1.457031 S    
C90   C94   1.411159 A    
S6    O93   1.492005 D    
N7    O65   1.301116 A    
C70   C74   1.392465 A    
O5    C1    1.273602 A    
O74   H34   0.990996 S    
C93   C97   1.397726 A    
O46   Cr10  1.958454 S    
O39   Cr7   1.948629 S    
C19   C72   1.440320 S    
C28   C35   1.527358 S    
C47   C51   1.418912 A    
C96   C100  1.397599 A    
S8    O100  1.681606 S    
C13   O33   1.291246 A    
C75   H27   1.083217 S    
O8    C4    1.278969 A    
C7    C35   1.460207 S    
O91   H37   0.990574 S    
C21   C97   1.454856 S    
N5    O61   1.299573 A    
O23   Cr11  1.938983 S    
C89   C93   1.392290 A    
O16   Cr8   1.958921 S    
C11   C63   1.462673 S    
O29   C13   1.316389 A    
Cr2   O50   1.966392 S    
O15   Cr7   1.959348 S    
O35   Cr7   2.079997 S    
Cr1   O49   1.966469 S    
C82   C86   1.395689 A    
C9    C61   1.462541 S    
C91   C95   1.411261 A    
C53   H13   1.082930 S    
C76   H28   1.084245 S    
C6    C34   1.458109 S    
O14   Cr6   1.958921 S    
S8    O99   1.492077 D    
O21   Cr9   1.938983 S    
C44   C64   1.413833 A    
S2    O73   1.497980 D    
S3    O76   1.497918 D    
O9    Cr5   2.072455 S    
C2    O10   1.270532 A    
O37   Cr5   1.948629 S    
O38   C18   1.272881 A    
C46   S6    1.793369 S    
C71   C75   1.392581 A    
C19   O43   1.287733 A    
C80   C100  1.386011 A    
S6    O94   1.681794 S    
O77   H35   0.990962 S    
O27   C23   1.324865 A    
O3    C11   1.270582 A    
C2    C51   1.463442 S    
C54   C58   1.366222 A    
C69   C73   1.408603 A    
C38   H10   1.104860 S    
C40   H12   1.104871 S    
O47   Cr11  1.958007 S    
C8    O20   1.280280 A    
C78   C98   1.399573 A    
O26   Cr2   2.090208 S    
Cr3   O51   1.966469 S    
S7    O96   1.488053 D    
N10   O84   1.299553 A    
C57   H17   1.079948 S    
C52   C56   1.403360 A    
C85   C89   1.431277 A    
O22   Cr10  1.941702 S    
O28   C24   1.269145 A    
C39   C40   1.538690 S    
C25   H5    1.110125 S    
C94   S2    1.805610 S    
C35   C39   1.522907 S    
C27   C36   1.539158 S    
N8    O67   1.299648 A    
C60   H20   1.078814 S    
C26   C33   1.527372 S    
C27   H7    1.110124 S    
O31   C15   1.280172 A    
C18   C69   1.440175 S    
O37   C17   1.286247 A    
O6    C2    1.278998 A    
S5    O91   1.683588 S    
O7    Cr3   1.972231 S    
N11   O85   1.300132 A    
O24   C12   1.269292 A    
C17   O41   1.273792 A    
Cr8   O52   2.001867 S    
C78   H30   1.082251 S    
C43   C47   1.415565 A    
C56   C60   1.366286 A    
S2    O74   1.674444 S    
O5    Cr1   1.972231 S    
C14   O34   1.262720 A    
C30   C37   1.535375 S    
O25   Cr1   2.092067 S    
O40   Cr8   1.945208 S    
S4    O80   1.674591 S    
C92   C96   1.392022 A    
N8    O68   1.299125 A    
C20   O44   1.273620 A    
O1    Cr1   2.080660 S    
C67   C72   1.393119 A    
C51   C55   1.402944 A    
N1    O54   1.301935 A    
S6    O92   1.491348 D    
S1    O70   1.493173 D    
O32   C16   1.318175 A    
C26   H6    1.107027 S    
C37   C38   1.538650 S    
C39   H11   1.090418 S    
O13   Cr5   1.959348 S    
C10   C62   1.466156 S    
C77   H29   1.082911 S    
Cr6   O50   2.001867 S    
C90   N6    1.438945 S    
C16   C85   1.470522 S    
C33   C37   1.522892 S    
C58   C62   1.386586 A    
C81   C85   1.445181 A    
C32   H4    1.109195 S    
O23   C11   1.271921 A    
C26   C30   1.544299 S    
N5    O62   1.299131 A    
C29   H1    1.102229 S    
O33   Cr5   2.079997 S    
S3    O77   1.674074 S    
C93   S1    1.775273 S    
O10   Cr6   2.068523 S    
C25   C29   1.547383 S    
N1    O53   1.296018 A    
C95   C99   1.461466 A    
O4    Cr4   2.084219 S    
C75   C76   1.389598 A    
C30   C34   1.540176 S    
C44   C48   1.418129 A    
C28   H8    1.106997 S    
O29   Cr1   1.962036 S    
O19   Cr11  2.077660 S    
C55   H15   1.082926 S    
O28   Cr4   2.090208 S    
C16   O36   1.292013 A    
C53   C57   1.364031 A    
N6    O63   1.301136 A    
C27   C31   1.547375 S    
N2    O56   1.302839 A    
S2    O72   1.489768 D    
C6    O18   1.280283 A    
O43   Cr11  2.056386 S    
S3    O75   1.489339 D    
C45   S5    1.782902 S    
C50   C54   1.403358 A    
O45   Cr9   1.958007 S    
C32   C36   1.540156 S    
C23   C99   1.477276 S    
O41   Cr9   2.056386 S    
C41   C45   1.415515 A    
O12   Cr8   2.068523 S    
C25   C26   1.552532 S    
C65   C66   1.389487 A    
N4    O60   1.301966 A    
N12   O88   1.299566 A    
O16   C8    1.273062 A    
C5    C33   1.460184 S    
C84   C88   1.444882 A    
C13   C88   1.470445 S    
S8    O98   1.491311 D    
O38   Cr6   1.945208 S    
C92   N8    1.437059 S    
C41   N9    1.434016 S    
