data_mof_unit_pretest_1621.cif
_audit_creation_date              2012-12-10T21:01:02-0500
_audit_creation_method            fapswitch 2.2
_symmetry_space_group_name_H-M    P1
_symmetry_Int_Tables_number       1
_space_group_crystal_system       triclinic
_cell_length_a                    15.845476
_cell_length_b                    15.084271
_cell_length_c                    10.561578
_cell_angle_alpha                 90.93526
_cell_angle_beta                  89.97518
_cell_angle_gamma                 90.051193
_cell_volume                      2524.0639474

loop_
_atom_site_label
_atom_site_type_symbol
_atom_type_description
_atom_site_fract_x
_atom_site_fract_y
_atom_site_fract_z
_atom_type_partial_charge
C1    C     C_R   0.338889 0.499969 0.500014 0.910379
C2    C     C_R   0.661111 0.500031 0.499986 0.910386
C3    C     C_1   0.824345 0.500078 0.500056 -0.075618
C4    C     C_1   0.175655 0.499921 0.499943 -0.075619
C5    C     C_R   0.956344 0.579150 0.524590 -0.184602
C6    C     C_R   0.043656 0.420850 0.475409 -0.184602
C7    C     C_R   0.043852 0.579110 0.524544 -0.186049
C8    C     C_R   0.956148 0.420890 0.475455 -0.186048
C9    C     C_R   0.913135 0.500039 0.500046 0.172956
C10   C     C_R   0.086865 0.499961 0.499953 0.172957
C11   C     C_R   0.499077 0.499116 0.257061 0.904311
C12   C     C_R   0.500922 0.500884 0.742939 0.904317
C13   C     C_1   0.250499 0.499916 0.499966 -0.180758
C14   C     C_1   0.749501 0.500083 0.500033 -0.180756
C15   C     C_R   0.496149 0.951827 0.385854 -0.169427
C16   C     C_R   0.503852 0.048173 0.614145 -0.169428
C17   C     C_R   0.503845 0.954449 0.614142 -0.165160
C18   C     C_R   0.496156 0.045550 0.385858 -0.165159
C19   C     C_R   0.499994 0.905033 0.499998 0.086078
C20   C     C_R   0.500007 0.094966 0.500001 0.086076
C21   C     C_3   0.430405 0.539345 0.042198 0.220491
C22   C     C_3   0.569596 0.460657 0.957802 0.220503
C23   C     C_3   0.499372 0.584381 0.965352 0.235204
C24   C     C_3   0.500628 0.415620 0.034649 0.235189
C25   C     C_3   0.430321 0.456867 0.953727 -0.298405
C26   C     C_3   0.569680 0.543135 0.046274 -0.298363
C27   C     C_3   0.500798 0.502694 0.876895 -0.183965
C28   C     C_3   0.499202 0.497307 0.123105 -0.183965
C29   C     C_1   0.499996 0.807145 0.499999 0.032971
C30   C     C_1   0.500004 0.192855 0.500001 0.032976
H1    H     H_    0.493143 0.079486 0.296373 0.131133
H2    H     H_    0.506858 0.920514 0.703627 0.131132
H3    H     H_    0.506867 0.084164 0.703631 0.131664
H4    H     H_    0.493134 0.915836 0.296369 0.131664
H5    H     H_    0.374358 0.422514 0.912937 0.159116
H6    H     H_    0.625641 0.577489 0.087065 0.159115
H7    H     H_    0.077854 0.640271 0.543526 0.142253
H8    H     H_    0.922146 0.359729 0.456473 0.142253
H9    H     H_    0.922494 0.640343 0.543597 0.142184
H10   H     H_    0.077506 0.359657 0.456402 0.142184
N1    N     N_1   0.500000 0.270550 0.500000 -0.091946
N2    N     N_1   0.500000 0.729450 0.500000 -0.091949
O1    O     O_R   0.378020 0.573650 0.500040 -0.611418
O2    O     O_R   0.621980 0.426350 0.499960 -0.611415
O3    O     O_R   0.621980 0.573650 0.499960 -0.612715
O4    O     O_R   0.378020 0.426350 0.500040 -0.612718
O5    O     O_R   0.499980 0.573650 0.313960 -0.624055
O6    O     O_R   0.500020 0.426350 0.686040 -0.624050
O7    O     O_R   0.500020 0.573650 0.686040 -0.621861
O8    O     O_R   0.499980 0.426350 0.313960 -0.621845
Zn1   Zn    Zn3+2 0.500000 0.598370 0.500000 0.965920
Zn2   Zn    Zn3+2 0.500000 0.401630 0.500000 0.965929
N3    N     N_2   0.354842 0.579735 0.094235 -0.306822
H11   H     H_    0.365878 0.623623 0.168124 0.232345
C31   C     C_3   0.295600 0.611941 0.001770 -0.765553
H12   H     H_    0.237656 0.635682 0.050701 0.235958
H13   H     H_    0.277539 0.557925 0.934362 0.243585
H14   H     H_    0.323509 0.667810 0.948817 0.257435
N4    N     N_2   0.645157 0.420265 0.905762 -0.306819
H15   H     H_    0.634117 0.376364 0.831892 0.232355
C32   C     C_3   0.704412 0.388082 0.998226 -0.765596
H16   H     H_    0.762349 0.364329 0.949288 0.235964
H17   H     H_    0.676510 0.332229 0.051219 0.257424
H18   H     H_    0.722484 0.442116 0.065599 0.243590
N5    N     N_2   0.499600 0.675260 0.922773 -0.287106
H19   H     H_    0.544568 0.686196 0.854245 0.244641
C33   C     C_3   0.502751 0.742113 0.022347 -0.808418
H20   H     H_    0.500802 0.808944 0.979899 0.232372
H21   H     H_    0.562038 0.736046 0.077660 0.240026
H22   H     H_    0.447788 0.736141 0.086442 0.252821
N6    N     N_2   0.500393 0.324743 0.077235 -0.287087
H23   H     H_    0.455404 0.313810 0.145734 0.244629
C34   C     C_3   0.497274 0.257885 0.977665 -0.808408
H24   H     H_    0.499142 0.191055 0.020125 0.232355
H25   H     H_    0.552295 0.263811 0.913673 0.252811
H26   H     H_    0.438036 0.263992 0.922242 0.240046

loop_
_geom_bond_atom_site_label_1
_geom_bond_atom_site_label_2
_ccdc_geom_bond_type
C7    C10   A    
C31   H12   S    
C29   N2    T    
C15   C18   A    
C34   H24   S    
C11   O5    A    
C12   O6    A    
C12   O7    A    
C20   C30   S    
N3    H11   S    
C15   C19   A    
C1    O4    A    
O3    Zn1   S    
O4    Zn2   S    
C23   C26   S    
C4    C13   T    
C32   H17   S    
C1    O1    A    
C2    O2    A    
C16   C17   A    
N5    C33   S    
O8    Zn2   S    
C30   N1    T    
C23   C27   S    
N1    Zn2   S    
C18   C20   A    
N2    Zn1   S    
O2    Zn2   S    
N4    H15   S    
C34   H25   S    
C8    H8    S    
N3    C31   S    
C2    O3    A    
N4    C32   S    
C12   C27   S    
C33   H20   S    
C24   C25   S    
C22   N4    S    
N6    C34   S    
C8    C9    A    
C6    C8    A    
O7    Zn1   S    
C33   H21   S    
C32   H18   S    
C5    C9    A    
C3    C9    S    
C16   H3    S    
C16   C20   A    
C7    H7    S    
C3    C14   T    
C25   H5    S    
C26   H6    S    
C21   C28   S    
C22   C27   S    
C21   C23   S    
C34   H26   S    
C22   C24   S    
C1    C13   S    
C4    C10   S    
C19   C29   S    
C5    C7    A    
C5    H9    S    
C21   C25   S    
C15   H4    S    
C24   C28   S    
C6    C10   A    
O5    Zn1   S    
C25   C27   S    
C26   C28   S    
C33   H22   S    
C23   N5    S    
C31   H13   S    
N6    H23   S    
C11   O8    A    
C21   N3    S    
O1    Zn1   S    
C11   C28   S    
C17   C19   A    
C6    H10   S    
C32   H16   S    
C2    C14   S    
O6    Zn2   S    
N5    H19   S    
C22   C26   S    
C31   H14   S    
C17   H2    S    
C18   H1    S    
C24   N6    S    
