data_mof_unit_pretest_1050.cif
_audit_creation_date              2012-12-11T17:09:39-0500
_audit_creation_method            fapswitch 2.2
_symmetry_space_group_name_H-M    P1
_symmetry_Int_Tables_number       1
_space_group_crystal_system       triclinic
_cell_length_a                    14.780188
_cell_length_b                    6.923438
_cell_length_c                    13.509407
_cell_angle_alpha                 89.999969
_cell_angle_beta                  99.797182
_cell_angle_gamma                 89.999976
_cell_volume                      1362.25302056

loop_
_atom_site_label
_atom_site_type_symbol
_atom_type_description
_atom_site_fract_x
_atom_site_fract_y
_atom_site_fract_z
_atom_type_partial_charge
O1    O     O_R   0.586930 0.505770 0.416350 -0.536345
O2    O     O_R   0.413070 0.005770 0.583650 -0.536345
O3    O     O_R   0.397900 0.173100 0.389630 -0.536430
O4    O     O_R   0.602100 0.673100 0.610370 -0.536428
C1    C     C_R   0.364037 0.345386 0.363108 0.725717
C2    C     C_R   0.635963 0.845386 0.636892 0.725714
O5    O     O_R   0.585280 0.175870 0.404330 -0.545081
O6    O     O_R   0.414720 0.675870 0.595670 -0.545080
O7    O     O_R   0.601790 0.008380 0.598460 -0.534677
O8    O     O_R   0.398210 0.508380 0.401540 -0.534678
C3    C     C_R   0.615156 0.344822 0.383406 0.700123
C4    C     C_R   0.384844 0.844823 0.616594 0.700125
O9    O     O_3   0.505200 0.340120 0.563670 -0.368110
O10   O     O_3   0.494800 0.840120 0.436330 -0.368111
V1    V     V_3+5 0.499040 0.064180 0.488190 1.404463
V2    V     V_3+5 0.500960 0.564180 0.511810 1.404467
C5    C     C_R   0.242264 0.987205 0.666374 0.015257
C6    C     C_R   0.757735 0.487210 0.333625 0.015236
C7    C     C_R   0.314190 0.852573 0.682035 -0.089697
C8    C     C_R   0.685811 0.352573 0.317966 -0.089704
C9    C     C_R   0.313173 0.715389 0.759049 -0.187604
C10   C     C_R   0.686829 0.215387 0.240953 -0.187606
H1    H     H_    0.365217 0.603872 0.772084 0.123425
H2    H     H_    0.634786 0.103868 0.227919 0.123429
C11   C     C_R   0.248592 0.728820 0.824589 -0.124450
C12   C     C_R   0.751410 0.228819 0.175413 -0.124441
H3    H     H_    0.253886 0.630085 0.887392 0.151277
H4    H     H_    0.746116 0.130085 0.112610 0.151287
C13   C     C_R   0.181331 0.875202 0.812868 -0.112716
C14   C     C_R   0.818670 0.375203 0.187133 -0.112706
C15   C     C_R   0.177137 0.996458 0.729330 -0.012894
C16   C     C_R   0.822862 0.496464 0.270670 -0.012890
C17   C     C_3   0.169054 0.211840 0.719258 0.348272
C18   C     C_3   0.830936 0.711849 0.280734 0.348281
C19   C     C_3   0.241094 0.201012 0.649684 -0.478377
C20   C     C_3   0.758898 0.701016 0.350310 -0.478386
H5    H     H_    0.307809 0.270163 0.680689 0.179402
H6    H     H_    0.692180 0.770158 0.319306 0.179405
H7    H     H_    0.214349 0.239383 0.570225 0.135280
H8    H     H_    0.785644 0.739395 0.429767 0.135274
C21   C     C_1   0.783878 0.877045 0.782380 -0.193259
C22   C     C_1   0.216122 0.377044 0.217620 -0.193276
C23   C     C_1   0.716586 0.860055 0.716325 -0.200046
C24   C     C_1   0.283414 0.360055 0.283675 -0.200055
O11   O     O_R   0.101720 0.231700 0.098560 -0.535681
O12   O     O_R   0.898280 0.731700 0.901440 -0.535683
O13   O     O_R   0.914700 0.558980 0.095690 -0.523507
O14   O     O_R   0.085300 0.058980 0.904310 -0.523504
C25   C     C_R   0.885267 0.389652 0.117132 0.695537
C26   C     C_R   0.114733 0.889652 0.882868 0.695545
O15   O     O_R   0.102080 0.561590 0.110390 -0.541076
O16   O     O_R   0.897920 0.061590 0.889610 -0.541071
O17   O     O_R   0.086950 0.728940 0.916330 -0.534802
O18   O     O_R   0.913050 0.228940 0.083670 -0.534801
C27   C     C_R   0.135850 0.391865 0.137778 0.729319
C28   C     C_R   0.864150 0.891865 0.862222 0.729327
O19   O     O_3   0.994770 0.394510 0.936380 -0.358957
O20   O     O_3   0.005230 0.894510 0.063620 -0.358958
V3    V     V_3+5 0.000970 0.670520 0.011800 1.490603
V4    V     V_3+5 0.999030 0.170520 0.988200 1.490615
O21   O     O_3   0.200100 0.308783 0.810255 -0.641074
H9    H     H_    0.261388 0.257141 0.840210 0.277103
O22   O     O_3   0.799882 0.808776 0.189733 -0.641077
H10   H     H_    0.738595 0.757123 0.159783 0.277103
C29   C     C_R   0.075821 0.286011 0.668918 0.141464
C30   C     C_R   0.995979 0.171065 0.659782 -0.129321
C31   C     C_R   0.910624 0.247097 0.617167 -0.119731
C32   C     C_R   0.903602 0.438378 0.584152 -0.102602
C33   C     C_R   0.982055 0.553790 0.592668 -0.150879
C34   C     C_R   0.067743 0.478129 0.634623 -0.124654
H11   H     H_    0.998884 0.023257 0.686073 0.081571
H12   H     H_    0.849707 0.157958 0.610486 0.110610
H13   H     H_    0.837182 0.497130 0.552678 0.108230
H14   H     H_    0.976433 0.702236 0.567216 0.126085
H15   H     H_    0.127832 0.569640 0.640934 0.138202
C35   C     C_R   0.924166 0.786044 0.331066 0.141445
C36   C     C_R   0.004018 0.671142 0.340166 -0.129269
C37   C     C_R   0.089374 0.747207 0.382756 -0.119720
C38   C     C_R   0.096384 0.938478 0.415784 -0.102605
C39   C     C_R   0.017920 0.053844 0.407308 -0.150858
C40   C     C_R   0.932233 0.978151 0.365377 -0.124673
H16   H     H_    0.001121 0.523345 0.313863 0.081564
H17   H     H_    0.150300 0.658104 0.389405 0.110619
H18   H     H_    0.162804 0.997258 0.447239 0.108220
H19   H     H_    0.023534 0.202283 0.432769 0.126105
H20   H     H_    0.872135 0.069629 0.359095 0.138193

loop_
_geom_bond_atom_site_label_1
_geom_bond_atom_site_label_2
_ccdc_geom_bond_type
O11   V4    S    
O12   V3    S    
O1    C3    A    
O2    C4    A    
C2    O7    A    
O17   V3    S    
C17   C29   S    
O13   C25   A    
O18   V4    S    
C36   C37   A    
O5    C3    A    
C19   H5    S    
C38   H18   S    
O19   V3    S    
O20   V4    S    
C25   O18   A    
C31   H12   S    
O16   V4    S    
C5    C7    A    
C37   H17   S    
C32   C33   A    
C15   C17   S    
O10   V2    S    
C6    C8    A    
C40   H20   S    
O14   C26   A    
C30   C31   A    
O6    V2    S    
C21   C23   T    
O21   H9    S    
C22   C24   T    
O14   V4    S    
C13   C26   S    
C9    H1    S    
C11   C13   A    
C3    C8    S    
C26   O17   A    
C31   C32   A    
C20   H8    S    
C35   C36   A    
O4    C2    A    
C37   C38   A    
O19   V4    S    
O15   C27   A    
C32   H13   S    
C38   C39   A    
C16   C18   S    
O4    V2    S    
C19   H7    S    
C21   C28   S    
C39   H19   S    
C22   C27   S    
C30   H11   S    
O6    C4    A    
C33   H14   S    
O1    V2    S    
O2    V1    S    
C1    C24   S    
C8    C10   A    
C12   C14   A    
C2    C23   S    
O9    V1    S    
C5    C15   A    
C10   H2    S    
O15   V3    S    
O3    V1    S    
C9    C11   A    
C7    C9    A    
C14   C25   S    
C39   C40   A    
O3    C1    A    
C35   C40   A    
C11   H3    S    
C12   H4    S    
C20   H6    S    
O20   V3    S    
C1    O8    A    
C13   C15   A    
O8    V2    S    
C14   C16   A    
C36   H16   S    
C4    C7    S    
O5    V1    S    
C18   O22   S    
C17   C19   S    
C18   C20   S    
O7    V1    S    
C33   C34   A    
O13   V3    S    
O22   H10   S    
C6    C16   A    
O11   C27   A    
C17   O21   S    
C29   C30   A    
C10   C12   A    
O9    V2    S    
O12   C28   A    
C34   H15   S    
O10   V1    S    
C5    C19   S    
C29   C34   A    
C6    C20   S    
O16   C28   A    
C18   C35   S    
