data_mof_unit_pretest_1416.cif
_audit_creation_date              2012-12-10T21:42:32-0500
_audit_creation_method            fapswitch 2.2
_symmetry_space_group_name_H-M    P1
_symmetry_Int_Tables_number       1
_space_group_crystal_system       triclinic
_cell_length_a                    10.805152
_cell_length_b                    16.07138
_cell_length_c                    16.747535
_cell_angle_alpha                 86.931764
_cell_angle_beta                  90.679218
_cell_angle_gamma                 93.551079
_cell_volume                      2898.42013665

loop_
_atom_site_label
_atom_site_type_symbol
_atom_type_description
_atom_site_fract_x
_atom_site_fract_y
_atom_site_fract_z
_atom_type_partial_charge
C1    C     C_R   0.496294 0.488199 0.653148 0.916672
C2    C     C_R   0.498097 0.511601 0.346691 0.908450
C3    C     C_R   0.127305 0.498827 0.483788 -0.299087
C4    C     C_R   0.872752 0.502392 0.485810 -0.284450
C5    C     C_R   0.053819 0.423070 0.482513 -0.173999
C6    C     C_R   0.947064 0.577661 0.487749 -0.167084
C7    C     C_R   0.472337 0.479000 0.738251 -0.210531
C8    C     C_R   0.475785 0.518867 0.260947 -0.177572
C9    C     C_R   0.408400 0.540879 0.772862 -0.379346
C10   C     C_R   0.406375 0.453337 0.226581 -0.426153
C11   C     C_R   0.375131 0.532434 0.852592 0.507623
C12   C     C_R   0.378777 0.456354 0.145236 0.497334
C13   C     C_R   0.413525 0.462754 0.899736 0.127918
C14   C     C_R   0.429789 0.524521 0.096829 0.158396
C15   C     C_R   0.471001 0.398893 0.864309 -0.355073
C16   C     C_R   0.494552 0.591316 0.131653 -0.386974
C17   C     C_R   0.503889 0.407242 0.783944 0.467952
C18   C     C_R   0.515884 0.590595 0.214382 0.474384
C19   C     C_R   0.464848 0.764409 0.449437 0.007434
C20   C     C_R   0.531462 0.235465 0.551883 -0.007294
C21   C     C_R   0.465279 0.851487 0.452984 -0.281110
C22   C     C_R   0.531412 0.148379 0.548262 -0.278956
C23   C     C_R   0.740610 0.500851 0.497214 0.919509
C24   C     C_R   0.259573 0.499566 0.495924 0.924686
C25   C     C_R   0.516479 0.890479 0.520470 0.381024
C26   C     C_R   0.483773 0.109534 0.479731 0.332806
C27   C     C_R   0.564855 0.839618 0.582330 -0.272693
C28   C     C_R   0.438409 0.160490 0.416902 -0.305309
C29   C     C_R   0.563993 0.752951 0.575786 0.002263
C30   C     C_R   0.439213 0.247129 0.423317 -0.003214
C31   C     C_R   0.845128 0.799592 0.500507 0.591904
C32   C     C_R   0.158253 0.235157 0.605129 0.566128
C33   C     C_R   0.863926 0.720497 0.469904 -0.244484
C34   C     C_R   0.121403 0.315298 0.583507 -0.212983
C35   C     C_R   0.906524 0.655459 0.520276 0.193806
C36   C     C_R   0.101039 0.339640 0.502975 0.194814
C37   C     C_R   0.925525 0.667503 0.601827 -0.139647
C38   C     C_R   0.120391 0.283347 0.443775 -0.138532
C39   C     C_R   0.905237 0.744219 0.632647 -0.261236
C40   C     C_R   0.152406 0.202230 0.465369 -0.223968
C41   C     C_R   0.867332 0.809890 0.582164 -0.181451
C42   C     C_R   0.171092 0.177948 0.545771 -0.184149
C43   C     C_R   0.072110 0.575498 0.471604 0.457595
C44   C     C_R   0.927162 0.427180 0.470695 0.452971
H1    H     H_    0.853882 0.869520 0.606917 0.159429
H2    H     H_    0.196175 0.115036 0.561931 0.155215
H3    H     H_    0.569611 0.265075 0.603949 0.169683
H4    H     H_    0.423151 0.734659 0.398660 0.125303
H5    H     H_    0.568532 0.112353 0.598450 0.157394
H6    H     H_    0.425299 0.887339 0.403699 0.143659
H7    H     H_    0.604232 0.867138 0.635269 0.138469
H8    H     H_    0.401478 0.133087 0.363252 0.140388
H9    H     H_    0.602486 0.714535 0.623702 0.143286
H10   H     H_    0.403189 0.285555 0.374559 0.127553
H11   H     H_    0.847996 0.708609 0.407659 0.119148
H12   H     H_    0.109652 0.358845 0.629446 0.135639
H13   H     H_    0.959396 0.617966 0.641059 0.132987
H14   H     H_    0.110022 0.301774 0.381171 0.114268
H15   H     H_    0.921182 0.753335 0.695597 0.168647
H16   H     H_    0.163908 0.158359 0.419596 0.160810
H17   H     H_    0.373472 0.398921 0.262990 0.183976
H18   H     H_    0.381419 0.595428 0.737552 0.202131
H19   H     H_    0.496388 0.344467 0.900367 0.178939
H20   H     H_    0.533107 0.642375 0.093149 0.177983
N1    N     N_2   0.407053 0.458216 0.983581 -0.104153
N2    N     N_2   0.425170 0.527564 0.012575 -0.120412
N3    N     N_R   0.515300 0.716920 0.509720 -0.088051
N4    N     N_R   0.484700 0.283080 0.490280 -0.091663
N5    N     N_2   0.520985 0.978965 0.529218 -0.181580
N6    N     N_2   0.479436 0.021050 0.471004 -0.189352
O1    O     O_R   0.494530 0.422540 0.612660 -0.597522
O2    O     O_R   0.505470 0.577460 0.387340 -0.602927
O3    O     O_R   0.504350 0.561840 0.618900 -0.639166
O4    O     O_R   0.495650 0.438160 0.381100 -0.657267
O5    O     O_R   0.678330 0.430350 0.496870 -0.577667
O6    O     O_R   0.321670 0.569650 0.503130 -0.562924
O7    O     O_R   0.688150 0.569660 0.503110 -0.620902
O8    O     O_R   0.311850 0.430340 0.496890 -0.632186
Zn1   Zn    Zn3+2 0.493440 0.406980 0.495830 0.943626
Zn2   Zn    Zn3+2 0.506560 0.593020 0.504170 0.963785
O9    O     O_3   0.560607 0.343456 0.749095 -0.662078
C45   C     C_3   0.687299 0.344143 0.771681 0.061381
H21   H     H_    0.717211 0.279706 0.766864 0.173867
H22   H     H_    0.704664 0.360192 0.835000 0.131214
C46   C     C_3   0.766149 0.403212 0.714982 -0.355176
H23   H     H_    0.743464 0.389131 0.652088 0.251872
H24   H     H_    0.745358 0.468878 0.724037 0.198081
C47   C     C_3   0.904163 0.393744 0.729420 -0.946280
H25   H     H_    0.928974 0.403531 0.792830 0.269448
H26   H     H_    0.958293 0.440763 0.690791 0.254659
H27   H     H_    0.928565 0.330235 0.714785 0.283541
O10   O     O_3   0.589198 0.653191 0.249264 -0.638292
C48   C     C_3   0.552831 0.734146 0.225433 0.078951
H28   H     H_    0.535985 0.767127 0.280326 0.144602
H29   H     H_    0.464552 0.735299 0.190234 0.131106
C49   C     C_3   0.658136 0.782547 0.179374 -0.349863
H30   H     H_    0.744286 0.782792 0.216264 0.219724
H31   H     H_    0.676185 0.751622 0.123338 0.220224
C50   C     C_3   0.626692 0.872449 0.158635 -0.970995
H32   H     H_    0.542490 0.873659 0.119987 0.269981
H33   H     H_    0.705136 0.906055 0.125928 0.269466
H34   H     H_    0.610311 0.905181 0.213957 0.257685
O11   O     O_3   0.807175 0.869555 0.455870 -0.609144
C51   C     C_3   0.781257 0.855325 0.374972 -0.324236
H35   H     H_    0.706160 0.805559 0.369225 0.175000
H36   H     H_    0.866557 0.840866 0.343277 0.154027
H37   H     H_    0.747564 0.913330 0.345762 0.202913
O12   O     O_3   0.172701 0.211613 0.684998 -0.624416
C52   C     C_3   0.300489 0.213053 0.702999 -0.287117
H38   H     H_    0.344946 0.162044 0.673983 0.159370
H39   H     H_    0.312374 0.202631 0.768576 0.204192
H40   H     H_    0.348050 0.274697 0.685526 0.201370
O13   O     O_3   0.142540 0.649264 0.454306 -0.609446
C53   C     C_3   0.125240 0.674638 0.372677 0.087040
H41   H     H_    0.156188 0.741795 0.365213 0.160331
H42   H     H_    0.026205 0.669537 0.353682 0.122564
C54   C     C_3   0.201854 0.625360 0.317101 -0.377290
H43   H     H_    0.300952 0.632646 0.334154 0.239518
H44   H     H_    0.171823 0.557945 0.322598 0.201490
C55   C     C_3   0.186854 0.656195 0.229992 -0.988788
H45   H     H_    0.087835 0.649837 0.211420 0.268964
H46   H     H_    0.240939 0.618340 0.191129 0.266147
H47   H     H_    0.221348 0.722619 0.221775 0.259128
O14   O     O_3   0.856170 0.355301 0.453679 -0.603631
C56   C     C_3   0.861314 0.342886 0.370522 0.062679
H48   H     H_    0.872014 0.275383 0.363350 0.172632
H49   H     H_    0.940988 0.377919 0.339419 0.097438
C57   C     C_3   0.741303 0.367016 0.328939 -0.282348
H50   H     H_    0.661792 0.331112 0.358277 0.256115
H51   H     H_    0.731238 0.434812 0.334282 0.213642
C58   C     C_3   0.740904 0.348871 0.240441 -0.985749
H52   H     H_    0.818502 0.385321 0.209350 0.264916
H53   H     H_    0.652180 0.366944 0.212406 0.284593
H54   H     H_    0.750053 0.281245 0.233120 0.270821
O15   O     O_3   0.317041 0.388431 0.111397 -0.630582
C59   C     C_3   0.196686 0.371560 0.143187 0.071590
H55   H     H_    0.128992 0.380791 0.093500 0.162549
H56   H     H_    0.171717 0.413245 0.191021 0.111689
C60   C     C_3   0.183762 0.280485 0.175180 -0.322828
H57   H     H_    0.214817 0.239370 0.128990 0.241835
H58   H     H_    0.243749 0.272275 0.229046 0.199991
C61   C     C_3   0.050012 0.253900 0.196965 -0.997882
H59   H     H_    0.016343 0.294957 0.241905 0.255266
H60   H     H_    0.044666 0.188637 0.222605 0.268831
H61   H     H_    0.989354 0.257464 0.143035 0.274348
O16   O     O_3   0.315882 0.596682 0.884830 -0.633922
C62   C     C_3   0.190204 0.571538 0.900259 0.101719
H62   H     H_    0.158853 0.610432 0.948134 0.174348
H63   H     H_    0.176303 0.505322 0.923619 0.125450
C63   C     C_3   0.109777 0.586641 0.825358 -0.384306
H64   H     H_    0.134355 0.649771 0.797543 0.242176
H65   H     H_    0.127656 0.539622 0.781241 0.211822
C64   C     C_3   0.972038 0.580483 0.845709 -0.960630
H66   H     H_    0.946123 0.519755 0.877749 0.263698
H67   H     H_    0.915917 0.585783 0.789915 0.266954
H68   H     H_    0.950365 0.631821 0.884117 0.267122

loop_
_geom_bond_atom_site_label_1
_geom_bond_atom_site_label_2
_ccdc_geom_bond_type
C33   H11   S    
C5    C36   S    
C34   H12   S    
C48   H28   S    
C40   H16   S    
C27   C29   A    
C28   H8    S    
C62   H62   S    
C58   H54   S    
C57   H50   S    
C51   H36   S    
C53   H41   S    
O15   C59   S    
C39   C41   A    
C13   N1    S    
C46   H23   S    
O12   C52   S    
C30   H10   S    
C3    C43   A    
C1    O1    A    
C62   H63   S    
O16   C62   S    
C54   H44   S    
C60   C61   S    
C46   C47   S    
C49   C50   S    
C6    C35   S    
C15   C17   A    
C42   H2    S    
C21   H6    S    
C1    C7    S    
C29   N3    A    
C27   H7    S    
C7    C17   A    
C63   C64   S    
C49   H31   S    
C56   C57   S    
C31   C33   A    
C19   N3    A    
C64   H67   S    
C34   C36   A    
C2    O4    A    
C55   H47   S    
C60   H58   S    
N4    Zn1   S    
C40   C42   A    
C48   H29   S    
C38   H14   S    
C61   H61   S    
C3    C24   S    
C59   C60   S    
C2    O2    A    
O1    Zn1   S    
C51   H35   S    
C55   H46   S    
O9    C45   S    
C46   H24   S    
C32   C42   A    
C9    H18   S    
C53   C54   S    
C62   C63   S    
C4    C6    A    
C54   C55   S    
C23   O5    A    
C4    C23   S    
O8    Zn1   S    
C24   O6    A    
C4    C44   A    
C58   H53   S    
C12   O15   S    
C8    C18   A    
O2    Zn2   S    
C31   O11   S    
C63   H65   S    
C50   H32   S    
C47   H27   S    
C39   H15   S    
C49   H30   S    
C14   N2    S    
C16   C18   A    
C23   O7    A    
C64   H68   S    
C9    C11   A    
C10   C12   A    
C22   H5    S    
C24   O8    A    
C50   H33   S    
C5    C44   A    
C47   H26   S    
C45   H21   S    
C48   C49   S    
C45   H22   S    
C6    C43   A    
C13   C15   A    
C32   O12   S    
C56   H48   S    
C26   N6    S    
C14   C16   A    
C52   H40   S    
C10   H17   S    
C25   N5    S    
C20   C22   A    
C58   H52   S    
C57   C58   S    
C61   H60   S    
C55   H45   S    
C59   H56   S    
O13   C53   S    
O7    Zn2   S    
C7    C9    A    
C21   C25   A    
C41   H1    S    
C31   C41   A    
C35   C37   A    
C19   H4    S    
C20   N4    A    
C2    C8    S    
N3    Zn2   S    
O6    Zn2   S    
C12   C14   A    
C59   H55   S    
C3    C5    A    
C57   H51   S    
C53   H42   S    
C60   H57   S    
C11   O16   S    
C25   C27   A    
C45   C46   S    
C26   C28   A    
C63   H64   S    
O4    Zn1   S    
C1    O3    A    
C52   H39   S    
C18   O10   S    
C37   C39   A    
C52   H38   S    
C43   O13   S    
C36   C38   A    
C38   C40   A    
C11   C13   A    
C29   H9    S    
C28   C30   A    
O10   C48   S    
C33   C35   A    
O3    Zn2   S    
C44   O14   S    
C17   O9    S    
N5    N6    D    
C37   H13   S    
C20   H3    S    
C50   H34   S    
C47   H25   S    
C8    C10   A    
N1    N2    D    
C22   C26   A    
O11   C51   S    
C56   H49   S    
C15   H19   S    
C61   H59   S    
C16   H20   S    
C64   H66   S    
C54   H43   S    
O5    Zn1   S    
C51   H37   S    
C30   N4    A    
C32   C34   A    
O14   C56   S    
C19   C21   A    
