data_mof_unit_pretest_1689.cif
_audit_creation_date              2012-12-10T19:21:14-0500
_audit_creation_method            fapswitch 2.2
_symmetry_space_group_name_H-M    P1
_symmetry_Int_Tables_number       1
_space_group_crystal_system       triclinic
_cell_length_a                    15.776706
_cell_length_b                    14.979274
_cell_length_c                    19.217903
_cell_angle_alpha                 90.20461
_cell_angle_beta                  90.095874
_cell_angle_gamma                 90.12038
_cell_volume                      4541.59866064

loop_
_atom_site_label
_atom_site_type_symbol
_atom_type_description
_atom_site_fract_x
_atom_site_fract_y
_atom_site_fract_z
_atom_type_partial_charge
C1    C     C_R   0.338069 0.499936 0.500307 0.914909
C2    C     C_R   0.466583 0.491036 0.070247 0.287764
C3    C     C_R   0.428706 0.555044 0.816232 -0.171657
C4    C     C_R   0.531188 0.434629 0.820968 -0.166754
C5    C     C_R   0.436879 0.558714 0.744323 -0.023372
C6    C     C_R   0.540942 0.437912 0.749274 -0.038841
C7    C     C_R   0.493371 0.499901 0.710321 -0.121051
C8    C     C_R   0.475306 0.492938 0.854574 0.047208
C9    C     C_3   0.050052 0.591397 0.546840 -0.081296
C10   C     C_3   0.049593 0.414017 0.549365 -0.070247
C11   C     C_3   0.949611 0.422201 0.556453 -0.195944
C12   C     C_3   0.950512 0.594955 0.536963 -0.216598
C13   C     C_1   0.750634 0.500426 0.503699 -0.118053
C14   C     C_3   0.082980 0.501557 0.511061 0.121052
C15   C     C_3   0.917069 0.501957 0.511172 0.074956
C16   C     C_R   0.499328 0.499762 0.365258 0.853493
C17   C     C_3   0.951097 0.488207 0.435988 -0.415126
C18   C     C_3   0.048122 0.499795 0.435027 -0.414828
C19   C     C_1   0.825600 0.501049 0.507238 -0.024398
C20   C     C_1   0.174750 0.500599 0.507094 -0.140641
C21   C     C_1   0.249666 0.499968 0.503596 -0.167230
C22   C     C_3   0.406763 0.052490 0.475739 -0.179061
C23   C     C_3   0.407203 0.946951 0.474545 -0.184036
C24   C     C_3   0.517793 0.053096 0.575012 -0.228165
C25   C     C_3   0.516096 0.947484 0.575300 -0.227702
C26   C     C_3   0.494522 0.090119 0.501035 0.103209
C27   C     C_3   0.494417 0.909864 0.500953 0.100816
C28   C     C_3   0.562980 0.947812 0.450791 -0.416921
C29   C     C_3   0.562121 0.052024 0.449997 -0.420037
C30   C     C_1   0.497026 0.809138 0.499299 0.077797
C31   C     C_1   0.497059 0.190855 0.499329 0.070905
C32   C     C_R   0.662132 0.500094 0.500351 0.907152
C33   C     C_R   0.499466 0.500131 0.634737 0.861153
C34   C     C_R   0.475393 0.577264 0.253445 -0.190263
C35   C     C_R   0.499754 0.417237 0.253972 -0.188501
C36   C     C_R   0.464970 0.574684 0.181757 -0.153455
C37   C     C_R   0.489768 0.414720 0.182423 -0.154654
C38   C     C_R   0.472431 0.493392 0.145860 0.086488
C39   C     C_R   0.492722 0.498482 0.289829 -0.032812
C40   C     C_R   0.468128 0.490725 0.930011 0.311666
H1    H     H_    0.469112 0.640574 0.280339 0.159297
H2    H     H_    0.512849 0.355526 0.281135 0.160021
H3    H     H_    0.922049 0.536919 0.399389 0.187617
H4    H     H_    0.934065 0.420384 0.416538 0.220154
H5    H     H_    0.585017 0.072957 0.584704 0.190635
H6    H     H_    0.582152 0.925590 0.587009 0.191304
H7    H     H_    0.548974 0.075540 0.396182 0.179208
H8    H     H_    0.552019 0.922224 0.397072 0.179189
H9    H     H_    0.626180 0.077557 0.464191 0.193857
H10   H     H_    0.626934 0.924220 0.466803 0.197494
H11   H     H_    0.397993 0.074797 0.420980 0.134058
H12   H     H_    0.400608 0.926128 0.419099 0.134801
H13   H     H_    0.452235 0.636383 0.154503 0.155892
H14   H     H_    0.495743 0.351162 0.155859 0.155762
H15   H     H_    0.384967 0.599848 0.842203 0.161548
H16   H     H_    0.568562 0.387477 0.850689 0.163484
H17   H     H_    0.918823 0.361476 0.534491 0.233059
H18   H     H_    0.936018 0.640466 0.492794 0.230534
H19   H     H_    0.064588 0.562768 0.407612 0.194798
H20   H     H_    0.076953 0.445017 0.403830 0.194786
N1    N     N_R   0.494092 0.418442 0.034705 -0.169433
N2    N     N_R   0.438359 0.562951 0.034499 -0.169253
N3    N     N_R   0.494961 0.418320 0.965753 -0.163697
N4    N     N_R   0.438972 0.562734 0.965451 -0.162853
N5    N     N_1   0.498630 0.731150 0.498610 -0.075314
N6    N     N_1   0.498630 0.268850 0.498610 -0.077682
O1    O     O_R   0.377210 0.574260 0.500070 -0.611546
O2    O     O_R   0.377210 0.425740 0.500070 -0.609672
O3    O     O_R   0.500060 0.574250 0.398210 -0.623632
O4    O     O_R   0.500060 0.425750 0.398210 -0.624495
O5    O     O_R   0.622930 0.574200 0.500080 -0.598625
O6    O     O_R   0.622930 0.425800 0.500080 -0.603950
O7    O     O_R   0.500080 0.574210 0.601940 -0.592665
O8    O     O_R   0.500080 0.425790 0.601940 -0.597708
Zn1   Zn    Zn3+2 0.500090 0.599130 0.500100 1.013397
Zn2   Zn    Zn3+2 0.500090 0.400870 0.500100 1.007339
C41   C     C_1   0.333666 0.905030 0.509462 0.156060
N7    N     N_1   0.276058 0.872035 0.536406 -0.155201
C42   C     C_1   0.334280 0.092209 0.513525 0.152525
N8    N     N_1   0.277389 0.123464 0.542662 -0.168066
C43   C     C_2   0.467540 0.096451 0.633236 0.429734
H21   H     H_    0.400591 0.082860 0.639590 0.079043
O9    O     O_2   0.502378 0.146860 0.674418 -0.538045
C44   C     C_2   0.461640 0.906995 0.632059 0.432644
H22   H     H_    0.395136 0.923745 0.636541 0.078755
O10   O     O_2   0.492497 0.855515 0.674160 -0.532537
C45   C     C_1   0.383845 0.620760 0.706670 0.242358
N9    N     N_1   0.341378 0.670344 0.676532 -0.156366
C46   C     C_1   0.601894 0.378592 0.717319 0.253320
N10   N     N_1   0.650645 0.331144 0.691734 -0.094558
C47   C     C_2   0.901891 0.635107 0.597829 0.461056
H23   H     H_    0.904649 0.606215 0.649213 0.062317
O11   O     O_2   0.858926 0.701964 0.589532 -0.518898
C48   C     C_2   0.917433 0.426417 0.630876 0.392751
H24   H     H_    0.948287 0.468485 0.669242 0.079889
O12   O     O_2   0.857217 0.380712 0.648903 -0.533334
C49   C     C_1   0.074517 0.594973 0.621287 0.112397
N11   N     N_1   0.093750 0.598745 0.679394 -0.164950
C50   C     C_1   0.091852 0.401101 0.617749 0.127814
N12   N     N_1   0.125016 0.390408 0.670850 -0.153184
C51   C     C_2   0.076033 0.331035 0.507904 0.419775
H25   H     H_    0.143039 0.318100 0.499762 0.089712
O13   O     O_2   0.024938 0.278278 0.483275 -0.564227
C52   C     C_2   0.092952 0.673545 0.515169 0.418478
H26   H     H_    0.161637 0.677000 0.512886 0.094424
O14   O     O_2   0.052762 0.737661 0.494112 -0.538321

loop_
_geom_bond_atom_site_label_1
_geom_bond_atom_site_label_2
_ccdc_geom_bond_type
C31   N6    T    
C45   N9    T    
C1    C21   S    
C51   H25   S    
O7    Zn1   S    
C14   C18   S    
C13   C32   S    
O6    Zn2   S    
C52   O14   D    
C43   H21   S    
C32   O6    A    
C29   H9    S    
C41   N7    T    
C15   C19   S    
C40   N3    A    
O8    Zn2   S    
C29   H7    S    
C24   H5    S    
C28   C29   S    
C35   C37   A    
C24   C26   S    
C22   C42   S    
C1    O2    A    
N1    N3    A    
C35   H2    S    
N2    N4    A    
C36   H13   S    
C12   C47   S    
C28   H10   S    
C25   C44   S    
C12   C15   S    
C23   C27   S    
C2    N1    A    
C4    C8    A    
C12   H18   S    
C26   C31   S    
C51   O13   D    
C4    H16   S    
C27   C30   S    
C7    C33   S    
C10   C50   S    
C34   H1    S    
C11   C15   S    
C52   H26   S    
C43   O9    D    
C49   N11   T    
C32   O5    A    
C33   O8    A    
C13   C19   T    
C34   C39   A    
C14   C20   S    
C16   O4    A    
C24   C25   S    
C4    C6    A    
C3    C8    A    
C10   C14   S    
C47   H23   S    
C5    C7    A    
C23   C41   S    
C35   C39   A    
C9    C14   S    
C17   H3    S    
C37   C38   A    
C47   O11   D    
C2    C38   S    
C50   N12   T    
C24   C43   S    
N6    Zn2   S    
C17   C18   S    
O2    Zn2   S    
C44   H22   S    
C48   O12   D    
C37   H14   S    
C11   C48   S    
C18   H20   S    
O4    Zn2   S    
O1    Zn1   S    
C33   O7    A    
C15   C17   S    
C28   H8    S    
C9    C49   S    
C10   C51   S    
C16   O3    A    
C44   O10   D    
C3    C5    A    
N5    Zn1   S    
C6    C7    A    
C25   C27   S    
C6    C46   S    
C3    H15   S    
C40   N4    A    
C36   C38   A    
C17   H4    S    
O5    Zn1   S    
C23   H12   S    
C9    C52   S    
C1    O1    A    
O3    Zn1   S    
C34   C36   A    
C48   H24   S    
C9    C12   S    
C30   N5    T    
C10   C11   S    
C16   C39   S    
C42   N8    T    
C5    C45   S    
C18   H19   S    
C20   C21   T    
C26   C29   S    
C22   C26   S    
C27   C28   S    
C22   C23   S    
C8    C40   S    
C46   N10   T    
C11   H17   S    
C25   H6    S    
C2    N2    A    
C22   H11   S    
