data_mof_unit_pretest_680.cif
_audit_creation_date              2013-03-05T16:03:42-0500
_audit_creation_method            fapswitch 2.2
_symmetry_space_group_name_H-M    P1
_symmetry_Int_Tables_number       1
_space_group_crystal_system       triclinic
_cell_length_a                    14.855722
_cell_length_b                    14.126249
_cell_length_c                    18.912534
_cell_angle_alpha                 89.632465
_cell_angle_beta                  90.404596
_cell_angle_gamma                 89.878869
_cell_volume                      3968.71183711

loop_
_atom_site_label
_atom_site_type_symbol
_atom_site_description
_atom_site_fract_x
_atom_site_fract_y
_atom_site_fract_z
_atom_type_partial_charge
O1    O     O_R   0.367850 0.580280 0.500020 -0.570923
O2    O     O_R   0.632150 0.419720 0.499980 -0.567115
O3    O     O_R   0.632150 0.580280 0.499980 -0.590727
O4    O     O_R   0.367850 0.419720 0.500020 -0.578245
C1    C     C_R   0.327249 0.499740 0.497753 0.972557
C2    C     C_R   0.672610 0.499837 0.500619 0.926689
O5    O     O_R   0.499990 0.580300 0.398140 -0.641347
O6    O     O_R   0.500010 0.419700 0.601860 -0.632771
O7    O     O_R   0.500010 0.580300 0.601860 -0.630739
O8    O     O_R   0.499990 0.419700 0.398140 -0.647796
C3    C     C_R   0.503546 0.500342 0.365153 0.909927
C4    C     C_R   0.502375 0.499773 0.635026 0.866719
Zn1   Zn    Zn3+2 0.500000 0.607200 0.500000 0.979909
Zn2   Zn    Zn3+2 0.500000 0.392800 0.500000 0.996866
C5    C     C_R   0.553217 0.584324 0.257063 -0.210980
C6    C     C_R   0.542221 0.414724 0.745916 -0.129560
C7    C     C_R   0.524675 0.585437 0.747711 -0.170848
C8    C     C_R   0.517208 0.417101 0.251003 -0.181711
H1    H     H_    0.558922 0.649877 0.286163 0.153450
H2    H     H_    0.541602 0.347822 0.718513 0.147057
H3    H     H_    0.508884 0.652078 0.721802 0.145269
H4    H     H_    0.492957 0.352292 0.274923 0.150417
C9    C     C_R   0.579349 0.583173 0.186741 -0.181896
C10   C     C_R   0.568374 0.415566 0.816452 -0.137045
C11   C     C_R   0.551238 0.586369 0.818220 -0.149912
C12   C     C_R   0.543977 0.415747 0.180923 -0.157863
H5    H     H_    0.602716 0.648269 0.162590 0.153135
H6    H     H_    0.584523 0.348880 0.842151 0.148036
H7    H     H_    0.553381 0.653544 0.845433 0.147915
H8    H     H_    0.538434 0.350022 0.152085 0.152174
C13   C     C_R   0.574632 0.498901 0.148129 0.092488
C14   C     C_R   0.572755 0.501337 0.853256 0.084794
C15   C     C_R   0.521966 0.501213 0.289574 -0.001369
C16   C     C_R   0.519909 0.499568 0.711073 -0.005672
N1    N     N_R   0.593863 0.417310 0.035842 -0.179989
N2    N     N_R   0.592784 0.583371 0.965757 -0.176263
N3    N     N_R   0.593374 0.417976 0.965698 -0.178095
N4    N     N_R   0.593434 0.582715 0.035945 -0.174493
C17   C     C_R   0.590631 0.500987 0.929401 0.291614
C18   C     C_R   0.591804 0.499645 0.072182 0.279300
C19   C     C_R   0.810997 0.519826 0.438619 -0.291131
C20   C     C_R   0.188105 0.480648 0.558339 -0.252859
C21   C     C_R   0.767637 0.498917 0.501390 -0.174771
C22   C     C_R   0.231900 0.497824 0.494959 -0.173809
C23   C     C_R   0.813873 0.471531 0.562698 0.288143
C24   C     C_R   0.185596 0.502187 0.429996 0.237713
C25   C     C_R   0.907645 0.469361 0.561536 -0.036017
C26   C     C_R   0.091545 0.505362 0.431311 -0.026759
C27   C     C_R   0.952699 0.489806 0.497491 -0.038739
C28   C     C_R   0.046508 0.488831 0.495969 -0.028680
C29   C     C_R   0.903841 0.513717 0.435426 0.051293
C30   C     C_R   0.095357 0.472430 0.559286 0.047031
C31   C     C_R   0.957018 0.449993 0.623287 -0.272777
C32   C     C_R   0.041971 0.527724 0.369972 -0.266941
C33   C     C_R   0.050782 0.449903 0.622471 0.445317
C34   C     C_R   0.948273 0.531648 0.371521 0.446809
H9    H     H_    0.771452 0.538576 0.392083 0.181824
H10   H     H_    0.227311 0.471822 0.606603 0.181376
H11   H     H_    0.923407 0.437722 0.673088 0.205112
H12   H     H_    0.075498 0.546715 0.321302 0.198542
C35   C     C_R   0.579433 0.799874 0.503542 0.476324
C36   C     C_R   0.426010 0.200975 0.522783 0.483121
C37   C     C_R   0.420173 0.800663 0.497824 0.531675
C38   C     C_R   0.575233 0.201317 0.478456 0.505076
N5    N     N_R   0.500000 0.750030 0.500000 -0.223024
N6    N     N_R   0.500000 0.249970 0.500000 -0.207014
C39   C     C_R   0.418864 0.900378 0.507712 -0.175304
C40   C     C_R   0.579393 0.101008 0.484473 -0.198354
C41   C     C_R   0.580568 0.899626 0.492490 -0.195064
C42   C     C_R   0.419405 0.101494 0.512087 -0.213823
C43   C     C_R   0.499368 0.950503 0.498506 -0.144140
C44   C     C_R   0.499120 0.050961 0.497497 -0.116875
C45   C     C_R   0.338076 0.950251 0.522235 0.417143
C46   C     C_R   0.661039 0.049630 0.477570 0.353800
C47   C     C_R   0.660976 0.949721 0.478860 0.395440
C48   C     C_R   0.337433 0.050845 0.520976 0.356545
N7    N     N_R   0.765337 0.446695 0.625487 0.188968
O9    O     O_R   0.763600 0.359277 0.647392 -0.425215
O10   O     O_R   0.722247 0.511253 0.660426 -0.451197
N8    N     N_R   0.232471 0.493631 0.363741 0.179864
O11   O     O_R   0.205316 0.432362 0.317170 -0.418892
O12   O     O_R   0.306350 0.539852 0.351877 -0.465235
O13   O     O_3   0.098924 0.436108 0.684669 -0.643270
C49   C     C_3   0.091517 0.340420 0.706003 0.054698
H13   H     H_    0.118494 0.292758 0.664401 0.131857
H14   H     H_    0.020272 0.321321 0.717035 0.158007
C50   C     C_3   0.146273 0.325619 0.773765 -0.301470
H15   H     H_    0.218329 0.339655 0.762714 0.218467
H16   H     H_    0.123443 0.376576 0.814480 0.238136
C51   C     C_3   0.135662 0.225138 0.802660 -0.952804
H17   H     H_    0.064701 0.212433 0.818157 0.269043
H18   H     H_    0.179440 0.215556 0.850002 0.271306
H19   H     H_    0.155230 0.172312 0.762365 0.267142
O14   O     O_3   0.900101 0.561452 0.312469 -0.654381
C52   C     C_3   0.901406 0.489708 0.260841 0.067137
H20   H     H_    0.883749 0.419324 0.284073 0.138422
H21   H     H_    0.969215 0.485649 0.236347 0.167767
C53   C     C_3   0.831924 0.513929 0.203503 -0.342585
H22   H     H_    0.763423 0.511853 0.226744 0.221213
H23   H     H_    0.844280 0.586737 0.183157 0.239823
C54   C     C_3   0.836467 0.444717 0.141996 -0.927530
H24   H     H_    0.903554 0.448264 0.116552 0.269372
H25   H     H_    0.784340 0.463528 0.101963 0.273779
H26   H     H_    0.824299 0.371242 0.160682 0.266601
O15   O     O_3   0.658919 0.753803 0.519797 -0.595930
C55   C     C_3   0.665945 0.741627 0.594114 0.194806
H27   H     H_    0.706098 0.676601 0.603976 0.204580
H28   H     H_    0.599746 0.730519 0.620375 0.120612
C56   C     C_3   0.715802 0.824520 0.628470 -0.408364
H29   H     H_    0.781570 0.835153 0.601942 0.262477
H30   H     H_    0.675307 0.890306 0.622722 0.211818
C57   C     C_3   0.732409 0.805830 0.707050 -0.929872
H31   H     H_    0.667464 0.795760 0.734866 0.263728
H32   H     H_    0.767938 0.867182 0.730673 0.266335
H33   H     H_    0.774794 0.741609 0.714567 0.286388
O16   O     O_3   0.360148 0.248003 0.560137 -0.599805
C58   C     C_3   0.387008 0.254599 0.632042 0.148920
H34   H     H_    0.363646 0.324220 0.651956 0.150600
H35   H     H_    0.461486 0.251788 0.640115 0.120863
C59   C     C_3   0.343206 0.177085 0.676890 -0.346705
H36   H     H_    0.268864 0.183295 0.672438 0.246048
H37   H     H_    0.363811 0.106346 0.657620 0.243377
C60   C     C_3   0.371899 0.184645 0.754329 -0.987989
H38   H     H_    0.445470 0.172024 0.759759 0.266094
H39   H     H_    0.335862 0.130594 0.786168 0.282501
H40   H     H_    0.355951 0.255817 0.775391 0.266027
O17   O     O_3   0.339833 0.757063 0.481445 -0.611197
C61   C     C_3   0.333487 0.743066 0.407292 0.134643
H41   H     H_    0.272339 0.699926 0.397939 0.201121
H42   H     H_    0.391788 0.702734 0.387394 0.200718
C62   C     C_3   0.323097 0.834680 0.363448 -0.518706
H43   H     H_    0.264008 0.875296 0.381561 0.216294
H44   H     H_    0.384115 0.879364 0.368736 0.218087
C63   C     C_3   0.309995 0.812305 0.285207 -0.864290
H45   H     H_    0.369003 0.772656 0.264914 0.269398
H46   H     H_    0.302940 0.879286 0.254601 0.258545
H47   H     H_    0.248196 0.769406 0.277246 0.273948
O18   O     O_3   0.648999 0.250404 0.453650 -0.585628
C64   C     C_3   0.638703 0.269521 0.380342 0.168426
H48   H     H_    0.649535 0.346512 0.372186 0.162531
H49   H     H_    0.570875 0.251845 0.358221 0.091694
C65   C     C_3   0.710611 0.217345 0.338127 -0.340591
H50   H     H_    0.778112 0.231553 0.361477 0.245635
H51   H     H_    0.697616 0.140002 0.340154 0.234582
C66   C     C_3   0.710045 0.249330 0.260918 -1.013602
H52   H     H_    0.644444 0.232094 0.235635 0.271073
H53   H     H_    0.764384 0.212336 0.231973 0.274468
H54   H     H_    0.721584 0.326845 0.257209 0.273027
O19   O     O_3   0.268645 0.901493 0.555388 -0.599777
C67   C     C_3   0.188248 0.901028 0.514785 0.189604
H55   H     H_    0.178058 0.828565 0.493768 0.171407
H56   H     H_    0.188405 0.949801 0.468811 0.087846
C68   C     C_3   0.108606 0.924896 0.562377 -0.330237
H57   H     H_    0.103987 0.871076 0.605327 0.231604
H58   H     H_    0.119361 0.995120 0.587091 0.245925
C69   C     C_3   0.020077 0.926714 0.520811 -0.976512
H59   H     H_    0.022111 0.982001 0.478816 0.262743
H60   H     H_    0.963704 0.943052 0.557015 0.271871
H61   H     H_    0.007341 0.856738 0.496248 0.275221
O20   O     O_3   0.741959 0.096212 0.468374 -0.631679
C70   C     C_3   0.784017 0.108242 0.534898 0.151973
H62   H     H_    0.808090 0.038671 0.555744 0.145278
H63   H     H_    0.737064 0.140643 0.573761 0.150375
C71   C     C_3   0.864605 0.174342 0.525948 -0.295264
H64   H     H_    0.910045 0.145807 0.484722 0.217473
H65   H     H_    0.840392 0.245264 0.508249 0.251414
C72   C     C_3   0.917572 0.184874 0.594884 -0.977569
H66   H     H_    0.872991 0.209369 0.637939 0.302898
H67   H     H_    0.971869 0.237816 0.587513 0.257057
H68   H     H_    0.948547 0.116149 0.610491 0.257942
O21   O     O_3   0.741363 0.901671 0.469413 -0.618052
C73   C     C_3   0.760861 0.894314 0.396388 0.136642
H69   H     H_    0.834018 0.907806 0.389964 0.165345
H70   H     H_    0.725110 0.947451 0.362264 0.106465
C74   C     C_3   0.740083 0.794034 0.370452 -0.312413
H71   H     H_    0.774508 0.741404 0.405313 0.270305
H72   H     H_    0.666393 0.781410 0.372713 0.212002
C75   C     C_3   0.771165 0.779351 0.294604 -0.958142
H73   H     H_    0.737240 0.830709 0.258503 0.255317
H74   H     H_    0.753752 0.706519 0.277535 0.280007
H75   H     H_    0.845257 0.788372 0.291031 0.281973
O22   O     O_3   0.258046 0.097710 0.536780 -0.628215
C76   C     C_3   0.223715 0.144519 0.475696 0.139665
H76   H     H_    0.208921 0.093658 0.432649 0.093270
H77   H     H_    0.271700 0.197447 0.454278 0.174580
C77   C     C_3   0.137073 0.196143 0.495535 -0.341222
H78   H     H_    0.088738 0.144593 0.518179 0.226271
H79   H     H_    0.152483 0.250216 0.536287 0.237212
C78   C     C_3   0.093496 0.244691 0.431659 -0.939838
H80   H     H_    0.140789 0.296377 0.407929 0.303244
H81   H     H_    0.031964 0.282977 0.448463 0.261721
H82   H     H_    0.074224 0.191461 0.391360 0.259402

loop_
_geom_bond_atom_site_label_1
_geom_bond_atom_site_label_2
_geom_bond_distance
_ccdc_geom_bond_type
C24   N8    1.443457 S    
C50   H15   1.110122 S    
C37   N5    1.383821 A    
C54   H24   1.110867 S    
C66   H54   1.110543 S    
C52   H20   1.116928 S    
C8    C12   1.386691 A    
C49   C50   1.526080 S    
O21   C73   1.417560 S    
C62   C63   1.526291 S    
C61   H41   1.108744 S    
C20   H10   1.085692 S    
C63   H47   1.111012 S    
C57   H32   1.110349 S    
C70   H62   1.113876 S    
C31   H11   1.082291 S    
C52   C53   1.528528 S    
C60   H38   1.110954 S    
C25   C27   1.416439 A    
C32   H12   1.082214 S    
N7    O9    1.300374 A    
O16   C58   1.418216 S    
C26   C32   1.403639 A    
O1    C1    1.289666 A    
C38   C40   1.422012 A    
C71   H64   1.111933 S    
N1    N3    1.326540 A    
C49   H14   1.113606 S    
C76   H77   1.110706 S    
C73   H69   1.111146 S    
C64   C65   1.529077 S    
C75   H74   1.110797 S    
C60   H39   1.110218 S    
C55   H27   1.108274 S    
C40   C46   1.419385 A    
C53   H22   1.111718 S    
C13   C18   1.460571 S    
C36   C42   1.424547 A    
C78   H81   1.110535 S    
C29   C34   1.403071 A    
C23   C25   1.393659 A    
C41   C43   1.408517 A    
O7    Zn1   1.961155 S    
O22   C76   1.418592 S    
C56   H30   1.110302 S    
C6    C16   1.402033 A    
C5    H1    1.083424 S    
C51   H18   1.110301 S    
C69   H60   1.110287 S    
O13   C49   1.412900 S    
C73   H70   1.117715 S    
C27   C29   1.414418 A    
C67   C68   1.529997 S    
C28   C30   1.413412 A    
C39   C45   1.419775 A    
C9    H5    1.083013 S    
C72   H68   1.110802 S    
C35   O15   1.378930 S    
C39   C43   1.402475 A    
O3    Zn1   1.998888 S    
C30   C33   1.405327 A    
O6    C4    1.297350 A    
C25   C31   1.399893 A    
O3    C2    1.284351 A    
C11   C14   1.403307 A    
C5    C9    1.388278 A    
C12   C13   1.403144 A    
C54   H25   1.109855 S    
C19   C21   1.385138 A    
C65   C66   1.525708 S    
O2    C2    1.282674 A    
C20   C22   1.388147 A    
C48   O22   1.386615 S    
C57   H31   1.111148 S    
C70   H63   1.116443 S    
C22   C24   1.404764 A    
C66   H52   1.110671 S    
C74   C75   1.525348 S    
C24   C26   1.398224 A    
C31   C33   1.393133 A    
C11   H7    1.082824 S    
C37   C39   1.422254 A    
C46   C47   1.411403 A    
C66   H53   1.110196 S    
C75   H73   1.110739 S    
C3    C15   1.457238 S    
C49   H13   1.114945 S    
C72   H67   1.110036 S    
O18   C64   1.417933 S    
C58   C59   1.529940 S    
C72   H66   1.109805 S    
C36   N6    1.370747 A    
N8    O11   1.301483 A    
C60   H40   1.109543 S    
Zn1   N5    2.017652 S    
C7    H3    1.082990 S    
C56   C57   1.526018 S    
C40   C44   1.409990 A    
C9    C13   1.402180 A    
C78   H82   1.110607 S    
C34   O14   1.384946 S    
C76   H76   1.110388 S    
C10   C14   1.402604 A    
C36   O16   1.382311 S    
O7    C4    1.295785 A    
C33   O13   1.384834 S    
O5    C3    1.295007 A    
C74   H71   1.111885 S    
C6    H2    1.080794 S    
C52   H21   1.113264 S    
Zn2   N6    2.017654 S    
N7    O10   1.299733 A    
O14   C52   1.412007 S    
C68   C69   1.527509 S    
C26   C28   1.416356 A    
C21   C23   1.395602 A    
C38   N6    1.376324 A    
N8    O12   1.298393 A    
C1    C22   1.417407 S    
C12   H8    1.082785 S    
C74   H72   1.110608 S    
C53   H23   1.111890 S    
C2    C21   1.411704 S    
C50   H16   1.111706 S    
C42   C48   1.424121 A    
C45   C48   1.421072 A    
C67   H56   1.105920 S    
C76   C77   1.528288 S    
C68   H58   1.110689 S    
C7    C16   1.402492 A    
C4    C16   1.459800 S    
O17   C61   1.420049 S    
C61   C62   1.539434 S    
C38   O18   1.381334 S    
C70   C71   1.529507 S    
C59   H36   1.110267 S    
C59   H37   1.109058 S    
C51   H19   1.109800 S    
C35   C41   1.423367 A    
C69   H59   1.110927 S    
O6    Zn2   1.965938 S    
C45   O19   1.392125 S    
C8    H4    1.082128 S    
N2    C17   1.355844 A    
C10   H6    1.082915 S    
O4    C1    1.280441 A    
C62   H44   1.109995 S    
C61   H42   1.105270 S    
C63   H46   1.110406 S    
C64   H48   1.109726 S    
C59   C60   1.526899 S    
C32   C34   1.393465 A    
C63   H45   1.111243 S    
C69   H61   1.110941 S    
C54   H26   1.109884 S    
C53   C54   1.526113 S    
O15   C55   1.418005 S    
C47   O21   1.385609 S    
C58   H34   1.111174 S    
C67   H55   1.110739 S    
C46   O20   1.383172 S    
C7    C11   1.388147 A    
O20   C70   1.412187 S    
C77   C78   1.524883 S    
C58   H35   1.116434 S    
N1    C18   1.355157 A    
C77   H78   1.109885 S    
C19   H9    1.085777 S    
C43   C44   1.419093 A    
N3    C17   1.355375 A    
C56   H29   1.111499 S    
N2    N4    1.327375 A    
N4    C18   1.355478 A    
C64   H49   1.117668 S    
C51   H17   1.110811 S    
C55   H28   1.115799 S    
C71   H65   1.112490 S    
C19   C29   1.383550 A    
C41   C47   1.414101 A    
C65   H51   1.110371 S    
C71   C72   1.526296 S    
O4    Zn2   1.998889 S    
C78   H80   1.109288 S    
O2    Zn2   2.000465 S    
C8    C15   1.399874 A    
C75   H75   1.110788 S    
O8    C3    1.296645 A    
C73   C74   1.533376 S    
C35   N5    1.376857 A    
O5    Zn1   1.965942 S    
O1    Zn1   2.000467 S    
C6    C10   1.386922 A    
C27   C28   1.394149 A    
C50   C51   1.526577 S    
C20   C30   1.383186 A    
C14   C17   1.462492 S    
C65   H50   1.112010 S    
C42   C44   1.411264 A    
C23   N7    1.435605 S    
C68   H57   1.111585 S    
O19   C67   1.415411 S    
C77   H79   1.111614 S    
C5    C15   1.403225 A    
C57   H33   1.111011 S    
C37   O17   1.378429 S    
C62   H43   1.105318 S    
O8    Zn2   1.961159 S    
C55   C56   1.532500 S    
