data_mof_unit_pretest_1660.cif
_audit_creation_date              2013-03-05T16:13:36-0500
_audit_creation_method            fapswitch 2.2
_symmetry_space_group_name_H-M    P1
_symmetry_Int_Tables_number       1
_space_group_crystal_system       triclinic
_cell_length_a                    19.429239
_cell_length_b                    19.370897
_cell_length_c                    19.367062
_cell_angle_alpha                 84.8565
_cell_angle_beta                  95.052692
_cell_angle_gamma                 90.191935
_cell_volume                      7231.38518862

loop_
_atom_site_label
_atom_site_type_symbol
_atom_site_description
_atom_site_fract_x
_atom_site_fract_y
_atom_site_fract_z
_atom_type_partial_charge
Zn1   Zn    Zn3+2 0.558310 0.558310 0.558290 1.051353
Zn2   Zn    Zn3+2 0.446830 0.436990 0.558720 1.001156
Zn3   Zn    Zn3+2 0.558290 0.446420 0.446420 1.001723
Zn4   Zn    Zn3+2 0.436570 0.558290 0.436570 1.120536
O1    O     O_3   0.500000 0.500000 0.500000 -0.535572
O2    O     O_R   0.340780 0.536140 0.450970 -0.546703
O3    O     O_R   0.655640 0.545460 0.545430 -0.591495
O4    O     O_R   0.467850 0.451260 0.656340 -0.643220
O5    O     O_R   0.535740 0.467130 0.347260 -0.651724
O6    O     O_R   0.467830 0.341070 0.546160 -0.645987
O7    O     O_R   0.450560 0.655630 0.450550 -0.592363
O8    O     O_R   0.545840 0.347670 0.467560 -0.633333
O9    O     O_R   0.535760 0.655640 0.535740 -0.632593
O10   O     O_R   0.545870 0.536170 0.656040 -0.623854
O11   O     O_R   0.450550 0.545430 0.340370 -0.573107
O12   O     O_R   0.347960 0.451240 0.536460 -0.657631
O13   O     O_R   0.655630 0.467150 0.467130 -0.643207
C1    C     C_R   0.311556 0.491793 0.491966 0.866203
C2    C     C_R   0.688327 0.508301 0.507182 0.825789
C3    C     C_R   0.508491 0.491929 0.689202 0.836865
C4    C     C_R   0.492126 0.508373 0.310856 0.890621
C5    C     C_R   0.508502 0.311541 0.508775 0.850322
C6    C     C_R   0.491118 0.688356 0.491958 0.867972
C7    C     C_R   0.490715 0.764236 0.484606 -0.175767
C8    C     C_R   0.554065 0.798405 0.494535 -0.262600
C9    C     C_R   0.558551 0.870256 0.481347 0.373697
C10   C     C_R   0.497655 0.908507 0.459125 -0.043735
C11   C     C_R   0.434479 0.874556 0.448533 -0.197320
C12   C     C_R   0.429907 0.802717 0.462020 0.301599
C13   C     C_R   0.556714 0.131471 0.471922 0.700446
C14   C     C_R   0.555189 0.203311 0.470647 -0.214019
C15   C     C_R   0.472199 0.195117 0.557635 -0.167666
C16   C     C_R   0.473832 0.123177 0.559029 -0.152356
C17   C     C_R   0.514560 0.091279 0.514901 -0.049024
C18   C     C_2   0.496499 0.984598 0.454789 0.198803
C19   C     C_2   0.511836 0.015859 0.513849 0.542972
C20   C     C_R   0.512085 0.235723 0.512605 -0.109421
H1    H     H_    0.600858 0.768614 0.510120 0.218565
H2    H     H_    0.587201 0.233461 0.436229 0.207681
H3    H     H_    0.439113 0.218861 0.591071 0.192665
H4    H     H_    0.387850 0.904734 0.433248 0.211549
H5    H     H_    0.441809 0.092454 0.593018 0.205832
C21   C     C_R   0.763576 0.514877 0.505944 -0.139951
C22   C     C_R   0.793667 0.493762 0.447869 -0.197799
C23   C     C_R   0.864679 0.495842 0.445082 -0.045922
C24   C     C_R   0.907104 0.517375 0.501142 0.146012
C25   C     C_R   0.877915 0.541246 0.557981 -0.165933
C26   C     C_R   0.806303 0.540623 0.560933 0.301870
C27   C     C_R   0.135960 0.416310 0.514714 -0.063853
C28   C     C_R   0.207151 0.424467 0.518223 -0.252954
C29   C     C_R   0.192821 0.535797 0.449932 0.701266
C30   C     C_R   0.121427 0.527601 0.446933 -0.251147
C31   C     C_R   0.092773 0.468230 0.480058 -0.014935
C32   C     C_2   0.982325 0.516126 0.500533 -0.318304
C33   C     C_2   0.017649 0.461783 0.482287 0.299377
C34   C     C_R   0.236241 0.484463 0.486528 -0.168544
H6    H     H_    0.762211 0.475511 0.404236 0.195662
H7    H     H_    0.239416 0.383759 0.546079 0.204918
H8    H     H_    0.910928 0.559481 0.600611 0.186665
H9    H     H_    0.114550 0.370384 0.540812 0.195091
H10   H     H_    0.010188 0.561472 0.517018 0.169711
H11   H     H_    0.886636 0.479645 0.399583 0.176514
H12   H     H_    0.088375 0.567894 0.419435 0.190460
C35   C     C_R   0.494598 0.517416 0.235104 -0.252415
C36   C     C_R   0.555390 0.499659 0.207066 -0.312808
C37   C     C_R   0.561310 0.509379 0.135723 0.308797
C38   C     C_R   0.503628 0.534517 0.090945 -0.167086
C39   C     C_R   0.442496 0.554331 0.118802 0.186895
C40   C     C_R   0.438773 0.546178 0.191074 0.597549
C41   C     C_R   0.480942 0.427979 0.874637 0.339166
C42   C     C_R   0.477338 0.433932 0.801881 -0.226486
C43   C     C_R   0.552614 0.533959 0.802264 -0.143100
C44   C     C_R   0.555762 0.529370 0.874414 -0.143996
C45   C     C_R   0.519648 0.477245 0.911049 0.024428
C46   C     C_2   0.505600 0.535891 0.015269 -0.050185
C47   C     C_2   0.519940 0.477806 0.986674 -0.070334
C48   C     C_R   0.512804 0.486746 0.765442 -0.074284
H13   H     H_    0.599604 0.480195 0.241175 0.232515
H14   H     H_    0.447098 0.396677 0.773780 0.205742
H15   H     H_    0.580728 0.574938 0.775363 0.200451
H16   H     H_    0.530537 0.430150 0.019736 0.215084
H17   H     H_    0.490144 0.582891 0.982737 0.186013
H18   H     H_    0.586139 0.567011 0.901887 0.197339
F1    F     F_    0.218972 0.594443 0.418636 -0.573763
N1    N     N_R   0.985389 0.395991 0.471485 0.211963
O14   O     O_R   0.009404 0.356524 0.428154 -0.324296
O15   O     O_R   0.939705 0.370874 0.512088 -0.332570
N2    N     N_R   0.778567 0.564634 0.620593 0.217838
O16   O     O_R   0.747490 0.624519 0.614994 -0.315412
O17   O     O_R   0.798682 0.535700 0.682254 -0.332669
N3    N     N_R   0.383192 0.580297 0.074379 0.247003
O18   O     O_R   0.361934 0.549778 0.019258 -0.326298
O19   O     O_R   0.346283 0.630525 0.092444 -0.239260
N4    N     N_R   0.442636 0.373939 0.909835 0.221732
O20   O     O_R   0.383463 0.354323 0.881329 -0.316201
O21   O     O_R   0.470783 0.337293 0.964559 -0.335601
F2    F     F_    0.379298 0.562725 0.217913 -0.562398
N5    N     N_R   0.626519 0.494982 0.109775 0.227230
O22   O     O_R   0.649386 0.535265 0.059447 -0.344357
O23   O     O_R   0.667124 0.446849 0.141932 -0.325236
F3    F     F_    0.523594 0.976892 0.575918 -0.622964
F4    F     F_    0.598653 0.101314 0.430766 -0.581339
N6    N     N_R   0.363085 0.770525 0.455945 0.241143
O24   O     O_R   0.346175 0.723375 0.503594 -0.338861
O25   O     O_R   0.315515 0.795488 0.408909 -0.284163
N7    N     N_R   0.472871 0.022391 0.389443 0.225034
O26   O     O_R   0.480806 0.995517 0.331433 -0.264565
O27   O     O_R   0.434220 0.077375 0.387739 -0.364060
N8    N     N_R   0.624945 0.903194 0.489589 0.233023
O28   O     O_R   0.673834 0.875022 0.533234 -0.296432
O29   O     O_R   0.639476 0.956920 0.448244 -0.269655

loop_
_geom_bond_atom_site_label_1
_geom_bond_atom_site_label_2
_geom_bond_distance
_ccdc_geom_bond_type
C44   C45   1.403484 A    
C23   H11   1.083334 S    
C18   C19   1.351567 D    
C21   C22   1.405019 A    
C42   H14   1.083259 S    
C23   C24   1.397667 A    
O6    C5    1.286063 A    
C12   N6    1.438428 S    
C9    C10   1.411776 A    
O4    C3    1.283122 A    
C27   H9    1.083458 S    
C45   C47   1.465154 S    
C3    C48   1.465928 S    
Zn1   O1    1.956658 S    
C16   H5    1.083516 S    
C11   C12   1.396686 A    
C41   N4    1.438959 S    
N8    O29   1.300922 A    
C13   C14   1.389981 A    
N7    O26   1.301117 A    
N5    O22   1.301512 A    
O8    C5    1.285163 A    
C11   H4    1.084174 S    
C39   N3    1.439614 S    
O9    C6    1.284806 A    
C29   C34   1.405974 A    
C7    C12   1.413949 A    
C4    C35   1.466840 S    
Zn3   O8    1.938852 S    
C24   C25   1.396499 A    
C39   C40   1.402656 A    
C41   C45   1.412814 A    
C6    C7    1.463956 S    
C26   N2    1.431614 S    
C41   C42   1.399005 A    
Zn2   O12   1.946409 S    
C21   C26   1.417311 A    
C1    C34   1.465148 S    
N1    O15   1.301684 A    
C37   C38   1.414896 A    
C24   C32   1.462867 S    
C2    C21   1.469262 S    
C31   C33   1.468608 S    
O2    C1    1.282409 A    
C13   C17   1.403348 A    
C38   C39   1.414994 A    
C28   H7    1.083202 S    
O10   C3    1.285943 A    
C7    C8    1.402042 A    
Zn4   O2    1.946867 S    
N3    O18   1.301376 A    
C43   C44   1.388129 A    
C10   C18   1.468944 S    
C8    C9    1.396201 A    
N1    O14   1.301079 A    
C5    C20   1.465441 S    
C28   C34   1.405594 A    
C29   C30   1.392373 A    
C19   F3    1.362755 S    
C33   N1    1.442297 S    
C46   C47   1.338395 D    
C43   C48   1.399392 A    
Zn3   O5    1.937990 S    
C8    H1    1.083788 S    
N3    O19   1.301241 A    
C25   C26   1.397528 A    
C22   H6    1.083396 S    
C13   F4    1.357059 S    
C16   C17   1.398378 A    
N6    O25   1.301391 A    
C15   C20   1.404212 A    
Zn4   O7    1.943623 S    
N4    O21   1.300724 A    
C9    N8    1.439826 S    
N2    O17   1.300852 A    
C27   C28   1.388051 A    
N5    O23   1.301490 A    
Zn2   O1    1.949328 S    
Zn1   O9    1.939459 S    
Zn2   O6    1.944639 S    
C42   C48   1.403922 A    
C30   C31   1.403736 A    
C32   C33   1.348437 D    
C36   H13   1.083536 S    
Zn1   O3    1.948663 S    
Zn2   O4    1.942821 S    
C22   C23   1.385818 A    
Zn4   O1    1.948533 S    
Zn3   O1    1.960775 S    
C30   H12   1.083406 S    
C47   H16   1.084732 S    
C46   H17   1.087072 S    
C32   H10   1.087766 S    
C35   C40   1.403547 A    
O3    C2    1.285185 A    
C35   C36   1.399089 A    
C37   N5    1.440533 S    
Zn4   O11   1.944177 S    
C43   H15   1.083044 S    
C18   N7    1.442956 S    
N8    O28   1.301499 A    
C15   C16   1.391787 A    
O5    C4    1.285195 A    
N7    O27   1.301583 A    
C27   C31   1.396959 A    
O7    C6    1.281576 A    
O13   C2    1.288934 A    
C14   H2    1.083070 S    
Zn3   O13   1.946558 S    
C17   C19   1.463652 S    
C15   H3    1.082973 S    
N4    O20   1.301456 A    
C25   H8    1.084110 S    
C14   C20   1.403845 A    
O11   C4    1.285815 A    
C38   C46   1.467340 S    
N2    O16   1.300994 A    
O12   C1    1.278642 A    
C36   C37   1.392491 A    
N6    O24   1.301525 A    
Zn1   O10   1.939234 S    
C29   F1    1.357580 S    
C44   H18   1.083721 S    
C10   C11   1.398448 A    
C40   F2    1.358812 S    
