data_mof_unit_pretest_683.cif
_audit_creation_date              2012-10-26T21:00:43-0400
_audit_creation_method            fapswitch 2.2
_symmetry_space_group_name_H-M    P1
_symmetry_Int_Tables_number       1
_space_group_crystal_system       triclinic
_cell_length_a                    10.790282
_cell_length_b                    9.704319
_cell_length_c                    10.92975
_cell_angle_alpha                 90.000504
_cell_angle_beta                  92.310214
_cell_angle_gamma                 90.006058
_cell_volume                      1143.54947218

loop_
_atom_site_label
_atom_site_type_symbol
_atom_type_description
_atom_site_fract_x
_atom_site_fract_y
_atom_site_fract_z
_atom_type_partial_charge
C1    C     C_R   0.262958 0.498921 0.513287 0.522848
C2    C     C_R   0.504598 0.499404 0.737607 0.538872
C3    C     C_R   0.421016 0.743557 0.098737 0.027116
C4    C     C_R   0.578834 0.743614 0.901273 0.027131
C5    C     C_R   0.457005 0.868149 0.046018 -0.113548
C6    C     C_R   0.542752 0.868180 0.953958 -0.113555
C7    C     C_R   0.525149 0.619104 0.941856 0.010542
C8    C     C_R   0.474762 0.619087 0.058156 0.010559
C9    C     C_R   0.487995 0.495829 0.127429 -0.016225
C10   C     C_R   0.511955 0.495841 0.872572 -0.016234
C11   C     C_R   0.509294 0.370690 0.063546 -0.015819
C12   C     C_R   0.737038 0.498933 0.486700 0.522874
C13   C     C_R   0.490652 0.370694 0.936443 -0.015815
C14   C     C_R   0.061871 0.367062 0.523345 0.016335
C15   C     C_R   0.938090 0.367094 0.476456 0.016281
C16   C     C_R   0.872888 0.493549 0.470958 -0.121418
C17   C     C_R   0.127103 0.493513 0.528996 -0.121400
C18   C     C_3   0.560349 0.240550 0.124077 -0.360374
C19   C     C_3   0.439590 0.240551 0.875900 -0.360391
C20   C     C_3   0.312073 0.745797 0.180303 -0.348578
C21   C     C_3   0.687813 0.745943 0.819756 -0.348596
C22   C     C_2   0.110787 0.245858 0.594108 0.243791
C23   C     C_R   0.941407 0.615685 0.471140 0.028819
C24   C     C_2   0.889119 0.245974 0.405592 0.243802
C25   C     C_2   0.920556 0.711006 0.366934 0.226450
C26   C     C_2   0.079514 0.710903 0.633190 0.226433
C27   C     C_3   0.307260 0.133966 0.359995 -0.345589
C28   C     C_3   0.692777 0.134057 0.639949 -0.345527
C29   C     C_3   0.270856 0.883643 0.513202 -0.303377
C30   C     C_3   0.729180 0.883653 0.486936 -0.303351
C31   C     C_R   0.058608 0.615650 0.528938 0.028779
C32   C     C_R   0.403502 0.072946 0.448312 0.105058
C33   C     C_R   0.596505 0.072978 0.551683 0.105058
C34   C     C_R   0.394512 0.930227 0.475473 0.078599
C35   C     C_R   0.605491 0.930258 0.524532 0.078565
C36   C     C_R   0.495390 0.499400 0.262394 0.538857
Cu1   Cu    Cu3+1 0.500000 0.640660 0.500000 0.911894
Cu2   Cu    Cu3+1 0.500000 0.359340 0.500000 0.886389
H1    H     H_    0.420253 0.964794 0.078026 0.100778
H2    H     H_    0.281644 0.640719 0.205637 0.141746
H3    H     H_    0.232139 0.796983 0.131945 0.135805
H4    H     H_    0.767703 0.797180 0.868156 0.135790
H5    H     H_    0.718295 0.640890 0.794422 0.141783
H6    H     H_    0.663146 0.805542 0.736428 0.158203
H7    H     H_    0.204184 0.245384 0.634107 0.116953
H8    H     H_    0.795695 0.245537 0.365652 0.116935
H9    H     H_    0.848714 0.688703 0.297279 0.091929
H10   H     H_    0.151377 0.688554 0.702807 0.091914
H11   H     H_    0.215891 0.142248 0.401145 0.177385
H12   H     H_    0.579440 0.964851 0.921933 0.100765
H13   H     H_    0.332392 0.235471 0.325136 0.191738
H14   H     H_    0.296626 0.066028 0.278495 0.091142
H15   H     H_    0.784057 0.142667 0.598639 0.177389
H16   H     H_    0.667499 0.235438 0.674999 0.191626
H17   H     H_    0.703682 0.065987 0.721354 0.091251
H18   H     H_    0.286063 0.827318 0.600393 0.159971
H19   H     H_    0.210031 0.970548 0.537334 0.179504
H20   H     H_    0.222085 0.825332 0.438781 0.190384
H21   H     H_    0.714042 0.827409 0.399707 0.159944
H22   H     H_    0.790100 0.970531 0.462931 0.179627
H23   H     H_    0.596479 0.167223 0.056320 0.116370
H24   H     H_    0.777833 0.825269 0.561378 0.190284
H25   H     H_    0.641422 0.265621 0.185775 0.150298
H26   H     H_    0.487450 0.187132 0.174524 0.143179
H27   H     H_    0.403455 0.167207 0.943652 0.116354
H28   H     H_    0.358518 0.265619 0.814205 0.150304
H29   H     H_    0.512484 0.187147 0.825445 0.143147
H30   H     H_    0.336753 0.805399 0.263633 0.158282
N1    N     N_R   0.500000 0.852070 0.500000 -0.227570
N2    N     N_R   0.500000 0.147940 0.500000 -0.226540
O1    O     O_R   0.319640 0.618740 0.499990 -0.514703
O2    O     O_2   0.955722 0.148342 0.382763 -0.463823
O3    O     O_2   0.984462 0.813841 0.355985 -0.472878
O4    O     O_2   0.015630 0.813729 0.644216 -0.472903
O5    O     O_R   0.680360 0.618740 0.500010 -0.514689
O6    O     O_R   0.319620 0.381170 0.499990 -0.523594
O7    O     O_R   0.680380 0.381170 0.500010 -0.523566
O8    O     O_R   0.500000 0.618810 0.319650 -0.493040
O9    O     O_R   0.500000 0.618810 0.680350 -0.493062
O10   O     O_R   0.499970 0.381240 0.319640 -0.522914
O11   O     O_R   0.500030 0.381240 0.680360 -0.522910
O12   O     O_2   0.044156 0.148187 0.616798 -0.463842

loop_
_geom_bond_atom_site_label_1
_geom_bond_atom_site_label_2
_ccdc_geom_bond_type
C7    C10   A    
Cu2   N2    S    
C11   C18   S    
Cu1   N1    S    
C20   H3    S    
C7    C8    A    
Cu2   O6    S    
Cu1   O9    S    
C1    O1    A    
C30   C35   S    
C22   O12   D    
C5    C6    A    
C20   H2    S    
C18   H25   S    
C15   C16   A    
C19   H28   S    
C2    O9    A    
C33   C35   A    
C21   H5    S    
C12   C16   S    
C8    C9    A    
C30   H22   S    
C9    C36   S    
C19   H29   S    
C25   H9    S    
C26   H10   S    
Cu1   O5    S    
C26   C31   S    
C12   O7    A    
C14   C17   A    
C4    C7    A    
C28   H17   S    
C27   H13   S    
C13   C19   S    
C4    C6    A    
C3    C8    A    
C36   O10   A    
C28   H16   S    
C32   N2    A    
C29   C34   S    
C23   C31   A    
Cu1   Cu2   S    
C21   H6    S    
C30   H21   S    
C3    C20   S    
C6    H12   S    
C9    C11   A    
C34   N1    A    
C33   N2    A    
C15   C24   S    
Cu2   O7    S    
C29   H19   S    
C28   C33   S    
C16   C23   A    
Cu1   O1    S    
Cu2   O11   S    
C17   C31   A    
C2    C10   S    
C27   H14   S    
C24   O2    D    
C5    H1    S    
C27   C32   S    
C1    O6    A    
C20   H30   S    
C3    C5    A    
C10   C13   A    
C28   H15   S    
C18   H23   S    
C29   H18   S    
Cu1   O8    S    
C1    C17   S    
C24   H8    S    
C14   C22   S    
C30   H24   S    
C36   O8    A    
C4    C21   S    
C11   C13   A    
C18   H26   S    
Cu2   O10   S    
C26   O4    D    
C19   H27   S    
C25   O3    D    
C23   C25   S    
C21   H4    S    
C22   H7    S    
C29   H20   S    
C35   N1    A    
C12   O5    A    
C14   C15   A    
C2    O11   A    
C27   H11   S    
C32   C34   A    
