data_mof_unit_pretest_1466.cif
_audit_creation_date              2012-10-26T19:15:03-0400
_audit_creation_method            fapswitch 2.2
_symmetry_space_group_name_H-M    P1
_symmetry_Int_Tables_number       1
_space_group_crystal_system       triclinic
_cell_length_a                    10.853879
_cell_length_b                    10.89443
_cell_length_c                    9.546671
_cell_angle_alpha                 92.189854
_cell_angle_beta                  89.733774
_cell_angle_gamma                 91.563671
_cell_volume                      1127.61172429

loop_
_atom_site_label
_atom_site_type_symbol
_atom_type_description
_atom_site_fract_x
_atom_site_fract_y
_atom_site_fract_z
_atom_type_partial_charge
C1    C     C_R   0.497303 0.262310 0.496923 0.572284
C2    C     C_R   0.437370 0.940229 0.604857 0.091609
C3    C     C_3   0.453624 0.958478 0.761009 0.432266
C4    C     C_R   0.262248 0.497808 0.500057 0.562416
C5    C     C_3   0.427509 0.093110 0.748591 -0.199636
C6    C     C_R   0.588378 0.564937 0.076331 0.121185
C7    C     C_R   0.422088 0.424603 0.071546 0.032271
C8    C     C_R   0.422766 0.424150 0.922653 0.044699
C9    C     C_R   0.589911 0.563658 0.928385 0.106989
C10   C     C_3   0.611763 0.699004 0.929785 -0.050454
C11   C     C_3   0.609644 0.699964 0.088672 -0.251615
C12   C     C_R   0.933594 0.444619 0.608691 -0.000752
C13   C     C_R   0.502609 0.738027 0.502430 0.585296
C14   C     C_R   0.737485 0.498677 0.499360 0.581328
C15   C     C_R   0.060146 0.444353 0.610229 0.044374
C16   C     C_R   0.128752 0.488356 0.497255 0.032853
C17   C     C_R   0.065334 0.515609 0.374275 -0.125745
C18   C     C_R   0.936731 0.515875 0.373455 -0.126255
C19   C     C_R   0.870029 0.488786 0.495615 0.041302
C20   C     C_2   0.733222 0.737618 0.865019 0.598608
C21   C     C_2   0.122444 0.589539 0.812323 0.565472
C22   C     C_2   0.108824 0.357053 0.845032 0.573052
C23   C     C_3   0.922880 0.467215 0.763218 -0.273630
C24   C     C_3   0.063927 0.466212 0.767157 0.020740
C25   C     C_R   0.426135 0.066266 0.594349 -0.079297
C26   C     C_R   0.487214 0.128819 0.488124 -0.004494
C27   C     C_R   0.543811 0.059152 0.378160 0.208693
C28   C     C_R   0.553816 0.932590 0.389630 -0.100979
C29   C     C_R   0.504189 0.872031 0.504942 -0.040126
Cu1   Cu    Cu3+1 0.499990 0.499980 0.640670 1.037147
Cu2   Cu    Cu3+1 0.500010 0.500020 0.359330 0.983540
H1    H     H_    0.114589 0.543205 0.281165 0.161480
H2    H     H_    0.883754 0.557470 0.791260 0.188723
H3    H     H_    0.875524 0.388686 0.814154 0.141659
H4    H     H_    0.603378 0.882074 0.308871 0.159115
H5    H     H_    0.633536 0.980444 0.743583 0.334062
H6    H     H_    0.907062 0.804557 0.891903 0.367202
H7    H     H_    0.137586 0.771412 0.780340 0.375152
H8    H     H_    0.051698 0.425297 0.033327 0.307375
H9    H     H_    0.535334 0.158135 0.217766 0.340263
H10   H     H_    0.374922 0.921593 0.936821 0.342255
H11   H     H_    0.335363 0.118804 0.789134 0.189700
H12   H     H_    0.504812 0.154722 0.785851 0.141184
H13   H     H_    0.357213 0.365416 0.125101 0.143213
H14   H     H_    0.360035 0.363707 0.864358 0.159827
H15   H     H_    0.530768 0.743009 0.886444 0.218615
H16   H     H_    0.697924 0.724038 0.142632 0.176663
H17   H     H_    0.528171 0.748138 0.131928 0.151523
H18   H     H_    0.890430 0.543688 0.279974 0.143333
N1    N     N_R   0.500790 0.500930 0.147930 -0.236248
N2    N     N_R   0.500790 0.500890 0.852020 -0.246776
O1    O     O_R   0.500000 0.319640 0.618810 -0.527076
O2    O     O_2   0.743213 0.736923 0.737447 -0.484866
O3    O     O_R   0.832524 0.778511 0.948946 -0.694769
O4    O     O_2   0.195459 0.597540 0.909652 -0.508015
O5    O     O_R   0.092879 0.694757 0.741364 -0.686524
O6    O     O_2   0.154676 0.270668 0.780514 -0.503085
O7    O     O_R   0.095023 0.351660 0.990386 -0.663987
O8    O     O_3   0.599639 0.112110 0.264949 -0.658416
O9    O     O_3   0.363642 0.894434 0.837175 -0.664993
O10   O     O_R   0.500010 0.319680 0.381230 -0.504419
O11   O     O_R   0.319650 0.499970 0.618810 -0.482014
O12   O     O_R   0.319660 0.500010 0.381230 -0.513222
O13   O     O_R   0.499990 0.680320 0.618770 -0.445081
O14   O     O_R   0.500000 0.680360 0.381190 -0.526241
O15   O     O_R   0.680340 0.499990 0.618770 -0.484772
O16   O     O_R   0.680350 0.500030 0.381190 -0.508594
O17   O     O_3   0.574188 0.940556 0.808355 -0.685388

loop_
_geom_bond_atom_site_label_1
_geom_bond_atom_site_label_2
_ccdc_geom_bond_type
C22   O7    S    
C21   O5    S    
C14   O16   A    
H5    O17   S    
C10   H15   S    
Cu1   O13   S    
C9    C10   S    
Cu2   O10   S    
C11   H16   S    
C3    O17   S    
C4    O12   A    
C12   C15   A    
Cu1   Cu2   S    
C23   C24   S    
C23   H3    S    
C4    O11   A    
C3    O9    S    
C22   O6    D    
C2    C3    S    
C5    H12   S    
C21   O4    D    
C7    C8    A    
H9    O8    S    
C27   O8    S    
C7    H13   S    
C6    N1    A    
Cu2   O16   S    
C7    N1    A    
C12   C23   S    
C26   C27   A    
Cu1   O15   S    
C13   O13   A    
C6    C9    A    
C2    C29   A    
C5    C25   S    
H6    O3    S    
C20   O2    D    
C12   C19   A    
C13   C29   S    
C15   C24   S    
Cu1   N2    S    
C17   C18   A    
C2    C25   A    
Cu1   O11   S    
C14   O15   A    
C1    C26   S    
C1    O1    A    
C22   C24   S    
C10   C11   S    
C4    C16   S    
Cu2   N1    S    
C1    O10   A    
C15   C16   A    
Cu2   O12   S    
C6    C11   S    
H7    O5    S    
C28   H4    S    
C5    H11   S    
C20   O3    S    
C18   C19   A    
C21   C24   S    
C8    N2    A    
C27   C28   A    
Cu2   O14   S    
C17   H1    S    
Cu1   O1    S    
C8    H14   S    
C28   C29   A    
C13   O14   A    
C11   H17   S    
H10   O9    S    
C3    C5    S    
C25   C26   A    
H8    O7    S    
C14   C19   S    
C18   H18   S    
C10   C20   S    
C16   C17   A    
C23   H2    S    
C9    N2    A    
