data_mof_unit_pretest_1634.cif
_audit_creation_date              2013-03-05T16:22:41-0500
_audit_creation_method            fapswitch 2.2
_symmetry_space_group_name_H-M    P1
_symmetry_Int_Tables_number       1
_space_group_crystal_system       triclinic
_cell_length_a                    30.723864
_cell_length_b                    21.768256
_cell_length_c                    21.749899
_cell_angle_alpha                 90.009354
_cell_angle_beta                  134.985542
_cell_angle_gamma                 89.750766
_cell_volume                      10288.2969232

loop_
_atom_site_label
_atom_site_type_symbol
_atom_site_description
_atom_site_fract_x
_atom_site_fract_y
_atom_site_fract_z
_atom_type_partial_charge
O1    O     O_R   0.090190 0.500000 0.142390 -0.588585
O2    O     O_R   0.590190 0.000000 0.142390 -0.588884
O3    O     O_R   0.090130 0.500000 0.037950 -0.583074
O4    O     O_R   0.590130 0.000000 0.037950 -0.580572
C1    C     C_R   0.118656 0.499858 0.118520 0.793317
C2    C     C_R   0.618631 0.999923 0.118503 0.794634
O5    O     O_R   0.000030 0.590170 0.052220 -0.587706
O6    O     O_R   0.000030 0.409830 0.052220 -0.584907
O7    O     O_R   0.500030 0.090170 0.052220 -0.587535
O8    O     O_R   0.500030 0.909830 0.052220 -0.584850
O9    O     O_R   0.999970 0.590160 0.947780 -0.586991
O10   O     O_R   0.999970 0.409840 0.947780 -0.592882
O11   O     O_R   0.499970 0.090160 0.947780 -0.588302
O12   O     O_R   0.499970 0.909840 0.947780 -0.592421
C3    C     C_R   0.000468 0.618723 0.000364 0.812706
C4    C     C_R   0.999573 0.381250 0.999453 0.808952
C5    C     C_R   0.499723 0.118780 0.999601 0.813851
C6    C     C_R   0.499588 0.881258 0.999478 0.808118
Cu1   Cu    Cu3+1 0.000030 0.500000 0.061840 0.940316
Cu2   Cu    Cu3+1 0.500030 0.000000 0.061840 0.941929
Cu3   Cu    Cu3+1 0.999960 0.500000 0.938160 0.955177
Cu4   Cu    Cu3+1 0.499960 0.000000 0.938160 0.956785
O13   O     O_R   0.909850 0.500000 0.962050 -0.586862
O14   O     O_R   0.409850 0.000000 0.962050 -0.586411
O15   O     O_R   0.909790 0.500000 0.857610 -0.583642
O16   O     O_R   0.409790 0.000000 0.857610 -0.584929
C7    C     C_R   0.881371 0.499849 0.881392 0.801330
C8    C     C_R   0.381367 0.999810 0.881386 0.800338
C9    C     C_R   0.980766 0.720089 0.028506 0.121778
C10   C     C_R   0.017201 0.279823 0.065713 0.126225
C11   C     C_R   0.514666 0.219978 0.064385 0.127147
C12   C     C_R   0.518085 0.779825 0.066271 0.123290
C13   C     C_R   0.002093 0.685194 0.000949 -0.128518
C14   C     C_R   0.998085 0.314726 0.996859 -0.133186
C15   C     C_R   0.498928 0.185374 0.997633 -0.138783
C16   C     C_R   0.498046 0.814752 0.996870 -0.132417
C17   C     C_R   0.024279 0.717129 0.971123 -0.235147
C18   C     C_R   0.978103 0.282720 0.924032 -0.237663
C19   C     C_R   0.482960 0.217760 0.927543 -0.230718
C20   C     C_R   0.477074 0.782796 0.923435 -0.237519
H1    H     H_    0.041310 0.691611 0.948810 0.165778
H2    H     H_    0.962784 0.308145 0.868676 0.165289
H3    H     H_    0.470412 0.192687 0.873887 0.170218
H4    H     H_    0.461020 0.808269 0.867658 0.165143
C21   C     C_R   0.024316 0.782206 0.969510 0.130773
C22   C     C_R   0.977995 0.217646 0.922347 0.133894
C23   C     C_R   0.483112 0.282813 0.926260 0.133575
C24   C     C_R   0.476917 0.717729 0.921672 0.134090
C25   C     C_R   0.000895 0.815411 0.997492 -0.093267
C26   C     C_R   0.999106 0.184506 0.995768 -0.091203
C27   C     C_R   0.500237 0.315573 0.997181 -0.088251
C28   C     C_R   0.499061 0.684532 0.995681 -0.089949
C29   C     C_R   0.979365 0.781961 0.025565 0.055566
C30   C     C_R   0.018428 0.217942 0.065538 0.072117
C31   C     C_R   0.515898 0.281861 0.064490 0.090414
C32   C     C_R   0.519330 0.717943 0.066045 0.070159
C33   C     C_3   0.951104 0.787613 0.059416 -0.411373
C34   C     C_3   0.043502 0.212201 0.153993 -0.475352
C35   C     C_3   0.535544 0.287219 0.149424 -0.473296
C36   C     C_3   0.545613 0.712162 0.155216 -0.474395
C37   C     C_3   0.952209 0.716835 0.062146 -0.463894
C38   C     C_3   0.042633 0.282998 0.154626 -0.430861
C39   C     C_3   0.534658 0.216427 0.149779 -0.443599
C40   C     C_3   0.544739 0.782961 0.155905 -0.424424
H5    H     H_    0.903912 0.807455 0.010333 0.254598
H6    H     H_    0.010106 0.190811 0.152772 0.202804
H7    H     H_    0.499539 0.308871 0.142771 0.234596
H8    H     H_    0.512852 0.690726 0.155248 0.203375
H9    H     H_    0.982724 0.809241 0.124715 0.200020
H10   H     H_    0.090606 0.192022 0.201540 0.208781
H11   H     H_    0.582403 0.306902 0.200731 0.200984
H12   H     H_    0.592726 0.692002 0.201866 0.208243
H13   H     H_    0.905664 0.695954 0.014460 0.196554
H14   H     H_    0.009002 0.302513 0.154346 0.205060
H15   H     H_    0.498356 0.197240 0.143841 0.208255
H16   H     H_    0.511751 0.802435 0.156923 0.206093
H17   H     H_    0.984217 0.697522 0.129072 0.203984
H18   H     H_    0.089272 0.303671 0.202302 0.196288
H19   H     H_    0.581060 0.195218 0.201080 0.191819
H20   H     H_    0.591381 0.803656 0.202696 0.195941
C41   C     C_R   0.217311 0.551864 0.234734 0.094657
C42   C     C_R   0.717185 0.053022 0.230937 0.099566
C43   C     C_R   0.185065 0.500098 0.183572 -0.065844
C44   C     C_R   0.684993 0.000017 0.183585 -0.062147
C45   C     C_R   0.217463 0.451259 0.188629 -0.203018
C46   C     C_R   0.717389 0.949296 0.192375 -0.206749
H21   H     H_    0.193095 0.412154 0.145700 0.145291
H22   H     H_    0.693018 0.908993 0.152228 0.143934
C47   C     C_R   0.281891 0.451115 0.253057 -0.220130
C48   C     C_R   0.781813 0.949162 0.256868 -0.230743
H23   H     H_    0.306172 0.411648 0.258916 0.153839
H24   H     H_    0.806150 0.908567 0.265410 0.157960
C49   C     C_R   0.314190 0.500900 0.310760 -0.091412
C50   C     C_R   0.814110 0.000641 0.311022 -0.098342
C51   C     C_R   0.280876 0.552473 0.296897 0.144931
C52   C     C_R   0.780756 0.053477 0.293338 0.148982
C53   C     C_3   0.284485 0.587013 0.359724 -0.461754
C54   C     C_3   0.784106 0.092147 0.353315 -0.456005
C55   C     C_3   0.214565 0.586166 0.291311 -0.478923
C56   C     C_3   0.714171 0.091522 0.284597 -0.490581
H25   H     H_    0.303636 0.633818 0.372501 0.204097
H26   H     H_    0.306103 0.559663 0.418788 0.186636
H27   H     H_    0.803377 0.138353 0.362989 0.203193
H28   H     H_    0.805467 0.067498 0.414091 0.187128
H29   H     H_    0.193445 0.632472 0.264699 0.197543
H30   H     H_    0.195543 0.558190 0.310560 0.212443
H31   H     H_    0.693153 0.137339 0.254652 0.194631
H32   H     H_    0.694870 0.066415 0.305387 0.212070
C57   C     C_R   0.780750 0.536064 0.819029 0.127979
C58   C     C_R   0.280717 0.035749 0.819200 0.123687
C59   C     C_R   0.815101 0.498506 0.814824 -0.087046
C60   C     C_R   0.315088 0.998435 0.814803 -0.087918
C61   C     C_R   0.782753 0.459442 0.742200 -0.205024
C62   C     C_R   0.282743 0.959614 0.741945 -0.205801
H33   H     H_    0.807424 0.429006 0.735938 0.153879
H34   H     H_    0.307417 0.929353 0.735526 0.154775
C63   C     C_R   0.717842 0.458967 0.677736 -0.186271
C64   C     C_R   0.217828 0.959160 0.677440 -0.168171
H35   H     H_    0.693638 0.428306 0.622808 0.157237
H36   H     H_    0.193620 0.928691 0.622332 0.162877
C65   C     C_R   0.684900 0.499076 0.684000 -0.079466
C66   C     C_R   0.184886 0.999057 0.683911 -0.078861
C67   C     C_R   0.718693 0.537272 0.755750 0.121274
C68   C     C_R   0.218665 0.036999 0.755887 0.114896
C69   C     C_3   0.713930 0.585549 0.799303 -0.467970
C70   C     C_3   0.213861 0.085015 0.799627 -0.470166
C71   C     C_3   0.784885 0.584644 0.871146 -0.471619
C72   C     C_3   0.284810 0.084062 0.871535 -0.460567
H37   H     H_    0.692767 0.567972 0.821190 0.185904
H38   H     H_    0.694006 0.629130 0.761422 0.215264
H39   H     H_    0.192642 0.067233 0.821337 0.185843
H40   H     H_    0.193979 0.128683 0.761976 0.215635
H41   H     H_    0.804655 0.566969 0.934626 0.205450
H42   H     H_    0.805887 0.627537 0.874257 0.195084
H43   H     H_    0.304513 0.066132 0.934867 0.205322
H44   H     H_    0.305857 0.127025 0.874942 0.202104
O17   O     O_R   0.947810 0.000000 0.857560 -0.593898
O18   O     O_R   0.447810 0.500000 0.857560 -0.593907
O19   O     O_R   0.052190 0.000000 0.962010 -0.597004
O20   O     O_R   0.552190 0.500000 0.962010 -0.598526
C73   C     C_R   0.000129 0.000284 0.881273 0.792997
C74   C     C_R   0.500123 0.500101 0.881284 0.792461
O21   O     O_R   0.947800 0.909830 0.947720 -0.571020
O22   O     O_R   0.947800 0.090170 0.947720 -0.589628
O23   O     O_R   0.447800 0.409830 0.947720 -0.570942
O24   O     O_R   0.447800 0.590170 0.947720 -0.592803
O25   O     O_R   0.052180 0.909820 0.052170 -0.597696
O26   O     O_R   0.052180 0.090180 0.052170 -0.590406
O27   O     O_R   0.552180 0.409820 0.052170 -0.592996
O28   O     O_R   0.552180 0.590180 0.052170 -0.590996
C75   C     C_R   0.000188 0.881514 0.999328 0.812798
C76   C     C_R   0.999792 0.118458 0.998965 0.803496
C77   C     C_R   0.500124 0.381563 0.999764 0.820693
C78   C     C_R   0.499785 0.618466 0.998886 0.799694
Cu5   Cu    Cu3+1 0.938190 0.000000 0.938110 1.011839
Cu6   Cu    Cu3+1 0.438190 0.500000 0.938110 1.012484
Cu7   Cu    Cu3+1 0.061790 0.000000 0.061790 0.942213
Cu8   Cu    Cu3+1 0.561790 0.500000 0.061790 0.945552
O29   O     O_R   0.947790 0.000000 0.037880 -0.527094
O30   O     O_R   0.447790 0.500000 0.037880 -0.515807
O31   O     O_R   0.052170 0.000000 0.142340 -0.599481
O32   O     O_R   0.552170 0.500000 0.142340 -0.599535
C79   C     C_R   0.999998 0.000503 0.118728 0.854596
C80   C     C_R   0.499988 0.501344 0.118649 0.856702
O33   O     O_R   0.499940 0.552220 0.409760 -0.537156
O34   O     O_R   0.499940 0.447780 0.409760 -0.605442
O35   O     O_R   0.999940 0.052220 0.409760 -0.567178
O36   O     O_R   0.999940 0.947780 0.409760 -0.598463
C81   C     C_R   0.499568 0.499664 0.380748 0.876189
C82   C     C_R   0.999699 0.999994 0.381240 0.886945
O37   O     O_R   0.409830 0.552190 0.409810 -0.585253
O38   O     O_R   0.409830 0.447810 0.409810 -0.601615
O39   O     O_R   0.909830 0.052190 0.409810 -0.586904
O40   O     O_R   0.909830 0.947810 0.409810 -0.594718
C83   C     C_R   0.381069 0.500173 0.380977 0.770424
C84   C     C_R   0.881047 0.000147 0.381029 0.777439
Cu9   Cu    Cu3+1 0.500000 0.561790 0.499990 0.990238
Cu10  Cu    Cu3+1 0.500000 0.438210 0.499990 0.934344
Cu11  Cu    Cu3+1 0.000000 0.061790 0.499990 0.974781
Cu12  Cu    Cu3+1 0.000000 0.938210 0.499990 0.948423
O41   O     O_R   0.500050 0.552150 0.590200 -0.589778
O42   O     O_R   0.500050 0.447850 0.590200 -0.580852
O43   O     O_R   0.000050 0.052150 0.590200 -0.589840
O44   O     O_R   0.000050 0.947850 0.590200 -0.582722
O45   O     O_R   0.590170 0.552180 0.590150 -0.567761
O46   O     O_R   0.590170 0.447820 0.590150 -0.592001
O47   O     O_R   0.090170 0.052180 0.590150 -0.570052
O48   O     O_R   0.090170 0.947820 0.590150 -0.593127
C85   C     C_R   0.499912 0.500022 0.618358 0.794412
C86   C     C_R   0.999871 0.000026 0.618300 0.792942
C87   C     C_R   0.618609 0.499809 0.618575 0.811936
C88   C     C_R   0.118604 0.999805 0.618520 0.824755
C89   C     C_R   0.949734 0.984320 0.730093 0.126987
C90   C     C_R   0.451032 0.480614 0.731440 0.130879
C91   C     C_R   0.000931 0.000936 0.815454 -0.100618
C92   C     C_R   0.500930 0.500693 0.815505 -0.098270
C93   C     C_R   0.054273 0.018144 0.835732 -0.213505
C94   C     C_R   0.552995 0.521425 0.834563 -0.215475
H45   H     H_    0.095593 0.032004 0.900977 0.168610
H46   H     H_    0.593250 0.537988 0.898815 0.168095
C95   C     C_R   0.552724 0.522002 0.769461 -0.213911
C96   C     C_R   0.054076 0.018498 0.770705 -0.216227
H47   H     H_    0.592609 0.538712 0.784710 0.138362
H48   H     H_    0.095026 0.032373 0.786979 0.136717
C97   C     C_R   0.501177 0.500184 0.685594 -0.069927
C98   C     C_R   0.001135 0.000208 0.685502 -0.067285
C99   C     C_R   0.451622 0.479430 0.670010 0.108700
C100  C     C_R   0.950203 0.983094 0.668550 0.109304
C101  C     C_3   0.388385 0.454147 0.601988 -0.494789
C102  C     C_3   0.885350 0.962204 0.598942 -0.496769
C103  C     C_3   0.884745 0.963204 0.669198 -0.443185
C104  C     C_3   0.387707 0.455026 0.672166 -0.449300
H49   H     H_    0.388134 0.407129 0.581809 0.209489
H50   H     H_    0.355614 0.487349 0.548125 0.190439
H51   H     H_    0.881868 0.915312 0.575588 0.209775
H52   H     H_    0.854929 0.997541 0.547379 0.190734
H53   H     H_    0.880863 0.916839 0.686277 0.200810
H54   H     H_    0.853741 0.998946 0.657883 0.203867
H55   H     H_    0.387074 0.408443 0.692346 0.195172
H56   H     H_    0.354283 0.488495 0.658484 0.204464
C105  C     C_R   0.950365 0.982026 0.169757 -0.040968
C106  C     C_R   0.466867 0.457831 0.184373 -0.088826
C107  C     C_R   0.000589 0.001413 0.185861 -0.192644
C108  C     C_R   0.500907 0.500861 0.186038 -0.153386
C109  C     C_R   0.052925 0.021320 0.271109 -0.270191
C110  C     C_R   0.541571 0.538615 0.259367 -0.279083
H57   H     H_    0.093374 0.037377 0.287415 0.188161
H58   H     H_    0.571181 0.570391 0.264776 0.174010
C111  C     C_R   0.541346 0.538210 0.323603 0.594280
C112  C     C_R   0.052931 0.021376 0.335948 0.590431
C113  C     C_R   0.502329 0.497828 0.316801 -0.190022
C114  C     C_R   0.001108 0.000107 0.316628 -0.182635
C115  C     C_R   0.469193 0.453775 0.249979 -0.105672
C116  C     C_R   0.951045 0.980348 0.232694 -0.115133
C117  C     C_3   0.403580 0.430133 0.187354 0.106813
C118  C     C_3   0.886539 0.956496 0.173025 0.089001
C119  C     C_3   0.886170 0.958574 0.100864 1.109837
C120  C     C_3   0.401433 0.438683 0.114435 1.082052
C121  C     C_3   0.047007 0.814136 0.934764 -0.408233
C122  C     C_3   0.993242 0.835691 0.841302 -0.821920
H59   H     H_    0.963737 0.868629 0.837467 0.245635
H60   H     H_    0.011072 0.858824 0.817303 0.246754
H61   H     H_    0.964985 0.795836 0.798704 0.257041
H62   H     H_    0.076608 0.853707 0.976379 0.218985
H63   H     H_    0.076026 0.782382 0.935922 0.202000
C123  C     C_3   0.957531 0.185627 0.843720 -0.415097
C124  C     C_3   0.012783 0.165508 0.860432 -0.819986
H64   H     H_    0.042022 0.132544 0.915566 0.250258
H65   H     H_    0.996499 0.142850 0.801476 0.248260
H66   H     H_    0.040824 0.206017 0.875541 0.256493
H67   H     H_    0.928507 0.145309 0.825686 0.216418
H68   H     H_    0.928559 0.216984 0.786485 0.200921
C125  C     C_3   0.466395 0.315334 0.850367 -0.427278
C126  C     C_3   0.523927 0.335237 0.873085 -0.814257
H69   H     H_    0.550929 0.368381 0.927685 0.256840
H70   H     H_    0.553240 0.294648 0.891637 0.257940
H71   H     H_    0.510405 0.357662 0.815738 0.244446
H72   H     H_    0.439338 0.284472 0.793040 0.204580
H73   H     H_    0.436685 0.355853 0.830236 0.209506
C127  C     C_3   0.455439 0.685816 0.842353 -0.413906
C128  C     C_3   0.510030 0.665917 0.857387 -0.820588
H74   H     H_    0.539828 0.633027 0.912537 0.249062
H75   H     H_    0.493027 0.643271 0.797992 0.248711
H76   H     H_    0.537711 0.706524 0.871674 0.256578
H77   H     H_    0.426679 0.645426 0.824980 0.217273
H78   H     H_    0.425907 0.717193 0.785159 0.200897
F1    F     F_    0.578386 0.577741 0.391320 -0.654887
F2    F     F_    0.103404 0.041276 0.417073 -0.667972
C129  C     C_3   0.358137 0.470179 0.180863 -0.372074
C130  C     C_3   0.353080 0.538780 0.159870 -0.737779
H79   H     H_    0.397618 0.558403 0.189679 0.251878
H80   H     H_    0.318298 0.546482 0.088578 0.290925
H81   H     H_    0.337063 0.564548 0.185026 0.219312
H82   H     H_    0.311342 0.450022 0.131481 0.210349
H83   H     H_    0.372646 0.467444 0.244047 0.195687
C131  C     C_3   0.399875 0.360487 0.200379 -0.397839
C132  C     C_3   0.421510 0.343426 0.286549 -0.802099
H84   H     H_    0.472222 0.347512 0.340303 0.274886
H85   H     H_    0.398738 0.371748 0.299468 0.259698
H86   H     H_    0.409927 0.294661 0.284135 0.226318
H87   H     H_    0.351454 0.345232 0.146491 0.216766
H88   H     H_    0.428335 0.332593 0.196571 0.235006
C133  C     C_3   0.840375 0.001857 0.158133 -0.402724
C134  C     C_3   0.853842 0.070556 0.163580 -0.757826
H89   H     H_    0.897057 0.083007 0.230727 0.242917
H90   H     H_    0.857561 0.083667 0.118251 0.289532
H91   H     H_    0.815855 0.097781 0.146532 0.235187
H92   H     H_    0.793317 0.992261 0.093746 0.233271
H93   H     H_    0.839794 0.993057 0.207719 0.192558
C135  C     C_3   0.882155 0.890807 0.196853 -0.383799
C136  C     C_3   0.936213 0.847035 0.237252 -0.765314
H94   H     H_    0.942659 0.839415 0.193806 0.279922
H95   H     H_    0.979615 0.864919 0.300324 0.255129
H96   H     H_    0.927003 0.801810 0.249672 0.226923
H97   H     H_    0.878896 0.894603 0.244449 0.199800
H98   H     H_    0.838866 0.869193 0.137471 0.220006
F3    F     F_    0.846373 0.001130 0.035160 -0.671434
F4    F     F_    0.883132 0.902295 0.068545 -0.706236
F5    F     F_    0.363688 0.485252 0.055171 -0.662090
F6    F     F_    0.395239 0.385541 0.073732 -0.701765

loop_
_geom_bond_atom_site_label_1
_geom_bond_atom_site_label_2
_geom_bond_distance
_ccdc_geom_bond_type
C90   C92   1.388108 A    
C31   C35   1.488122 S    
C105  C116  1.354676 A    
C136  H94   1.106303 S    
C134  H89   1.109336 S    
C44   C46   1.402778 A    
C63   H35   1.083366 S    
C41   C51   1.381737 A    
C46   H22   1.083458 S    
C89   C103  1.490328 S    
O39   Cu11  1.971800 S    
C9    C13   1.384320 A    
C93   H45   1.082829 S    
O27   C77   1.290901 A    
C126  H70   1.110840 S    
O9    C3    1.292278 A    
C125  H72   1.111818 S    
C57   C71   1.488810 S    
O10   C4    1.292389 A    
O8    Cu2   1.973932 S    
O38   C83   1.296657 A    
O21   C75   1.291415 A    
O6    C4    1.296716 A    
C89   C100  1.349064 A    
C117  C131  1.561698 S    
C118  C135  1.559492 S    
C118  C133  1.558866 S    
C116  C118  1.501289 S    
O31   C79   1.291974 A    
O32   C80   1.291650 A    
O33   C81   1.302623 A    
C25   C75   1.440000 S    
C46   C48   1.399940 A    
C72   H43   1.111466 S    
C34   H10   1.111506 S    
C104  H56   1.111482 S    
O36   Cu12  1.972257 S    
C101  H49   1.111464 S    
C81   C113  1.452580 S    
C105  C119  1.491965 S    
Cu1   O13   1.971067 S    
C80   C108  1.445910 S    
C48   H24   1.082782 S    
O24   C78   1.290010 A    
C4    C14   1.448865 S    
C114  C116  1.385267 A    
C59   C61   1.411826 A    
C112  C114  1.409384 A    
C12   C40   1.489682 S    
Cu10  O42   1.972136 S    
C42   C44   1.392693 A    
C130  H80   1.109129 S    
C17   C21   1.417080 A    
C119  F4    1.382621 S    
C19   C23   1.416461 A    
C124  H66   1.110856 S    
C20   C24   1.416847 A    
C103  H54   1.111518 S    
C24   C127  1.512729 S    
C133  H92   1.111307 S    
C134  H91   1.110422 S    
C51   C53   1.493658 S    
C33   C37   1.541158 S    
C117  C129  1.562025 S    
C35   C39   1.541488 S    
C109  C112  1.410136 A    
C36   C40   1.541527 S    
Cu6   Cu8   2.685902 S    
C131  H88   1.112604 S    
O8    C6    1.296440 A    
C25   C29   1.384166 A    
C49   C83   1.455236 S    
C27   C31   1.383680 A    
C64   H36   1.083222 S    
C65   C67   1.385973 A    
C90   C104  1.490143 S    
Cu10  O46   1.971824 S    
C69   H37   1.111590 S    
C24   C28   1.422640 A    
O19   Cu7   1.972758 S    
C69   C71   1.542035 S    
C36   H12   1.111494 S    
C94   H46   1.082869 S    
Cu12  O44   1.972136 S    
C58   C72   1.488587 S    
C61   H33   1.083337 S    
O33   Cu9   1.972191 S    
C71   H42   1.111861 S    
C60   C62   1.411800 A    
C112  F2    1.357478 S    
C90   C99   1.349188 A    
C10   C30   1.347489 A    
C129  H82   1.111418 S    
C135  H98   1.111294 S    
C12   C16   1.384897 A    
Cu1   Cu3   2.688508 S    
C57   C59   1.385493 A    
C125  C126  1.525778 S    
C102  H51   1.111467 S    
C118  C119  1.562164 S    
O17   Cu5   1.972008 S    
C64   C66   1.411421 A    
C35   H7    1.111741 S    
C37   H17   1.111477 S    
C52   C54   1.493834 S    
C47   H23   1.082085 S    
O27   Cu8   1.975381 S    
C120  F5    1.382294 S    
C7    C59   1.440588 S    
C49   C51   1.397381 A    
C132  H84   1.108172 S    
C95   H47   1.083139 S    
C41   C43   1.392909 A    
C86   C98   1.434434 S    
C123  H67   1.109717 S    
C97   C99   1.383260 A    
C9    C37   1.489419 S    
C56   H32   1.112136 S    
O6    Cu1   1.973932 S    
C10   C14   1.384857 A    
Cu5   O29   1.972542 S    
C11   C39   1.489793 S    
Cu6   O30   1.972542 S    
C22   C123  1.512911 S    
C57   C67   1.348927 A    
C126  H71   1.110150 S    
O9    Cu3   1.973690 S    
O25   C75   1.290297 A    
C21   C121  1.513141 S    
O4    Cu4   1.970874 S    
O21   Cu5   1.972680 S    
C70   H40   1.111453 S    
C93   C96   1.410070 A    
C106  C108  1.388317 A    
O47   C88   1.293522 A    
C61   C63   1.410663 A    
C117  C120  1.551286 S    
O44   C86   1.291520 A    
C66   C68   1.385605 A    
O40   Cu12  1.969312 S    
C68   C70   1.488686 S    
O38   Cu10  1.969312 S    
C55   H30   1.112136 S    
Cu3   O15   1.970291 S    
C123  C124  1.525398 S    
C27   C77   1.437659 S    
C70   C72   1.541938 S    
C38   H18   1.111625 S    
O26   C76   1.291088 A    
C127  C128  1.525120 S    
C65   C87   1.440628 S    
C128  H76   1.110865 S    
C62   H34   1.083226 S    
C107  C109  1.414820 A    
C66   C88   1.440434 S    
O11   C5    1.292433 A    
O48   C88   1.292570 A    
O12   Cu4   1.973757 S    
C134  H90   1.107336 S    
O22   C76   1.290035 A    
O19   C73   1.292587 A    
C39   H15   1.111539 S    
Cu9   O41   1.972202 S    
O5    C3    1.296285 A    
C122  H59   1.109189 S    
C109  H57   1.083017 S    
O26   Cu7   1.972892 S    
C47   C49   1.407973 A    
C58   C60   1.385433 A    
C18   C22   1.416965 A    
C20   H4    1.083651 S    
C131  C132  1.526131 S    
C132  H86   1.110447 S    
C133  C134  1.535474 S    
C99   C101  1.487114 S    
C95   C97   1.408145 A    
O37   Cu9   1.971800 S    
C91   C93   1.415650 A    
C34   C38   1.541470 S    
O35   Cu11  1.972191 S    
Cu5   Cu7   2.685902 S    
C121  C122  1.525469 S    
C111  F1    1.357632 S    
C8    C60   1.440801 S    
C26   C30   1.383727 A    
C96   H48   1.083112 S    
O1    C1    1.294780 A    
O30   C80   1.294599 A    
O20   C74   1.292533 A    
C72   H44   1.111670 S    
C98   C100  1.383013 A    
C67   C69   1.489095 S    
Cu11  O47   1.969334 S    
C54   H27   1.111524 S    
C101  C104  1.541284 S    
Cu9   O45   1.969334 S    
C135  C136  1.536765 S    
C73   C91   1.449171 S    
O46   C87   1.292693 A    
Cu12  O48   1.971824 S    
C58   C68   1.348851 A    
O23   Cu6   1.972680 S    
O41   C85   1.290991 A    
C85   C97   1.435168 S    
O45   C87   1.293492 A    
O34   Cu10  1.972257 S    
C53   H26   1.111909 S    
O36   C82   1.292425 A    
C129  C130  1.536400 S    
C40   H20   1.111622 S    
C130  H81   1.111015 S    
C119  F3    1.384009 S    
C48   C50   1.408712 A    
C124  H65   1.110283 S    
C103  H53   1.111161 S    
O1    Cu1   1.970057 S    
C2    C44   1.442329 S    
O2    Cu2   1.970057 S    
O14   C8    1.293513 A    
C92   C94   1.415318 A    
O18   C74   1.294990 A    
C45   C47   1.400037 A    
C123  H68   1.111859 S    
C37   H13   1.111684 S    
C122  H61   1.110799 S    
C13   C17   1.413582 A    
C32   C36   1.488065 S    
C15   C19   1.414767 A    
C126  H69   1.109541 S    
C125  H73   1.109478 S    
O7    Cu2   1.973998 S    
C21   C25   1.423093 A    
C113  C115  1.408681 A    
O4    C2    1.291222 A    
C43   C45   1.403281 A    
Cu2   Cu4   2.688508 S    
C54   C56   1.520051 S    
C10   C38   1.489666 S    
C11   C15   1.385398 A    
O43   C86   1.290748 A    
Cu7   O31   1.972008 S    
O17   C73   1.295317 A    
C29   C33   1.487968 S    
O28   Cu8   1.972892 S    
C136  H95   1.108880 S    
O16   C8    1.291712 A    
C71   H41   1.111613 S    
C33   H5    1.111193 S    
O3    C1    1.291314 A    
C23   C27   1.421328 A    
C23   C125  1.512691 S    
C104  H55   1.110706 S    
C41   C55   1.491596 S    
C101  H50   1.111213 S    
C121  H63   1.111844 S    
C111  C113  1.410655 A    
C128  H74   1.109742 S    
C102  H52   1.111319 S    
O11   Cu4   1.973690 S    
O40   C84   1.296394 A    
Cu11  Cu12  2.690123 S    
C26   C76   1.438792 S    
C36   H8    1.111719 S    
Cu9   Cu10  2.690123 S    
Cu4   O16   1.970291 S    
C130  H79   1.107200 S    
C38   H14   1.111503 S    
C5    C15   1.449870 S    
C11   C31   1.347738 A    
C127  H77   1.109576 S    
C6    C16   1.448492 S    
C12   C32   1.347560 A    
C50   C84   1.456170 S    
C120  F6    1.386206 S    
C106  C115  1.380179 A    
O12   C6    1.292483 A    
C39   H19   1.111761 S    
C133  H93   1.107901 S    
C18   H2    1.083618 S    
C1    C43   1.443401 S    
C131  H87   1.111800 S    
C28   C78   1.439170 S    
C63   C65   1.411572 A    
C69   H38   1.111601 S    
C34   H6    1.111700 S    
Cu2   O14   1.971067 S    
C89   C91   1.388430 A    
C121  H62   1.109544 S    
O42   C85   1.291623 A    
O13   C7    1.293425 A    
O20   Cu8   1.972758 S    
C17   H1    1.083652 S    
O2    C2    1.294336 A    
C53   C55   1.519944 S    
O35   C82   1.292550 A    
Cu11  O43   1.972202 S    
C45   H21   1.083454 S    
C55   H29   1.111591 S    
C42   C52   1.381725 A    
C129  H83   1.106566 S    
C135  H97   1.111302 S    
C16   C20   1.413719 A    
C136  H96   1.110292 S    
C128  H75   1.110242 S    
C19   H3    1.083512 S    
O37   C83   1.296631 A    
O10   Cu3   1.973757 S    
C106  C120  1.487494 S    
C82   C114  1.436241 S    
C50   C52   1.397687 A    
C94   C95   1.410148 A    
C122  H60   1.110339 S    
C40   H16   1.111494 S    
C115  C117  1.520052 S    
C62   C64   1.410748 A    
O7    C5    1.297177 A    
C110  H58   1.083541 S    
C132  H85   1.105759 S    
O28   C78   1.291322 A    
O29   C79   1.295132 A    
O3    Cu3   1.970874 S    
O25   Cu7   1.975381 S    
C30   C34   1.488016 S    
O39   C84   1.297362 A    
O18   Cu6   1.972008 S    
C56   H31   1.111705 S    
C14   C18   1.414125 A    
C42   C56   1.491599 S    
C108  C110  1.404004 A    
C124  H64   1.109722 S    
C79   C107  1.447499 S    
O15   C7    1.291708 A    
C110  C111  1.402058 A    
C22   C26   1.422349 A    
O5    Cu1   1.973998 S    
O22   Cu5   1.975164 S    
O23   C77   1.289606 A    
C105  C107  1.386839 A    
C9    C29   1.347430 A    
C70   H39   1.111423 S    
C54   H28   1.112003 S    
Cu8   O32   1.972008 S    
O24   Cu6   1.975164 S    
O34   C81   1.289894 A    
C100  C102  1.487158 S    
C102  C103  1.541411 S    
C96   C98   1.407850 A    
C74   C92   1.448368 S    
C33   H9    1.111542 S    
C127  H78   1.111871 S    
C3    C13   1.447766 S    
C53   H25   1.111523 S    
C28   C32   1.383829 A    
C35   H11   1.111446 S    
