data_mof_unit_pretest_202.cif
_audit_creation_date              2012-10-26T18:51:48-0400
_audit_creation_method            fapswitch 2.2
_symmetry_space_group_name_H-M    P1
_symmetry_Int_Tables_number       1
_space_group_crystal_system       triclinic
_cell_length_a                    11.692438
_cell_length_b                    14.696892
_cell_length_c                    14.563667
_cell_angle_alpha                 65.30636
_cell_angle_beta                  102.588017
_cell_angle_gamma                 102.58685
_cell_volume                      2196.31091374

loop_
_atom_site_label
_atom_site_type_symbol
_atom_type_description
_atom_site_fract_x
_atom_site_fract_y
_atom_site_fract_z
_atom_type_partial_charge
C1    C     C_R   0.480820 0.119525 0.311890 0.545674
C2    C     C_R   0.434103 0.601563 0.083723 -0.120069
C3    C     C_R   0.704228 0.289645 0.663145 0.123537
C4    C     C_R   0.301707 0.713693 0.330935 0.116183
C5    C     C_R   0.666046 0.203535 0.639013 0.315649
C6    C     C_R   0.337581 0.798382 0.357659 0.311033
C7    C     C_R   0.517404 0.286212 0.509420 0.066468
C8    C     C_R   0.481364 0.712979 0.491284 0.067054
C9    C     C_R   0.543084 0.370864 0.537567 -0.024356
C10   C     C_R   0.458769 0.630437 0.460048 -0.023303
C11   C     C_R   0.646007 0.375739 0.608085 -0.021742
C12   C     C_R   0.516997 0.880446 0.688004 0.544149
C13   C     C_R   0.359407 0.627580 0.385848 -0.029980
C14   C     C_R   0.475780 0.453794 0.492842 -0.024280
C15   C     C_R   0.526838 0.548135 0.503638 -0.023557
C16   C     C_R   0.284207 0.000334 0.500261 0.551799
C17   C     C_R   0.715827 0.999540 0.499972 0.559149
C18   C     C_R   0.644466 0.556183 0.555570 0.218249
C19   C     C_R   0.359843 0.447565 0.437259 0.232203
C20   C     C_R   0.695077 0.468654 0.615526 -0.104642
C21   C     C_R   0.313122 0.536288 0.374096 -0.097081
C22   C     C_1   0.162765 0.000953 0.500464 0.013263
C23   C     C_R   0.479210 0.321873 0.999531 0.075161
C24   C     C_1   0.837291 0.998874 0.499870 0.026180
C25   C     C_1   0.060092 0.000430 0.500307 -0.004312
C26   C     C_1   0.939960 0.999357 0.500024 0.000799
C27   C     C_R   0.472535 0.186461 0.203302 -0.025516
C28   C     C_R   0.512261 0.812956 0.795398 -0.032067
C29   C     C_R   0.480289 0.217388 0.027319 0.136465
C30   C     C_R   0.463254 0.776973 0.961922 0.138740
C31   C     C_R   0.476714 0.150641 0.129197 -0.124941
C32   C     C_R   0.484576 0.845896 0.864006 -0.133517
C33   C     C_R   0.466556 0.288620 0.174966 -0.134735
C34   C     C_R   0.463989 0.672465 0.989334 0.077813
C35   C     C_R   0.520498 0.711106 0.824958 -0.136504
C36   C     C_R   0.467412 0.357835 0.073247 0.005440
C37   C     C_R   0.490803 0.638235 0.919372 0.005920
C38   C     C_3   0.379625 0.158339 0.895021 -0.301626
C39   C     C_3   0.532213 0.830115 0.102896 -0.304338
C40   C     C_3   0.171000 0.893822 0.306001 -0.241907
C41   C     C_3   0.719707 0.060522 0.795503 -0.269577
C42   C     C_3   0.774177 0.282592 0.835085 -0.308360
C43   C     C_3   0.091339 0.680578 0.269860 -0.287075
C44   C     C_R   0.462891 0.462587 0.044395 0.034899
C45   C     C_R   0.485164 0.532464 0.945109 0.036840
C46   C     C_R   0.497423 0.493962 0.873915 -0.140703
C47   C     C_R   0.434130 0.499231 0.110993 -0.144625
C48   C     C_R   0.493138 0.391144 0.900374 -0.123538
Cu1   Cu    Cu3+1 0.469550 0.918260 0.475690 1.005841
Cu2   Cu    Cu3+1 0.530450 0.081740 0.524310 1.004426
H1    H     H_    0.503550 0.366607 0.842480 0.151736
H2    H     H_    0.230909 0.530080 0.324714 0.171023
H3    H     H_    0.543744 0.711692 0.557855 0.186649
H4    H     H_    0.453562 0.285870 0.444268 0.191595
H5    H     H_    0.923536 0.636579 0.596506 0.347469
H6    H     H_    0.067319 0.298441 0.469315 0.369830
H7    H     H_    0.538746 0.119792 0.984393 0.238116
H8    H     H_    0.396697 0.135343 0.836199 0.161773
H9    H     H_    0.334413 0.226631 0.855594 0.177064
H10   H     H_    0.320849 0.095709 0.945275 0.138488
H11   H     H_    0.386978 0.873193 0.993601 0.248440
H12   H     H_    0.409190 0.624547 0.137426 0.145503
H13   H     H_    0.499944 0.851194 0.156670 0.155219
H14   H     H_    0.598972 0.892876 0.062788 0.134714
H15   H     H_    0.574484 0.760713 0.147869 0.175574
H16   H     H_    0.303639 0.917805 0.220135 0.234703
H17   H     H_    0.106813 0.883025 0.241754 0.130124
H18   H     H_    0.166987 0.969847 0.302764 0.152145
H19   H     H_    0.144605 0.835925 0.379647 0.168373
H20   H     H_    0.815194 0.135389 0.673138 0.247525
H21   H     H_    0.794197 0.087598 0.844020 0.143683
H22   H     H_    0.724994 0.980207 0.813668 0.149558
H23   H     H_    0.548741 0.690963 0.771225 0.135447
H24   H     H_    0.634272 0.064724 0.814219 0.135643
H25   H     H_    0.874968 0.341836 0.715413 0.258112
H26   H     H_    0.743623 0.353296 0.824183 0.149179
H27   H     H_    0.854052 0.270777 0.893793 0.149752
H28   H     H_    0.703687 0.217966 0.863570 0.165582
H29   H     H_    0.231621 0.695094 0.194503 0.256786
H30   H     H_    0.062489 0.603953 0.268558 0.157354
H31   H     H_    0.030597 0.731519 0.210966 0.153122
H32   H     H_    0.083130 0.676942 0.346011 0.180503
H33   H     H_    0.466933 0.313230 0.235050 0.135694
H34   H     H_    0.475923 0.924631 0.840691 0.116654
H35   H     H_    0.480993 0.071260 0.150786 0.121555
H36   H     H_    0.507184 0.540794 0.795434 0.111358
H37   H     H_    0.406163 0.450175 0.183835 0.125087
H38   H     H_    0.780805 0.476550 0.660035 0.141275
N1    N     N_R   0.576230 0.204580 0.560790 -0.243681
N2    N     N_R   0.423770 0.795420 0.439210 -0.239902
N3    N     N_2   0.490695 0.179541 0.954432 -0.549295
N4    N     N_2   0.433639 0.812503 0.029862 -0.540120
N5    N     N_2   0.289848 0.889637 0.295282 -0.445111
N6    N     N_2   0.729290 0.119212 0.688399 -0.432969
N7    N     N_2   0.802940 0.288707 0.740618 -0.539501
N8    N     N_2   0.211339 0.718046 0.246288 -0.544810
O1    O     O_R   0.459870 0.022090 0.338120 -0.481688
O2    O     O_2   0.755552 0.709387 0.612896 -0.337649
O3    O     O_3   0.879653 0.649369 0.526946 -0.516865
O4    O     O_2   0.245482 0.296083 0.378941 -0.328829
O5    O     O_2   0.289072 0.254965 0.564145 -0.293930
O6    O     O_3   0.121952 0.362701 0.458523 -0.526639
O7    O     O_R   0.540130 0.977910 0.661880 -0.481567
O8    O     O_R   0.511290 0.160150 0.379180 -0.515124
O9    O     O_R   0.488710 0.839850 0.620820 -0.511831
O10   O     O_R   0.311490 0.930960 0.479480 -0.498069
O11   O     O_R   0.688510 0.069040 0.520520 -0.494123
O12   O     O_R   0.362910 0.069020 0.520540 -0.451910
O13   O     O_R   0.637090 0.930980 0.479460 -0.448178
O14   O     O_2   0.706289 0.750914 0.428423 -0.260961
S1    S     S_3+6 0.745207 0.671143 0.529977 -0.025074
S2    S     S_3+6 0.255224 0.335072 0.461172 -0.035164

loop_
_geom_bond_atom_site_label_1
_geom_bond_atom_site_label_2
_ccdc_geom_bond_type
C15   C18   A    
Cu2   O8    S    
C31   H35   S    
C34   C37   A    
O6    S2    S    
Cu1   N2    S    
C5    N6    S    
H25   N7    S    
C19   S2    S    
C27   C33   A    
O5    S2    D    
C39   H14   S    
C12   C28   S    
C23   C29   A    
C35   C37   A    
C24   C26   T    
C10   C15   A    
C17   O11   A    
C12   O9    A    
C7    N1    A    
C33   C36   A    
C4    C13   A    
Cu1   Cu2   S    
O14   S1    D    
C41   H24   S    
C38   H8    S    
C48   H1    S    
C28   C35   A    
C40   H17   S    
C23   C48   A    
C40   N5    S    
C44   C47   A    
C16   O10   A    
C41   H21   S    
C2    C34   A    
Cu2   O7    S    
C4    N8    S    
Cu2   O12   S    
C39   H15   S    
C32   H34   S    
C46   C48   A    
C11   C20   A    
C17   C24   S    
C40   H19   S    
C30   C34   A    
C27   C31   A    
C42   N7    S    
C28   C32   A    
C18   S1    S    
C12   O7    A    
C30   N4    S    
C1    O1    A    
Cu1   O9    S    
C43   H30   S    
C45   C46   A    
C38   N3    S    
C22   C25   T    
C47   H37   S    
C9    C14   A    
C33   H33   S    
Cu2   N1    S    
C41   N6    S    
C6    N5    S    
O3    S1    S    
C43   N8    S    
C13   C21   A    
C9    C11   A    
C1    O8    A    
C41   H22   S    
C38   H10   S    
C4    C6    A    
O4    S2    D    
H16   N5    S    
Cu2   O11   S    
C43   H31   S    
C36   C44   A    
C8    N2    A    
C37   C45   A    
C39   N4    S    
C29   N3    S    
C44   C45   A    
Cu1   O13   S    
C7    C9    A    
C35   H23   S    
C16   C22   S    
O2    S1    D    
H7    N3    S    
C19   C21   A    
C14   C19   A    
C3    C5    A    
C10   C13   A    
C17   O13   A    
C8    H3    S    
H11   N4    S    
C42   H28   S    
Cu1   O10   S    
C2    C47   A    
H20   N6    S    
C39   H13   S    
C42   H26   S    
C25   C26   S    
H6    O6    S    
H29   N8    S    
C29   C31   A    
C6    N2    A    
C30   C32   A    
C20   H38   S    
C18   C20   A    
C3    C11   A    
C16   O12   A    
Cu1   O1    S    
C38   H9    S    
C42   H27   S    
C8    C10   A    
C23   C36   A    
C40   H18   S    
H5    O3    S    
C1    C27   S    
C43   H32   S    
C14   C15   A    
C3    N7    S    
C7    H4    S    
C21   H2    S    
C5    N1    A    
C2    H12   S    
C46   H36   S    
