data_mof_unit_pretest_1903.cif
_audit_creation_date              2012-12-11T14:39:00-0500
_audit_creation_method            fapswitch 2.2
_symmetry_space_group_name_H-M    P1
_symmetry_Int_Tables_number       1
_space_group_crystal_system       triclinic
_cell_length_a                    8.162272
_cell_length_b                    15.154358
_cell_length_c                    17.386723
_cell_angle_alpha                 99.187479
_cell_angle_beta                  96.585462
_cell_angle_gamma                 99.583594
_cell_volume                      2071.25000944

loop_
_atom_site_label
_atom_site_type_symbol
_atom_type_description
_atom_site_fract_x
_atom_site_fract_y
_atom_site_fract_z
_atom_type_partial_charge
Ba1   Ba    Ba6+2 0.844730 0.540500 0.462170 1.712047
Ba2   Ba    Ba6+2 0.345110 0.459580 0.537840 1.671166
C1    C     C_3   0.673063 0.871880 0.276906 -0.349119
C2    C     C_3   0.344449 0.567900 0.229890 -0.068027
C3    C     C_2   0.285224 0.557392 0.143125 -0.127940
C4    C     C_3   0.084889 0.726242 0.248304 0.352122
C5    C     C_2   0.136146 0.502409 0.111788 -0.000035
C6    C     C_2   0.038301 0.451039 0.166210 0.132191
C7    C     C_1   0.107677 0.454419 0.240958 -0.002857
C8    C     C_R   0.870903 0.484414 0.865123 0.095412
C9    C     C_R   0.812813 0.460858 0.783748 0.006225
C10   C     C_R   0.079984 0.535245 0.754174 0.055476
C11   C     C_R   0.143001 0.553901 0.835268 -0.131729
C12   C     C_3   0.628721 0.778192 0.298320 0.351887
C13   C     C_R   0.041771 0.525495 0.891150 -0.017274
C14   C     C_2   0.079776 0.484528 0.024676 -0.001522
C15   C     C_2   0.113322 0.545276 0.976555 -0.047175
C16   C     C_3   0.047584 0.750400 0.167323 -0.340340
C17   C     C_R   0.918789 0.484123 0.729275 -0.325578
C18   C     C_R   0.773957 0.235041 0.538470 -0.306536
C19   C     C_R   0.877275 0.176393 0.561730 0.025811
C20   C     C_R   0.817022 0.081297 0.547710 0.077529
C21   C     C_R   0.641771 0.046285 0.519234 0.001019
C22   C     C_R   0.541561 0.109938 0.499852 -0.161852
C23   C     C_3   0.327465 0.180250 0.306366 0.292320
C24   C     C_R   0.610561 0.201459 0.502132 0.020496
C25   C     C_R   0.407028 0.909582 0.453863 -0.124080
C26   C     C_R   0.337389 0.816334 0.441286 0.007519
C27   C     C_R   0.583710 0.789168 0.517599 0.060807
C28   C     C_3   0.270868 0.740992 0.635367 0.299864
C29   C     C_R   0.636581 0.883181 0.541731 -0.102663
C30   C     C_R   0.562563 0.945514 0.503920 0.026012
C31   C     C_R   0.432683 0.755845 0.467603 -0.296791
C32   C     C_3   0.305051 0.844389 0.656371 -0.376498
C33   C     C_3   0.913472 0.260623 0.367932 0.316705
C34   C     C_3   0.292063 0.084354 0.324486 -0.449142
C35   C     C_3   0.852790 0.157937 0.345497 -0.386982
C36   C     C_3   0.783806 0.672621 0.701117 0.309557
C37   C     C_3   0.817655 0.704896 0.789903 -0.373916
C38   C     C_3   0.109155 0.285830 0.753210 0.344000
C39   C     C_3   0.135502 0.268108 0.836934 -0.317694
C40   C     C_3   0.572424 0.230751 0.710939 0.358522
C41   C     C_3   0.544382 0.138697 0.736501 -0.338333
C42   C     C_2   0.271975 0.482522 0.258780 -0.058957
H1    H     H_    0.707234 0.777715 0.354760 0.090974
H2    H     H_    0.900456 0.657341 0.680143 0.005441
H3    H     H_    0.684439 0.610420 0.687299 0.058811
H4    H     H_    0.650669 0.924615 0.324715 0.073446
H5    H     H_    0.918250 0.766587 0.805054 0.127601
H6    H     H_    0.858257 0.651545 0.819851 0.067135
H7    H     H_    0.701574 0.721336 0.811684 0.134319
H8    H     H_    0.494367 0.766857 0.306134 -0.077207
H9    H     H_    0.593712 0.875024 0.221443 0.109225
H10   H     H_    0.227756 0.218559 0.321628 0.058202
H11   H     H_    0.320826 0.172527 0.241437 0.089194
H12   H     H_    0.424950 0.868946 0.697112 0.118419
H13   H     H_    0.227989 0.084835 0.377318 0.117319
H14   H     H_    0.205122 0.038318 0.275009 0.103772
H15   H     H_    0.409983 0.057327 0.332639 0.118555
H16   H     H_    0.807276 0.886433 0.268947 0.155105
H17   H     H_    0.068064 0.695178 0.121325 0.075603
H18   H     H_    0.190398 0.351421 0.750981 0.090766
H19   H     H_    0.976081 0.291384 0.738435 -0.065903
H20   H     H_    0.103719 0.324666 0.877993 0.076685
H21   H     H_    0.053306 0.203419 0.841305 0.117282
H22   H     H_    0.268637 0.263488 0.854188 0.169128
H23   H     H_    0.313492 0.874269 0.602560 0.094345
H24   H     H_    0.703833 0.246441 0.699508 -0.068000
H25   H     H_    0.486516 0.225858 0.655699 0.095251
H26   H     H_    0.569057 0.085713 0.689558 0.072602
H27   H     H_    0.412616 0.120312 0.747349 0.157906
H28   H     H_    0.001670 0.660632 0.249689 0.068847
H29   H     H_    0.630867 0.141059 0.791287 0.121925
H30   H     H_    0.194708 0.610701 0.999433 0.069445
H31   H     H_    0.004379 0.418406 0.998748 0.128363
H32   H     H_    0.363148 0.593615 0.107323 0.097399
H33   H     H_    0.269565 0.591816 0.854967 0.105523
H34   H     H_    0.201087 0.867641 0.685083 0.150829
H35   H     H_    0.871155 0.468137 0.667020 0.076347
H36   H     H_    0.334801 0.952040 0.426002 0.082183
H37   H     H_    0.218071 0.718994 0.257412 -0.077008
H38   H     H_    0.730042 0.906408 0.592970 0.108970
H39   H     H_    0.409473 0.089149 0.480852 0.110756
H40   H     H_    0.382777 0.683462 0.454788 0.067880
H41   H     H_    0.824579 0.306682 0.543206 0.059035
H42   H     H_    0.915139 0.759201 0.156188 0.157943
H43   H     H_    0.131988 0.814663 0.163642 0.106051
H44   H     H_    0.380276 0.717973 0.612755 -0.001774
H45   H     H_    0.818000 0.292539 0.395818 0.022919
H46   H     H_    0.159541 0.719214 0.589265 0.076438
H47   H     H_    0.030497 0.274556 0.410353 0.049898
H48   H     H_    0.731561 0.142152 0.305458 0.158324
H49   H     H_    0.835831 0.127608 0.398424 0.064039
H50   H     H_    0.945885 0.125939 0.314825 0.109237
I1    I     I_    0.825362 0.346902 0.116684 -0.314608
I2    I     I_    0.691756 0.476153 0.946405 -0.408542
I3    I     I_    0.404508 0.374893 0.240345 -0.327352
I4    I     I_    0.008089 0.999879 0.557117 -0.476992
O1    O     O_2   0.823140 0.439340 0.307240 -0.406245
O2    O     O_2   0.224029 0.188956 0.558170 -0.470001
O3    O     O_3   0.151307 0.214566 0.701578 -0.580641
O4    O     O_3   0.097070 0.445850 0.405300 -0.504525
O5    O     O_3   0.592380 0.611270 0.541370 -0.491116
O6    O     O_2   0.323920 0.276750 0.459260 -0.475873
O7    O     O_3   0.490111 0.228932 0.339479 -0.610520
O8    O     O_2   0.468753 0.459881 0.777894 -0.458585
O9    O     O_3   0.539046 0.297261 0.770107 -0.576116
O10   O     O_3   0.627590 0.606740 0.357340 -0.481202
O11   O     O_2   0.680114 0.538758 0.214941 -0.413434
O12   O     O_3   0.732681 0.742752 0.666965 -0.630497
O13   O     O_3   0.941712 0.294212 0.299395 -0.596125
O14   O     O_3   0.659814 0.711716 0.238310 -0.604096
O15   O     O_2   0.865800 0.723280 0.540790 -0.459680
O16   O     O_3   0.060870 0.655550 0.397490 -0.506691
O17   O     O_2   0.999493 0.816821 0.450107 -0.440501
O18   O     O_3   0.055527 0.795896 0.305592 -0.597428
O19   O     O_2   0.366580 0.560690 0.692810 -0.459474
O20   O     O_3   0.092650 0.554230 0.594710 -0.510420
O21   O     O_3   0.562120 0.393340 0.642670 -0.505318
O22   O     O_3   0.243494 0.705827 0.703312 -0.633021
O23   O     O_3   0.597340 0.388800 0.458640 -0.438254
O24   O     O_3   0.128850 0.344520 0.602520 -0.497739
P1    P     P_3+3 0.993190 0.413330 0.319190 1.056731
P2    P     P_3+3 0.695930 0.711340 0.564320 0.997291
P3    P     P_3+3 0.115842 0.772102 0.398801 0.956021
P4    P     P_3+3 0.196530 0.586750 0.680820 0.981232
P5    P     P_3+3 0.095450 0.229211 0.604794 0.989538
P6    P     P_3+3 0.578182 0.604221 0.257283 1.019343
P7    P     P_3+3 0.505513 0.271591 0.440864 0.988962
P8    P     P_3+3 0.595433 0.404294 0.744576 0.994683

loop_
_geom_bond_atom_site_label_1
_geom_bond_atom_site_label_2
_ccdc_geom_bond_type
C41   H29   S    
C37   H7    S    
C32   H12   S    
C20   I4    S    
O2    P5    D    
C28   H46   S    
C34   H15   S    
Ba1   O1    S    
Ba1   O10   S    
Ba2   O20   S    
C23   O7    S    
C5    C6    S    
C12   O14   S    
C10   C11   A    
C9    C17   A    
C16   H42   S    
C38   H19   S    
C28   O22   S    
C33   C35   S    
C22   H39   S    
C22   C24   A    
C34   H14   S    
C8    C13   A    
C36   C37   S    
O22   P4    S    
C10   P4    S    
Ba2   O4    S    
C14   H31   S    
C27   P2    S    
C27   C31   A    
C1    H4    S    
O21   P8    S    
C38   H18   S    
C13   C15   S    
Ba1   Ba2   S    
O24   P5    S    
O12   P2    S    
C38   O3    S    
C12   H8    S    
C14   C15   D    
C21   C22   A    
C8    I2    S    
C36   O12   S    
O19   P4    D    
Ba1   O5    S    
C1    H16   S    
C4    H37   S    
C19   C20   A    
C40   H24   S    
C6    I1    S    
Ba1   O15   S    
O9    P8    S    
O5    P2    S    
Ba2   O19   S    
C12   H1    S    
Ba2   O24   S    
C4    C16   S    
C11   H33   S    
C36   H2    S    
C28   C32   S    
O13   P1    S    
C23   H10   S    
C34   H13   S    
C3    C5    D    
O16   P3    S    
C2    P6    S    
C6    C7    D    
C39   H21   S    
C2    C42   S    
C40   H25   S    
C4    H28   S    
Ba1   P1    S    
O3    P5    S    
C42   I3    S    
O11   P6    D    
C29   C30   A    
Ba2   O6    S    
C18   H41   S    
C35   H49   S    
O10   P6    S    
C17   H35   S    
C29   H38   S    
C4    O18   S    
C36   H3    S    
C24   P7    S    
Ba2   P4    S    
C5    C14   S    
C37   H5    S    
C26   C31   A    
C25   H36   S    
C41   H26   S    
O18   P3    S    
C11   C13   A    
C15   H30   S    
C19   P5    S    
C40   C41   S    
C28   H44   S    
O4    P1    S    
C9    P8    S    
C33   H45   S    
C33   O13   S    
C26   P3    S    
O1    P1    D    
C40   O9    S    
Ba2   O23   S    
O8    P8    D    
C38   C39   S    
C7    C42   D    
C41   H27   S    
C35   H48   S    
C25   C30   A    
C23   H11   S    
O23   P7    S    
C2    C3    S    
C32   H23   S    
O7    P7    S    
Ba2   O21   S    
C16   H17   S    
C39   H22   S    
C1    C12   S    
C16   H43   S    
O17   P3    D    
O6    P7    D    
C21   C30   S    
C3    H32   S    
Ba1   P2    S    
C27   C29   A    
C32   H34   S    
C1    H9    S    
O15   P2    D    
C18   C24   A    
Ba2   O5    S    
C10   C17   A    
C7    P1    S    
C35   H50   S    
Ba1   O20   S    
C31   H40   S    
Ba1   O23   S    
O14   P6    S    
C8    C9    A    
C23   C34   S    
C37   H6    S    
C18   C19   A    
Ba1   O16   S    
C25   C26   A    
C20   C21   A    
O20   P4    S    
C39   H20   S    
Ba1   O4    S    
C33   H47   S    
