data_mof_unit_pretest_1612.cif
_audit_creation_date              2012-12-10T17:35:46-0500
_audit_creation_method            fapswitch 2.2
_symmetry_space_group_name_H-M    P1
_symmetry_Int_Tables_number       1
_space_group_crystal_system       triclinic
_cell_length_a                    30.250827
_cell_length_b                    31.995086
_cell_length_c                    21.416995
_cell_angle_alpha                 89.979657
_cell_angle_beta                  134.945287
_cell_angle_gamma                 89.93451
_cell_volume                      14671.6015285

loop_
_atom_site_label
_atom_site_type_symbol
_atom_type_description
_atom_site_fract_x
_atom_site_fract_y
_atom_site_fract_z
_atom_type_partial_charge
C1    C     C_R   0.379658 0.500087 0.379795 0.831817
C2    C     C_R   0.879658 0.000087 0.379794 0.831583
C3    C     C_3   0.517923 0.763844 0.461089 -0.029493
C4    C     C_3   0.516024 0.236173 0.458561 -0.025263
C5    C     C_3   0.020072 0.263840 0.463946 -0.029771
C6    C     C_3   0.017013 0.736171 0.459835 -0.025363
C7    C     C_3   0.500455 0.791479 0.500004 -0.067971
C8    C     C_3   0.500024 0.208530 0.499347 -0.066473
C9    C     C_3   0.000464 0.291479 0.500017 -0.068037
C10   C     C_3   0.000030 0.708530 0.499353 -0.066479
C11   C     C_3   0.557615 0.736058 0.544395 0.399232
C12   C     C_3   0.556919 0.263774 0.542028 0.402092
C13   C     C_3   0.058066 0.236057 0.547044 0.399170
C14   C     C_3   0.057161 0.763773 0.543259 0.402133
C15   C     C_3   0.540488 0.764000 0.583798 -0.207774
C16   C     C_3   0.541265 0.235825 0.583297 -0.222540
C17   C     C_3   0.038793 0.264003 0.583609 -0.207302
C18   C     C_3   0.040522 0.735826 0.583264 -0.222691
C19   C     C_1   0.500044 0.662695 0.499934 0.116088
C20   C     C_1   0.499866 0.337311 0.499750 0.119515
C21   C     C_1   0.000042 0.162695 0.499929 0.116084
C22   C     C_1   0.999866 0.837311 0.499747 0.119565
C23   C     C_1   0.500330 0.837355 0.500233 0.085424
C24   C     C_1   0.499910 0.162652 0.499579 0.071336
C25   C     C_1   0.000329 0.337355 0.500232 0.085436
C26   C     C_1   0.999910 0.662652 0.499578 0.071294
C27   C     C_3   0.271159 0.500501 0.331497 -0.184021
C28   C     C_3   0.270696 0.534219 0.241327 -0.139509
C29   C     C_3   0.771159 0.000501 0.331496 -0.183990
C30   C     C_3   0.770695 0.034218 0.241325 -0.139747
C31   C     C_3   0.229335 0.534543 0.259521 -0.263070
C32   C     C_3   0.729335 0.034542 0.259519 -0.263356
C33   C     C_3   0.188923 0.499846 0.190338 -0.146222
C34   C     C_3   0.688923 0.999845 0.190338 -0.146081
C35   C     C_3   0.230231 0.466194 0.261296 0.376403
C36   C     C_3   0.229667 0.499426 0.172340 0.394203
C37   C     C_3   0.730231 0.966193 0.261296 0.376367
C38   C     C_3   0.729666 0.999425 0.172339 0.394341
C39   C     C_R   0.499997 0.580123 0.499981 0.803007
C40   C     C_R   0.499991 0.419879 0.499991 0.806756
C41   C     C_R   0.999997 0.080123 0.499981 0.802896
C42   C     C_R   0.999991 0.919879 0.499992 0.806654
C43   C     C_3   0.271316 0.465218 0.243128 -0.200963
C44   C     C_3   0.771316 0.965217 0.243127 -0.201003
C45   C     C_3   0.311306 0.500049 0.311953 -0.116843
C46   C     C_3   0.811306 0.000049 0.311952 -0.116702
C47   C     C_3   0.729062 0.524692 0.775355 -0.147890
C48   C     C_3   0.729279 0.461010 0.737282 -0.127365
C49   C     C_3   0.229064 0.023144 0.777127 -0.149250
C50   C     C_3   0.229281 0.960795 0.734437 -0.127059
C51   C     C_3   0.770526 0.485418 0.825128 -0.147922
C52   C     C_3   0.270525 0.983649 0.824020 -0.148129
C53   C     C_3   0.810871 0.500231 0.810556 0.005250
C54   C     C_3   0.310870 0.000239 0.810598 0.005326
C55   C     C_3   0.770449 0.539501 0.761836 -0.147767
C56   C     C_3   0.770764 0.475832 0.723810 -0.146579
C57   C     C_3   0.270442 0.039735 0.764743 -0.147751
C58   C     C_3   0.270767 0.977395 0.722126 -0.146310
C59   C     C_3   0.729327 0.515071 0.674069 -0.154440
C60   C     C_3   0.229318 0.016866 0.675247 -0.153382
C61   C     C_3   0.688920 0.500257 0.688611 0.006678
C62   C     C_3   0.188919 0.000269 0.688640 0.006544
C63   C     C_R   0.500122 0.999993 0.379699 0.869400
C64   C     C_R   0.000122 0.499993 0.379699 0.869602
C65   C     C_R   0.500065 0.919894 0.500034 0.840283
C66   C     C_R   0.499959 0.080107 0.499853 0.815934
C67   C     C_R   0.000064 0.419894 0.500034 0.840314
C68   C     C_R   0.999959 0.580107 0.499852 0.815968
C69   C     C_R   0.620420 0.500126 0.620323 0.779837
C70   C     C_R   0.120420 0.000134 0.620328 0.779851
C71   C     C_R   0.499912 0.000437 0.620181 0.857156
C72   C     C_R   0.999912 0.500437 0.620180 0.857086
C73   C     C_R   0.999538 0.499995 0.120006 0.809672
C74   C     C_R   0.499537 0.999995 0.120006 0.809644
C75   C     C_R   0.120563 0.499951 0.121447 0.859245
C76   C     C_R   0.620563 0.999951 0.121447 0.859251
C77   C     C_R   0.999753 0.500022 0.879114 0.854994
C78   C     C_R   0.499752 0.000022 0.879113 0.855069
C79   C     C_R   0.879349 0.500057 0.879166 0.768957
C80   C     C_R   0.379349 0.000058 0.879189 0.769010
C81   C     C_3   0.529367 0.034174 0.299547 0.373476
C82   C     C_3   0.529735 0.965867 0.299947 0.377633
C83   C     C_3   0.029320 0.534192 0.299501 0.373602
C84   C     C_3   0.029784 0.465885 0.299996 0.377788
C85   C     C_3   0.059237 0.500093 0.288249 0.060304
C86   C     C_3   0.559236 0.000056 0.288248 0.060385
C87   C     C_3   0.999998 0.499986 0.188765 -0.138590
C88   C     C_3   0.499997 0.999986 0.188764 -0.138293
C89   C     C_3   0.970074 0.534376 0.199317 -0.187375
C90   C     C_3   0.970545 0.465494 0.199821 -0.184681
C91   C     C_3   0.470122 0.034396 0.199364 -0.187393
C92   C     C_3   0.470495 0.965513 0.199771 -0.185044
C93   C     C_3   0.440817 0.999921 0.211633 -0.255885
C94   C     C_3   0.940818 0.499883 0.211634 -0.255901
C95   C     C_3   0.443098 0.764030 0.455729 0.405952
C96   C     C_3   0.443081 0.236157 0.457061 0.403904
C97   C     C_3   0.942653 0.264031 0.453089 0.405686
C98   C     C_3   0.942844 0.736158 0.455834 0.403945
C99   C     C_3   0.500220 0.999987 0.311413 -0.144636
C100  C     C_3   0.000221 0.499986 0.311414 -0.144729
C101  C     C_3   0.498601 0.961347 0.727875 0.380951
C102  C     C_3   0.551183 0.019280 0.781046 0.398726
C103  C     C_3   0.998646 0.461346 0.727920 0.380939
C104  C     C_3   0.051161 0.519307 0.781023 0.398700
C105  C     C_3   0.050689 0.479634 0.821453 -0.173441
C106  C     C_3   0.550665 0.979608 0.821430 -0.173615
C107  C     C_3   0.999653 0.500143 0.810702 -0.122344
C108  C     C_3   0.499652 0.000143 0.810701 -0.122431
C109  C     C_3   0.947617 0.481228 0.718264 -0.170302
C110  C     C_3   0.000875 0.540069 0.771932 -0.171048
C111  C     C_3   0.447594 0.981255 0.718241 -0.170271
C112  C     C_3   0.500921 0.040068 0.771978 -0.170939
C113  C     C_3   0.449046 0.021122 0.678463 -0.259850
C114  C     C_3   0.949022 0.521096 0.678439 -0.259941
C115  C     C_3   0.499897 0.000682 0.688573 -0.146846
C116  C     C_3   0.999897 0.500682 0.688572 -0.146703
C117  C     C_3   0.482498 0.736053 0.538959 -0.277478
C118  C     C_3   0.483693 0.263948 0.540468 -0.280787
C119  C     C_3   0.980347 0.236058 0.536091 -0.277712
C120  C     C_3   0.982705 0.763950 0.539191 -0.280643
C121  C     C_1   0.500020 0.625003 0.499960 -0.114683
C122  C     C_1   0.499930 0.375002 0.499904 -0.109655
C123  C     C_1   0.000019 0.125003 0.499958 -0.114623
C124  C     C_1   0.999930 0.875002 0.499904 -0.109644
C125  C     C_1   0.500205 0.875035 0.500186 -0.070189
C126  C     C_1   0.499876 0.124970 0.499678 -0.092784
C127  C     C_1   0.000203 0.375035 0.500184 -0.070154
C128  C     C_1   0.999876 0.624970 0.499677 -0.092764
C129  C     C_3   0.460242 0.736239 0.416651 0.327800
C130  C     C_3   0.458762 0.263959 0.416124 0.331946
C131  C     C_3   0.961932 0.236235 0.416838 0.328031
C132  C     C_3   0.959505 0.763958 0.416157 0.331867
C133  C     C_3   0.500072 0.708565 0.499861 -0.067515
C134  C     C_3   0.499791 0.291444 0.499491 -0.064753
C135  C     C_3   0.000073 0.208565 0.499854 -0.067459
C136  C     C_3   0.999792 0.791444 0.499487 -0.064716
Cu1   Cu    Cu3+1 0.499970 0.500000 0.437200 1.039709
Cu2   Cu    Cu3+1 0.999970 1.000000 0.437200 1.040041
Cu3   Cu    Cu3+1 0.500040 0.500000 0.562800 1.006334
Cu4   Cu    Cu3+1 0.000040 0.000000 0.562800 1.006382
Cu5   Cu    Cu3+1 0.437240 0.000000 0.437100 1.042575
Cu6   Cu    Cu3+1 0.937240 0.500000 0.437100 1.042769
Cu7   Cu    Cu3+1 0.562770 0.000000 0.562750 1.104768
Cu8   Cu    Cu3+1 0.062770 0.500000 0.562750 1.104500
Cu9   Cu    Cu3+1 0.000000 0.541440 0.999930 1.011093
Cu10  Cu    Cu3+1 0.000000 0.458560 0.999930 1.066203
Cu11  Cu    Cu3+1 0.500000 0.041440 0.999930 1.010844
Cu12  Cu    Cu3+1 0.500000 0.958560 0.999930 1.066072
H1    H     H_    0.467518 0.724410 0.570475 0.207230
H2    H     H_    0.469987 0.275589 0.573658 0.206505
H3    H     H_    0.963602 0.224419 0.565241 0.207129
H4    H     H_    0.968187 0.775592 0.571325 0.206611
H5    H     H_    0.289341 0.436871 0.237215 0.195168
H6    H     H_    0.789341 0.936870 0.237215 0.195082
H7    H     H_    0.788773 0.473299 0.888373 0.141757
H8    H     H_    0.288768 0.970069 0.886325 0.142818
H9    H     H_    0.710763 0.544740 0.795260 0.157326
H10   H     H_    0.711058 0.428862 0.725842 0.155274
H11   H     H_    0.210785 0.041923 0.798475 0.158035
H12   H     H_    0.211061 0.928466 0.720643 0.155654
H13   H     H_    0.788338 0.571726 0.772873 0.169450
H14   H     H_    0.789178 0.455834 0.704013 0.151428
H15   H     H_    0.288316 0.072147 0.778142 0.169793
H16   H     H_    0.289195 0.958675 0.700930 0.149667
H17   H     H_    0.711356 0.527271 0.611041 0.162095
H18   H     H_    0.211320 0.030524 0.613143 0.161551
H19   H     H_    0.945658 0.562542 0.156926 0.185166
H20   H     H_    0.946514 0.437244 0.157843 0.186307
H21   H     H_    0.445745 0.062577 0.157013 0.185048
H22   H     H_    0.446423 0.937278 0.157753 0.185921
H23   H     H_    0.392152 0.999867 0.180950 0.192981
H24   H     H_    0.892153 0.499797 0.180950 0.193086
H25   H     H_    0.092126 0.462453 0.880536 0.221364
H26   H     H_    0.592083 0.962406 0.880495 0.221330
H27   H     H_    0.905217 0.465303 0.693863 0.168639
H28   H     H_    0.002182 0.572586 0.791253 0.190182
H29   H     H_    0.405175 0.965353 0.693822 0.168559
H30   H     H_    0.502266 0.072585 0.791336 0.190222
H31   H     H_    0.407548 0.038158 0.619106 0.190286
H32   H     H_    0.907505 0.538110 0.619063 0.190227
H33   H     H_    0.573771 0.775742 0.652632 0.209671
H34   H     H_    0.575477 0.223933 0.652132 0.205172
H35   H     H_    0.070693 0.275746 0.652308 0.210064
H36   H     H_    0.074125 0.723934 0.652080 0.205083
H37   H     H_    0.211160 0.562812 0.265374 0.191354
H38   H     H_    0.711160 0.062812 0.265372 0.191192
H39   H     H_    0.288945 0.500698 0.397936 0.181043
H40   H     H_    0.288505 0.562075 0.233881 0.185823
H41   H     H_    0.788945 0.000699 0.397936 0.181006
H42   H     H_    0.788504 0.062074 0.233878 0.185618
O1    O     O_R   0.408400 0.500000 0.355400 -0.567508
O2    O     O_R   0.908400 0.000000 0.355400 -0.567385
O3    O     O_R   0.553010 0.939540 0.552990 -0.565157
O4    O     O_R   0.553010 0.060460 0.552990 -0.557832
O5    O     O_R   0.053010 0.439540 0.552990 -0.565325
O6    O     O_R   0.053010 0.560460 0.552990 -0.557941
O7    O     O_R   0.446960 0.000000 0.538400 -0.582803
O8    O     O_R   0.946960 0.500000 0.538400 -0.582953
O9    O     O_R   0.552960 0.000000 0.644510 -0.541391
O10   O     O_R   0.052960 0.500000 0.644510 -0.541366
O11   O     O_R   0.000050 0.534990 0.091550 -0.587756
O12   O     O_R   0.000050 0.465010 0.091550 -0.571329
O13   O     O_R   0.500050 0.034990 0.091550 -0.587844
O14   O     O_R   0.500050 0.965010 0.091550 -0.571499
O15   O     O_R   0.091570 0.534990 0.091500 -0.582110
O16   O     O_R   0.091570 0.465010 0.091500 -0.536262
O17   O     O_R   0.591570 0.034990 0.091500 -0.582162
O18   O     O_R   0.591570 0.965010 0.091500 -0.536287
O19   O     O_R   0.999950 0.535010 0.908310 -0.581182
O20   O     O_R   0.999950 0.464990 0.908310 -0.571747
O21   O     O_R   0.499950 0.035010 0.908310 -0.581122
O22   O     O_R   0.499950 0.964990 0.908310 -0.571654
O23   O     O_R   0.908430 0.535000 0.908360 -0.592015
O24   O     O_R   0.908430 0.465000 0.908360 -0.584612
O25   O     O_R   0.408430 0.035000 0.908360 -0.592169
O26   O     O_R   0.408430 0.965000 0.908360 -0.584465
O27   O     O_R   0.408460 0.500000 0.461460 -0.583644
O28   O     O_R   0.908460 0.000000 0.461460 -0.583746
O29   O     O_R   0.499970 0.560460 0.446970 -0.564801
O30   O     O_R   0.499970 0.439540 0.446970 -0.564424
O31   O     O_R   0.999970 0.060460 0.446970 -0.564808
O32   O     O_R   0.999970 0.939540 0.446970 -0.564403
O33   O     O_R   0.500030 0.560470 0.553030 -0.579314
O34   O     O_R   0.500030 0.439530 0.553030 -0.575104
O35   O     O_R   0.000030 0.060470 0.553030 -0.579178
O36   O     O_R   0.000030 0.939530 0.553030 -0.574984
O37   O     O_R   0.591550 0.500000 0.538540 -0.583587
O38   O     O_R   0.091550 0.000000 0.538540 -0.583482
O39   O     O_R   0.591610 0.500000 0.644600 -0.584955
O40   O     O_R   0.091610 0.000000 0.644600 -0.585013
O41   O     O_R   0.447050 0.000000 0.355340 -0.594534
O42   O     O_R   0.947050 0.500000 0.355340 -0.594343
O43   O     O_R   0.553050 0.000000 0.461450 -0.551351
O44   O     O_R   0.053050 0.500000 0.461450 -0.551463
O45   O     O_R   0.447010 0.939550 0.446880 -0.567118
O46   O     O_R   0.447010 0.060450 0.446880 -0.577631
O47   O     O_R   0.947010 0.439550 0.446880 -0.566935
O48   O     O_R   0.947010 0.560450 0.446880 -0.577541
C137  C     C_3   0.124916 0.500177 0.325439 -0.380935
C138  C     C_3   0.175962 0.500245 0.426032 -0.663268
H43   H     H_    0.172440 0.528523 0.452232 0.280104
H44   H     H_    0.172677 0.472018 0.452612 0.287938
H45   H     H_    0.222373 0.500241 0.449205 0.229530
H46   H     H_    0.130449 0.472036 0.301123 0.249115
H47   H     H_    0.130209 0.528273 0.300699 0.206676
C139  C     C_3   0.624915 0.000098 0.325438 -0.380979
C140  C     C_3   0.675961 0.000136 0.426032 -0.663034
H48   H     H_    0.672480 0.028417 0.452269 0.280085
H49   H     H_    0.672635 0.971912 0.452574 0.288021
H50   H     H_    0.722372 0.000101 0.449206 0.229539
H51   H     H_    0.630409 0.971953 0.301086 0.249202
H52   H     H_    0.630248 0.028190 0.300736 0.206603
Cl1   Cl    Cl    0.565627 0.080464 0.364347 -0.623389
Cl2   Cl    Cl    0.566482 0.919643 0.365248 -0.604434
Cl3   Cl    Cl    0.065517 0.580503 0.364239 -0.623334
Cl4   Cl    Cl    0.066599 0.419685 0.365364 -0.604203
Cl5   Cl    Cl    0.366847 0.783049 0.397135 -0.481662
Cl6   Cl    Cl    0.367286 0.217384 0.400915 -0.485302
Cl7   Cl    Cl    0.865785 0.283049 0.390948 -0.482538
Cl8   Cl    Cl    0.866722 0.717386 0.398045 -0.484912
Cl9   Cl    Cl    0.496941 0.909194 0.697267 -0.557529
Cl10  Cl    Cl    0.620102 0.045059 0.823807 -0.491382
Cl11  Cl    Cl    0.997048 0.409192 0.697374 -0.558771
Cl12  Cl    Cl    0.120049 0.545120 0.823750 -0.491648
Cl13  Cl    Cl    0.634562 0.716979 0.607035 -0.581601
Cl14  Cl    Cl    0.633490 0.282614 0.602267 -0.578658
Cl15  Cl    Cl    0.135499 0.216979 0.613119 -0.582033
Cl16  Cl    Cl    0.134001 0.782612 0.605094 -0.579016
C141  C     C_3   0.537847 0.781876 0.417827 -0.326981
C142  C     C_3   0.552632 0.747927 0.384753 -0.660456
H53   H     H_    0.591541 0.727816 0.439957 0.280291
H54   H     H_    0.511040 0.728247 0.334266 0.280280
H55   H     H_    0.566839 0.762758 0.354271 0.249589
H56   H     H_    0.499636 0.801982 0.361435 0.234357
H57   H     H_    0.579875 0.801645 0.466655 0.238860
C143  C     C_3   0.534215 0.218150 0.413032 -0.325976
C144  C     C_3   0.547770 0.252107 0.378406 -0.670961
H58   H     H_    0.505989 0.271943 0.328885 0.280611
H59   H     H_    0.587144 0.272064 0.433053 0.282143
H60   H     H_    0.560741 0.237284 0.346301 0.245707
H61   H     H_    0.576378 0.198229 0.460834 0.239637
H62   H     H_    0.495492 0.198197 0.357131 0.234040
C145  C     C_3   0.042393 0.281866 0.423880 -0.326511
C146  C     C_3   0.058988 0.247915 0.393209 -0.660749
H63   H     H_    0.097235 0.227797 0.449227 0.279901
H64   H     H_    0.017764 0.228242 0.341499 0.280384
H65   H     H_    0.074901 0.262741 0.365007 0.249924
H66   H     H_    0.004911 0.301975 0.366768 0.235391
H67   H     H_    0.084132 0.301632 0.474017 0.238009
C147  C     C_3   0.036306 0.718147 0.415731 -0.325795
C148  C     C_3   0.050693 0.752103 0.382176 -0.670701
H68   H     H_    0.009051 0.771936 0.332069 0.280575
H69   H     H_    0.089790 0.772063 0.437229 0.282075
H70   H     H_    0.064447 0.737278 0.351087 0.245939
H71   H     H_    0.078363 0.698227 0.464158 0.239345
H72   H     H_    0.997889 0.698192 0.359468 0.234482
Cl17  Cl    Cl    0.405023 0.717429 0.306014 -0.520748
Cl18  Cl    Cl    0.402107 0.283032 0.305590 -0.509669
Cl19  Cl    Cl    0.908870 0.217425 0.306288 -0.519792
Cl20  Cl    Cl    0.903797 0.783031 0.305593 -0.509848
Cl21  Cl    Cl    0.203868 0.421044 0.275808 -0.542700
Cl22  Cl    Cl    0.201047 0.498997 0.065737 -0.548334
Cl23  Cl    Cl    0.703869 0.921043 0.275809 -0.543039
Cl24  Cl    Cl    0.701044 0.998994 0.065733 -0.548209

loop_
_geom_bond_atom_site_label_1
_geom_bond_atom_site_label_2
_ccdc_geom_bond_type
C55   C59   S    
C148  H68   S    
C58   H16   S    
Cu9   Cu10  S    
C80   O26   A    
Cu8   O5    S    
C146  H63   S    
C70   O38   A    
Cu12  O22   S    
C86   C88   S    
C74   O13   A    
C58   C60   S    
C69   O37   A    
C33   C36   S    
C30   C38   S    
C60   C62   S    
C89   C94   S    
C89   H19   S    
C2    O28   A    
C105  H25   S    
C94   H24   S    
C104  C116  S    
C11   C15   S    
C12   C16   S    
C92   H22   S    
C84   Cl4   S    
C50   C52   S    
C102  Cl10  S    
C4    C12   S    
C68   C128  S    
C5    C13   S    
C81   C86   S    
C7    C15   S    
C117  C133  S    
C8    C16   S    
C40   O30   A    
C78   C108  S    
C130  C134  S    
Cu5   O7    S    
C104  C105  S    
C66   O4    A    
C44   C46   S    
C27   C31   S    
C84   C100  S    
C97   C131  S    
C6    C132  S    
C4    C130  S    
C81   C99   S    
C50   H12   S    
C48   H10   S    
C32   C34   S    
C21   C123  T    
C6    C10   S    
C16   C118  S    
Cu6   O42   S    
Cu8   O10   S    
C111  C113  S    
C27   H39   S    
C36   Cl22  S    
Cu10  O24   S    
Cu2   Cu4   S    
C129  C133  S    
C113  H31   S    
C114  H32   S    
C83   C100  S    
C87   C89   S    
C101  C115  S    
C107  C110  S    
C142  H54   S    
Cu5   O41   S    
C78   O22   A    
C112  H30   S    
C140  H50   S    
Cu3   O33   S    
C49   C62   S    
C145  H66   S    
C3    C129  S    
C146  H65   S    
C2    O2    A    
C109  H27   S    
C98   C120  S    
C110  H28   S    
C40   C122  S    
Cu4   O36   S    
C56   C59   S    
C103  C109  S    
C44   H6    S    
C37   C44   S    
Cu11  O13   S    
C103  C116  S    
C104  C110  S    
C75   O15   A    
C143  H62   S    
C10   C18   S    
C129  Cl17  S    
C28   H40   S    
C16   H34   S    
C12   Cl14  S    
C3    C11   S    
C111  H29   S    
C117  H1    S    
C104  Cl12  S    
C20   C134  S    
C21   C135  S    
C6    C147  S    
C113  C115  S    
Cu6   O47   S    
C56   H14   S    
C53   C55   S    
Cu11  Cu12  S    
Cu9   O15   S    
C95   C117  S    
C64   O44   A    
C105  C107  S    
C62   C70   S    
C141  H56   S    
C130  Cl18  S    
C147  H72   S    
C39   O29   A    
C148  H69   S    
Cu11  O25   S    
C72   O10   A    
Cu2   O32   S    
C49   C57   S    
C63   C99   S    
C33   C75   S    
C14   Cl16  S    
C35   C43   S    
C110  C114  S    
C20   C122  T    
C118  C134  S    
Cu5   O45   S    
Cu1   O1    S    
C144  H58   S    
C24   C126  T    
C13   C135  S    
Cu1   O29   S    
C84   C90   S    
Cu12  O26   S    
Cu9   O19   S    
C139  H51   S    
C42   O36   A    
C83   C89   S    
C59   C61   S    
C91   H21   S    
C55   H13   S    
Cu3   O39   S    
C17   C119  S    
Cu7   O4    S    
C66   C126  S    
C51   C53   S    
C97   C119  S    
Cu11  O17   S    
C5    C9    S    
C69   O39   A    
C6    C14   S    
C57   H15   S    
C88   C91   S    
C94   C100  S    
C132  C136  S    
C31   H37   S    
C103  C105  S    
C43   C45   S    
C109  C114  S    
C77   O20   A    
Cu12  O14   S    
C63   O41   A    
C47   H9    S    
C53   C56   S    
C9    C17   S    
C101  C106  S    
C139  C140  S    
C19   C121  T    
C132  Cl20  S    
C90   H20   S    
C30   C46   S    
C114  C116  S    
Cu8   O6    S    
C3    C141  S    
Cu8   O44   S    
C81   Cl1   S    
C146  H64   S    
C64   C100  S    
Cu1   O37   S    
C1    C45   S    
C106  C108  S    
C7    C23   S    
C138  H43   S    
C8    C24   S    
C30   H42   S    
C76   O18   A    
C143  C144  S    
C96   Cl6   S    
C144  H60   S    
C98   C132  S    
C145  C146  S    
C49   H11   S    
C42   O32   A    
C34   C76   S    
C54   C57   S    
Cu4   O40   S    
C34   C37   S    
C82   C99   S    
C102  C112  S    
C137  C138  S    
C131  Cl19  S    
C9    C25   S    
Cu1   Cu3   S    
C29   C32   S    
C3    C7    S    
Cu5   Cu7   S    
C61   C69   S    
C35   Cl21  S    
Cu5   O46   S    
C82   C92   S    
C48   C56   S    
C147  C148  S    
C118  H2    S    
C73   C87   S    
C102  C115  S    
C79   O24   A    
C93   C99   S    
C65   O3    A    
Cu10  O16   S    
C27   C45   S    
C5    C145  S    
C141  C142  S    
C107  C109  S    
C142  H55   S    
C39   O33   A    
Cu11  O21   S    
C90   C94   S    
C80   O25   A    
C54   C80   S    
C140  H49   S    
C73   O11   A    
C41   O35   A    
C50   C58   S    
C84   C85   S    
C64   O42   A    
C57   C60   S    
C47   C51   S    
C82   C86   S    
C67   O47   A    
C138  H45   S    
C145  H67   S    
C108  C112  S    
C22   C136  S    
C120  C136  S    
C38   C44   S    
C91   C93   S    
C17   H35   S    
C18   H36   S    
C49   C52   S    
C51   H7    S    
C106  H26   S    
C68   O6    A    
Cu9   O23   S    
C1    O1    A    
C83   C85   S    
C37   Cl23  S    
Cu6   Cu8   S    
Cu7   O9    S    
C96   C130  S    
Cu6   O48   S    
C93   H23   S    
C9    C97   S    
C65   O45   A    
C28   C31   S    
Cu2   O2    S    
C47   C61   S    
C71   O9    A    
C13   C17   S    
C19   C133  S    
C73   O12   A    
C72   C116  S    
C39   C121  S    
C32   H38   S    
C29   C46   S    
C137  H47   S    
C27   C35   S    
C25   C127  T    
C41   C123  S    
C14   C136  S    
C101  C111  S    
C15   H33   S    
C92   C93   S    
C119  C135  S    
Cu12  O18   S    
C72   O8    A    
C81   C91   S    
C15   C117  S    
C5    C131  S    
C28   C36   S    
Cu10  O12   S    
C87   C90   S    
C29   C37   S    
C95   C129  S    
C142  H53   S    
C82   Cl2   S    
C36   C43   S    
C1    O27   A    
C74   C88   S    
C43   H5    S    
C78   O21   A    
C41   O31   A    
Cu3   O34   S    
C30   C32   S    
C101  Cl9   S    
C14   C18   S    
C8    C96   S    
C4    C8    S    
C42   C124  S    
C139  H52   S    
C2    C46   S    
Cu4   O35   S    
C74   O14   A    
C40   O34   A    
C96   C118  S    
C53   C79   S    
C131  C135  S    
C11   C133  S    
C75   O16   A    
C143  H61   S    
Cu7   O3    S    
C10   C98   S    
Cu3   O27   S    
C33   C35   S    
C48   C51   S    
C88   C92   S    
C31   C33   S    
C137  H46   S    
C76   O17   A    
C77   O19   A    
C23   C125  T    
C10   C26   S    
C86   C139  S    
Cu6   O8    S    
C67   O5    A    
C13   Cl15  S    
C112  C113  S    
Cu10  O20   S    
C52   C54   S    
C71   O7    A    
C85   C87   S    
C119  H3    S    
C28   C45   S    
C120  H4    S    
C141  H57   S    
C147  H71   S    
C4    C143  S    
C77   C107  S    
C148  H70   S    
Cu2   O31   S    
C66   O46   A    
C85   C137  S    
C65   C125  S    
C70   O40   A    
C67   C127  S    
C63   O43   A    
C138  H44   S    
C11   Cl13  S    
C71   C115  S    
C108  C111  S    
C26   C128  T    
Cu2   O38   S    
Cu4   O28   S    
C144  H59   S    
C50   C62   S    
C18   C120  S    
C97   Cl7   S    
C47   C55   S    
C54   C58   S    
C98   Cl8   S    
C95   Cl5   S    
C34   C38   S    
C59   H17   S    
C140  H48   S    
C22   C124  T    
C52   H8    S    
C7    C95   S    
C38   Cl24  S    
Cu7   O43   S    
C68   O48   A    
Cu9   O11   S    
C48   C61   S    
C83   Cl3   S    
Cu1   O30   S    
C102  C106  S    
C29   H41   S    
C79   O23   A    
C60   H18   S    
C103  Cl11  S    
C12   C134  S    
