data_mof_unit_pretest_1704.cif
_audit_creation_date              2012-12-10T20:55:00-0500
_audit_creation_method            fapswitch 2.2
_symmetry_space_group_name_H-M    P1
_symmetry_Int_Tables_number       1
_space_group_crystal_system       triclinic
_cell_length_a                    15.843695
_cell_length_b                    15.056228
_cell_length_c                    10.768193
_cell_angle_alpha                 89.985096
_cell_angle_beta                  89.984606
_cell_angle_gamma                 91.108633
_cell_volume                      2568.23140359

loop_
_atom_site_label
_atom_site_type_symbol
_atom_type_description
_atom_site_fract_x
_atom_site_fract_y
_atom_site_fract_z
_atom_type_partial_charge
Br1   Br    Br    0.666276 0.652393 0.263909 -0.460577
Br2   Br    Br    0.668910 0.648840 0.737364 -0.434565
Br3   Br    Br    0.888020 0.305994 0.524994 -0.373502
Br4   Br    Br    0.100169 0.303192 0.524994 -0.372487
Br5   Br    Br    0.333904 0.890173 0.386146 -0.452880
Br6   Br    Br    0.666910 0.897113 0.612516 -0.416346
C1    C     C_R   0.338871 0.499208 0.500086 0.913289
C2    C     C_R   0.569745 0.954844 0.546856 0.262939
C3    C     C_R   0.500285 0.905097 0.499681 -0.106508
C4    C     C_R   0.569329 0.048641 0.546681 -0.171535
C5    C     C_R   0.431132 0.045783 0.452688 -0.165984
C6    C     C_R   0.500181 0.095095 0.499773 -0.038995
C7    C     C_1   0.500181 0.807140 0.499875 0.253328
C8    C     C_1   0.500082 0.192844 0.499908 0.134421
C9    C     C_R   0.509344 0.500668 0.260040 0.898207
C10   C     C_R   0.509282 0.500600 0.739974 0.897183
C11   C     C_R   0.590420 0.657312 0.126693 0.282185
C12   C     C_R   0.661135 0.500585 0.499684 0.943566
C13   C     C_R   0.591450 0.656235 0.872294 0.285912
C14   C     C_R   0.597309 0.737501 0.062880 -0.190511
C15   C     C_R   0.598003 0.736939 0.934676 -0.184747
C16   C     C_R   0.558644 0.579409 0.934187 -0.004557
C17   C     C_R   0.558426 0.579720 0.065514 0.003016
C18   C     C_R   0.528285 0.502051 0.128579 -0.088453
C19   C     C_R   0.528300 0.501827 0.871423 -0.088562
C20   C     C_R   0.509996 0.423952 0.063526 -0.182336
C21   C     C_R   0.509907 0.423868 0.936678 -0.180626
C22   C     C_R   0.958694 0.576653 0.491567 -0.164129
C23   C     C_R   0.953304 0.415056 0.511485 0.242527
C24   C     C_R   0.045875 0.575463 0.491600 -0.197130
C25   C     C_R   0.912980 0.496979 0.501380 0.007409
C26   C     C_R   0.086770 0.494616 0.501434 0.014303
C27   C     C_R   0.041536 0.413859 0.511502 0.251973
C28   C     C_1   0.824238 0.500329 0.500613 0.070892
C29   C     C_1   0.175678 0.495945 0.500924 0.047070
C30   C     C_1   0.250516 0.497409 0.500483 -0.126940
C31   C     C_1   0.749473 0.501578 0.500046 -0.049262
C32   C     C_R   0.430837 0.951977 0.452380 0.256872
H1    H     H_    0.618220 0.797297 0.110634 0.199420
H2    H     H_    0.619566 0.796221 0.886238 0.215187
H3    H     H_    0.377147 0.080192 0.415971 0.188385
H4    H     H_    0.623294 0.085290 0.583364 0.190630
H5    H     H_    0.489751 0.363496 0.110419 0.179636
H6    H     H_    0.489564 0.363405 0.889946 0.179809
H7    H     H_    0.081463 0.637453 0.483884 0.189640
H8    H     H_    0.926880 0.639522 0.483801 0.199597
N1    N     N_1   0.500000 0.270550 0.500000 -0.084583
N2    N     N_1   0.500000 0.729450 0.500000 -0.050028
O1    O     O_R   0.378020 0.573650 0.500040 -0.603612
O2    O     O_R   0.621980 0.573650 0.499960 -0.542272
O3    O     O_R   0.378020 0.426320 0.500100 -0.596677
O4    O     O_R   0.621980 0.426320 0.499900 -0.617957
O5    O     O_R   0.500000 0.573680 0.316780 -0.597128
O6    O     O_R   0.500000 0.573680 0.683220 -0.602255
O7    O     O_R   0.500000 0.426350 0.316830 -0.625256
O8    O     O_R   0.500000 0.426350 0.683170 -0.623609
Zn1   Zn    Zn3+2 0.500000 0.598370 0.500000 1.068896
Zn2   Zn    Zn3+2 0.500000 0.401630 0.500000 1.017712

loop_
_geom_bond_atom_site_label_1
_geom_bond_atom_site_label_2
_ccdc_geom_bond_type
C5    C32   A    
Br6   C2    S    
C5    C6    A    
C10   O8    A    
C8    N1    T    
C1    O1    A    
C7    N2    T    
C28   C31   T    
C1    C30   S    
C24   H7    S    
Br1   C11   S    
C29   C30   T    
C17   C18   A    
C26   C27   A    
C13   C16   A    
C22   C24   A    
C6    C8    S    
C25   C28   S    
C1    O3    A    
N2    Zn1   S    
C23   C25   A    
O3    Zn2   S    
Br5   C32   S    
N1    Zn2   S    
C24   C26   A    
C22   H8    S    
C20   C21   A    
C11   C17   A    
C15   H2    S    
C4    C6    A    
C9    O5    A    
C9    C18   S    
C13   C15   A    
C12   C31   S    
O8    Zn2   S    
C20   H5    S    
C5    H3    S    
C19   C21   A    
O4    Zn2   S    
C10   O6    A    
C4    H4    S    
C12   O4    A    
C26   C29   S    
C23   C27   A    
C11   C14   A    
O1    Zn1   S    
C14   C15   A    
C12   O2    A    
C2    C4    A    
O7    Zn2   S    
C10   C19   S    
Br3   C23   S    
C14   H1    S    
O5    Zn1   S    
C16   C17   A    
C3    C32   A    
C3    C7    S    
Br2   C13   S    
Br4   C27   S    
O2    Zn1   S    
C21   H6    S    
O6    Zn1   S    
C22   C25   A    
C18   C20   A    
C2    C3    A    
C16   C19   A    
C9    O7    A    
