data_mof_unit_pretest_960.cif
_audit_creation_date              2012-12-11T21:17:55-0500
_audit_creation_method            fapswitch 2.2
_symmetry_space_group_name_H-M    P1
_symmetry_Int_Tables_number       1
_space_group_crystal_system       triclinic
_cell_length_a                    22.852014
_cell_length_b                    30.211228
_cell_length_c                    8.678699
_cell_angle_alpha                 89.913529
_cell_angle_beta                  93.570173
_cell_angle_gamma                 90.241535
_cell_volume                      5979.97854271

loop_
_atom_site_label
_atom_site_type_symbol
_atom_type_description
_atom_site_fract_x
_atom_site_fract_y
_atom_site_fract_z
_atom_type_partial_charge
Ba1   Ba    Ba6+2 0.999920 0.468170 0.845000 1.835711
Ba2   Ba    Ba6+2 0.999920 0.531830 0.345000 1.817561
Ba3   Ba    Ba6+2 0.499920 0.968170 0.845000 1.836115
Ba4   Ba    Ba6+2 0.499920 0.031830 0.345000 1.817614
C1    C     C_3   0.053291 0.260589 0.644478 0.322273
C2    C     C_R   0.134769 0.319896 0.356927 -0.157013
C3    C     C_R   0.343673 0.285626 0.828587 -0.067716
C4    C     C_R   0.326943 0.682154 0.428157 -0.034201
C5    C     C_R   0.324565 0.317094 0.931810 -0.021771
C6    C     C_R   0.827101 0.182146 0.428131 -0.022042
C7    C     C_R   0.824634 0.817118 0.931772 -0.022174
C8    C     C_R   0.267916 0.670354 0.422012 -0.085287
C9    C     C_R   0.265823 0.329363 0.924702 -0.089394
C10   C     C_R   0.768078 0.170332 0.422030 -0.090068
C11   C     C_R   0.765896 0.829397 0.924669 -0.089110
C12   C     C_R   0.230394 0.685904 0.301338 -0.093647
C13   C     C_R   0.635619 0.180382 0.856719 -0.159729
C14   C     C_R   0.228169 0.314141 0.803536 -0.093069
C15   C     C_R   0.730539 0.185855 0.301347 -0.094308
C16   C     C_R   0.728235 0.814175 0.803517 -0.092738
C17   C     C_3   0.164575 0.472713 0.198838 0.239857
C18   C     C_3   0.165004 0.527444 0.697772 0.240250
C19   C     C_3   0.664581 0.972714 0.198832 0.239666
C20   C     C_3   0.665000 0.027447 0.697773 0.239336
C21   C     C_3   0.218266 0.442655 0.213089 -0.271559
C22   C     C_3   0.218823 0.557706 0.711560 -0.270980
C23   C     C_3   0.718274 0.942658 0.213063 -0.272446
C24   C     C_R   0.634815 0.819911 0.356902 -0.154009
C25   C     C_3   0.718817 0.057710 0.711551 -0.272224
C26   C     C_3   0.759190 0.458915 0.061360 0.670655
C27   C     C_3   0.764302 0.542341 0.535278 0.654302
C28   C     C_3   0.259191 0.958914 0.061370 0.670103
C29   C     C_3   0.264303 0.042344 0.535270 0.654324
C30   C     C_3   0.751659 0.417136 0.960116 -0.320468
C31   C     C_3   0.755297 0.563528 0.375009 -0.257655
C32   C     C_3   0.251660 0.917134 0.960128 -0.320382
C33   C     C_3   0.255294 0.063523 0.374989 -0.258783
C34   C     C_3   0.021075 0.303433 0.600280 0.339532
C35   C     C_R   0.100544 0.645353 0.795463 -0.012325
C36   C     C_3   0.019686 0.696667 0.102973 0.340270
C37   C     C_3   0.520990 0.803352 0.599727 0.327521
C38   C     C_3   0.519681 0.196667 0.102984 0.340315
C39   C     C_R   0.175968 0.630480 0.053145 -0.105452
C40   C     C_R   0.175270 0.369681 0.553681 -0.104887
C41   C     C_R   0.675989 0.130466 0.053163 -0.105254
C42   C     C_R   0.675300 0.869700 0.553658 -0.104333
C43   C     C_2   0.262869 0.459767 0.332794 0.537613
C44   C     C_2   0.263264 0.540884 0.831878 0.533954
C45   C     C_2   0.762881 0.959772 0.332758 0.538623
C46   C     C_R   0.099710 0.354793 0.296383 -0.014763
C47   C     C_2   0.763264 0.040887 0.831852 0.537337
C48   C     C_R   0.600562 0.145355 0.795487 -0.012230
C49   C     C_R   0.599739 0.854801 0.296366 -0.020588
C50   C     C_R   0.883771 0.312704 0.326752 -0.219846
C51   C     C_R   0.878975 0.686164 0.833333 -0.204552
C52   C     C_R   0.383754 0.812706 0.326795 -0.222885
C53   C     C_3   0.051721 0.739789 0.146548 0.318727
C54   C     C_R   0.378952 0.186159 0.833349 -0.204452
C55   C     C_R   0.897120 0.352705 0.401774 -0.031825
C56   C     C_R   0.893993 0.646316 0.907284 -0.046290
C57   C     C_R   0.397122 0.852704 0.401809 -0.034074
C58   C     C_R   0.393985 0.146312 0.907291 -0.046414
C59   C     C_R   0.857442 0.352636 0.090662 -0.192688
C60   C     C_R   0.851311 0.646086 0.598015 -0.179610
C61   C     C_R   0.357435 0.852636 0.090693 -0.192338
C62   C     C_R   0.351295 0.146079 0.598027 -0.180292
C63   C     C_R   0.874056 0.393923 0.163634 -0.122708
C64   C     C_3   0.553251 0.760527 0.643981 0.383743
C65   C     C_R   0.871582 0.605346 0.667931 -0.116850
C66   C     C_R   0.374060 0.893923 0.163652 -0.122868
C67   C     C_R   0.371579 0.105343 0.667936 -0.116417
C68   C     C_R   0.178490 0.672743 0.979892 -0.005053
C69   C     C_R   0.177426 0.327436 0.480788 -0.006455
C70   C     C_R   0.678532 0.172727 0.979916 -0.005447
C71   C     C_R   0.677472 0.827458 0.480766 -0.013976
C72   C     C_R   0.094211 0.607364 0.882965 -0.261746
C73   C     C_R   0.092985 0.392450 0.384759 -0.269023
C74   C     C_R   0.594215 0.107371 0.882997 -0.261660
C75   C     C_3   0.551709 0.239791 0.146550 0.319054
C76   C     C_R   0.593003 0.892454 0.384748 -0.268624
C77   C     C_R   0.857164 0.310820 0.174201 0.013185
C78   C     C_R   0.851928 0.687906 0.681145 0.018422
C79   C     C_R   0.357137 0.810824 0.174256 0.015045
C80   C     C_R   0.351902 0.187898 0.681159 0.017909
C81   C     C_3   0.999778 0.294287 0.076559 0.255561
C82   C     C_3   0.997315 0.704532 0.579711 0.258314
C83   C     C_3   0.499860 0.794215 0.076855 0.271533
C84   C     C_3   0.497296 0.204521 0.579724 0.258382
C85   C     C_R   0.884242 0.392222 0.323500 0.211330
C86   C     C_R   0.129948 0.600488 0.016262 0.045433
C87   C     C_R   0.882581 0.606707 0.828338 0.136954
C88   C     C_R   0.384257 0.892222 0.323521 0.212016
C89   C     C_R   0.382581 0.106704 0.828342 0.136770
C90   C     C_R   0.242303 0.726511 0.750554 -0.074549
C91   C     C_R   0.240863 0.273124 0.253737 -0.073554
C92   C     C_R   0.742340 0.226470 0.750538 -0.074593
C93   C     C_R   0.740928 0.773162 0.253723 -0.066882
C94   C     C_R   0.766044 0.253910 0.642675 -0.085291
C95   C     C_R   0.763660 0.745032 0.146963 -0.081463
C96   C     C_R   0.266053 0.753935 0.642722 -0.083677
C97   C     C_R   0.129324 0.399531 0.516976 0.041613
C98   C     C_R   0.263598 0.244994 0.146982 -0.086565
C99   C     C_R   0.813963 0.279678 0.685527 0.022575
C100  C     C_R   0.809966 0.718065 0.191613 0.007465
C101  C     C_R   0.314009 0.779660 0.685611 0.024350
C102  C     C_R   0.309916 0.218037 0.191630 0.008195
C103  C     C_R   0.835466 0.281020 0.838665 -0.043663
C104  C     C_R   0.831242 0.716894 0.344914 -0.049358
C105  C     C_R   0.335492 0.780995 0.838763 -0.043065
C106  C     C_R   0.331199 0.216877 0.344927 -0.048294
C107  C     C_R   0.804187 0.261893 0.955323 0.006703
C108  C     C_R   0.629955 0.100487 0.016283 0.045062
C109  C     C_R   0.800593 0.736944 0.460507 0.008831
C110  C     C_R   0.304162 0.761900 0.955385 0.004228
C111  C     C_R   0.300546 0.236923 0.460522 0.008401
C112  C     C_R   0.256783 0.731755 0.910614 0.054487
C113  C     C_R   0.254481 0.267741 0.414130 0.055320
C114  C     C_R   0.756827 0.231729 0.910591 0.055518
C115  C     C_R   0.754538 0.767771 0.414115 0.058756
C116  C     C_R   0.825148 0.267427 0.111804 -0.010840
C117  C     C_R   0.820859 0.731380 0.617584 -0.013986
C118  C     C_R   0.325088 0.767443 0.111882 -0.009824
C119  C     C_R   0.629340 0.899539 0.516965 0.042943
C120  C     C_R   0.320819 0.231366 0.617597 -0.014640
C121  C     C_R   0.807843 0.232378 0.210231 0.018322
C122  C     C_R   0.804470 0.766821 0.714723 0.017031
C123  C     C_R   0.307727 0.732416 0.210324 0.026577
C124  C     C_R   0.304420 0.266802 0.714738 0.017348
C125  C     C_R   0.253368 0.709531 0.178506 0.037013
C126  C     C_R   0.250835 0.290231 0.681480 0.039140
C127  C     C_R   0.753483 0.209483 0.178478 0.039767
C128  C     C_R   0.750891 0.790258 0.681464 0.038829
C129  C     C_3   0.982294 0.247738 0.024949 -0.289841
C130  C     C_R   0.135578 0.680388 0.856699 -0.159631
C131  C     C_3   0.978012 0.750621 0.528013 -0.285635
C132  C     C_3   0.482497 0.747616 0.025589 -0.290845
C133  C     C_3   0.477982 0.250608 0.528033 -0.285750
C134  C     C_R   0.227704 0.706714 0.024317 0.009481
C135  C     C_R   0.225798 0.293222 0.526713 0.009354
C136  C     C_R   0.727774 0.206681 0.024319 0.010580
C137  C     C_R   0.725853 0.793250 0.526697 0.011671
C138  C     C_R   0.846782 0.213378 0.324115 -0.068678
C139  C     C_R   0.843730 0.785641 0.828563 -0.067928
C140  C     C_R   0.346635 0.713406 0.324231 -0.076439
H1    H     H_    0.049540 0.331326 0.642957 -0.022531
H2    H     H_    0.239120 0.559364 0.598610 0.082094
H3    H     H_    0.462194 0.180565 0.543098 0.045761
H4    H     H_    0.005802 0.294107 0.204589 0.005820
H5    H     H_    0.003724 0.704741 0.707653 0.002352
H6    H     H_    0.505944 0.794071 0.204869 0.022504
H7    H     H_    0.503693 0.204725 0.707669 0.002360
H8    H     H_    0.968925 0.247476 0.900194 0.168207
H9    H     H_    0.964662 0.750657 0.403198 0.167429
H10   H     H_    0.469462 0.747213 0.900633 0.170174
H11   H     H_    0.464640 0.250645 0.403214 0.167468
H12   H     H_    0.019571 0.224685 0.047510 0.157504
H13   H     H_    0.738476 0.940949 0.100032 0.084823
H14   H     H_    0.014400 0.774685 0.550314 0.161441
H15   H     H_    0.519732 0.724589 0.049276 0.163580
H16   H     H_    0.514362 0.274678 0.550355 0.161305
H17   H     H_    0.146449 0.476509 0.313723 -0.002703
H18   H     H_    0.146878 0.523627 0.812762 -0.001419
H19   H     H_    0.646459 0.976508 0.313722 -0.002719
H20   H     H_    0.646876 0.023630 0.812766 -0.001404
H21   H     H_    0.131297 0.456678 0.118186 0.078924
H22   H     H_    0.131816 0.543368 0.616900 0.077030
H23   H     H_    0.631301 0.956679 0.118184 0.079033
H24   H     H_    0.739109 0.059369 0.598594 0.083457
H25   H     H_    0.631810 0.043369 0.616904 0.077330
H26   H     H_    0.281959 0.492418 0.319950 0.050443
H27   H     H_    0.282243 0.508297 0.819845 0.052874
H28   H     H_    0.781967 0.992424 0.319911 0.052476
H29   H     H_    0.782243 0.008299 0.819807 0.053178
H30   H     H_    0.613393 0.496904 0.895269 0.400925
H31   H     H_    0.630576 0.547851 0.518504 0.345689
H32   H     H_    0.113387 0.996895 0.895305 0.402079
H33   H     H_    0.130594 0.047881 0.518635 0.347548
H34   H     H_    0.054231 0.218558 0.346943 0.321648
H35   H     H_    0.754264 0.448573 0.182368 0.052741
H36   H     H_    0.051542 0.780536 0.846335 0.323117
H37   H     H_    0.496855 0.685542 0.339955 0.363651
H38   H     H_    0.551515 0.280522 0.846317 0.323096
H39   H     H_    0.835048 0.447582 0.652554 0.400929
H40   H     H_    0.971438 0.558176 0.886443 0.267707
H41   H     H_    0.335072 0.947601 0.652558 0.400908
H42   H     H_    0.471440 0.058174 0.886439 0.267716
H43   H     H_    0.763712 0.568035 0.626614 -0.026701
H44   H     H_    0.254265 0.948574 0.182381 0.052712
H45   H     H_    0.263717 0.068043 0.626591 -0.027471
H46   H     H_    0.757624 0.387507 0.033858 0.012782
H47   H     H_    0.783082 0.592982 0.363575 0.053163
H48   H     H_    0.257622 0.887506 0.033873 0.012803
H49   H     H_    0.048089 0.669074 0.147388 -0.019144
H50   H     H_    0.283081 0.092975 0.363527 0.052670
H51   H     H_    0.781546 0.416742 0.865049 0.141721
H52   H     H_    0.709339 0.574783 0.353659 0.114674
H53   H     H_    0.281549 0.916740 0.865064 0.141695
H54   H     H_    0.209336 0.074779 0.353642 0.114245
H55   H     H_    0.706717 0.412735 0.907816 0.206516
H56   H     H_    0.766759 0.539706 0.285149 0.210605
H57   H     H_    0.206719 0.912734 0.907821 0.206563
H58   H     H_    0.266751 0.039695 0.285143 0.210787
H59   H     H_    0.184740 0.676329 0.298290 0.105209
H60   H     H_    0.549535 0.831267 0.641795 -0.032355
H61   H     H_    0.182769 0.324138 0.799614 0.104892
H62   H     H_    0.684888 0.176276 0.298370 0.105481
H63   H     H_    0.682836 0.824175 0.799610 0.103942
H64   H     H_    0.014887 0.305249 0.472458 -0.075879
H65   H     H_    0.014038 0.694493 0.975140 -0.079989
H66   H     H_    0.514589 0.805065 0.471940 -0.057398
H67   H     H_    0.514039 0.194489 0.975151 -0.079978
H68   H     H_    0.097642 0.261486 0.599338 -0.074180
H69   H     H_    0.096209 0.739103 0.102089 -0.072545
H70   H     H_    0.597468 0.761328 0.598026 -0.046060
H71   H     H_    0.548085 0.169076 0.147419 -0.019169
H72   H     H_    0.596198 0.239107 0.102093 -0.072746
H73   H     H_    0.251583 0.648337 0.508114 0.094537
H74   H     H_    0.249892 0.351591 0.010188 0.096828
H75   H     H_    0.751760 0.148326 0.508185 0.095314
H76   H     H_    0.749972 0.851629 0.010151 0.096788
H77   H     H_    0.944670 0.236082 0.089013 0.098800
H78   H     H_    0.940030 0.761154 0.592230 0.095770
H79   H     H_    0.444677 0.736053 0.089083 0.076668
H80   H     H_    0.439993 0.261132 0.592238 0.095869
H81   H     H_    0.209592 0.619908 0.137875 0.107834
H82   H     H_    0.204560 0.408611 0.243662 0.070500
H83   H     H_    0.208984 0.380235 0.638443 0.109449
H84   H     H_    0.709614 0.119881 0.137869 0.108829
H85   H     H_    0.709013 0.880262 0.638414 0.109775
H86   H     H_    0.132359 0.712199 0.799571 0.076404
H87   H     H_    0.131434 0.288196 0.299317 0.074155
H88   H     H_    0.632419 0.212191 0.799576 0.076402
H89   H     H_    0.631481 0.788205 0.299313 0.104008
H90   H     H_    0.892302 0.284233 0.396388 0.106176
H91   H     H_    0.886794 0.714584 0.903608 0.103171
H92   H     H_    0.392288 0.784239 0.396434 0.109100
H93   H     H_    0.205230 0.591738 0.741262 0.069723
H94   H     H_    0.386761 0.214579 0.903631 0.103308
H95   H     H_    0.840775 0.354512 0.972910 0.123681
H96   H     H_    0.832641 0.644175 0.482444 0.101481
H97   H     H_    0.340769 0.854505 0.972937 0.123460
H98   H     H_    0.332621 0.144165 0.482462 0.101013
H99   H     H_    0.064908 0.581444 0.839982 0.022817
H100  H     H_    0.062695 0.417920 0.343594 0.058329
H101  H     H_    0.564900 0.081457 0.840023 0.022789
H102  H     H_    0.562701 0.917918 0.343596 0.058377
H103  H     H_    0.215017 0.700403 0.702763 0.078392
H104  H     H_    0.704573 0.908614 0.243636 0.070653
H105  H     H_    0.214858 0.299737 0.205270 0.078349
H106  H     H_    0.715086 0.200338 0.702787 0.078528
H107  H     H_    0.714925 0.799779 0.205269 0.073989
H108  H     H_    0.059018 0.257373 0.771541 0.065163
H109  H     H_    0.057020 0.743215 0.273630 0.067675
H110  H     H_    0.559262 0.757464 0.771059 0.045963
H111  H     H_    0.557006 0.243220 0.273632 0.067630
H112  H     H_    0.250451 0.752629 0.522762 0.092042
H113  H     H_    0.248432 0.246468 0.026700 0.091025
H114  H     H_    0.750435 0.252588 0.522722 0.091715
H115  H     H_    0.705225 0.091741 0.741263 0.069735
H116  H     H_    0.748497 0.746510 0.026680 0.090889
H117  H     H_    0.835524 0.296811 0.597356 0.086048
H118  H     H_    0.830582 0.699790 0.104852 0.084836
H119  H     H_    0.335606 0.796769 0.597460 0.086413
H120  H     H_    0.330537 0.199765 0.104869 0.084807
H121  H     H_    0.877893 0.295582 0.866303 0.106683
H122  H     H_    0.872998 0.701645 0.373519 0.107554
H123  H     H_    0.377934 0.795536 0.866441 0.107666
H124  H     H_    0.372962 0.201638 0.373526 0.107506
H125  H     H_    0.893354 0.219453 0.324949 0.155931
H126  H     H_    0.238473 0.440943 0.100065 0.084439
H127  H     H_    0.890161 0.779164 0.830084 0.155849
H128  H     H_    0.393190 0.719488 0.325091 0.125756
H129  H     H_    0.390106 0.279159 0.830105 0.155725
H130  H     H_    0.857218 0.167884 0.515424 0.153348
H131  H     H_    0.854945 0.831187 0.019256 0.153702
H132  H     H_    0.357052 0.667868 0.515419 0.146884
H133  H     H_    0.354870 0.331164 0.019305 0.153446
H134  H     H_    0.964022 0.317299 0.038913 0.049070
H135  H     H_    0.962201 0.680581 0.543121 0.045630
H136  H     H_    0.464026 0.817157 0.039202 0.040976
O1    O     O_2   0.885280 0.436300 0.888260 -0.453746
O2    O     O_3   0.049477 0.693627 0.511578 -0.594283
O3    O     O_3   0.551598 0.806815 0.009265 -0.593655
O4    O     O_3   0.549471 0.193631 0.511626 -0.594296
O5    O     O_3   0.066770 0.522240 0.054830 -0.484216
O6    O     O_3   0.066770 0.477760 0.554830 -0.483634
O7    O     O_3   0.566770 0.022240 0.054830 -0.484226
O8    O     O_3   0.566770 0.977760 0.554830 -0.483699
O9    O     O_3   0.933180 0.477650 0.134870 -0.355235
O10   O     O_3   0.933180 0.522350 0.634870 -0.396995
O11   O     O_3   0.433180 0.977650 0.134870 -0.355239
O12   O     O_2   0.885280 0.563700 0.388260 -0.402024
O13   O     O_3   0.433180 0.022350 0.634870 -0.397039
O14   O     O_3   0.980100 0.397030 0.639600 -0.421982
O15   O     O_3   0.980100 0.602970 0.139600 -0.430589
O16   O     O_3   0.480100 0.897030 0.639600 -0.421085
O17   O     O_3   0.480100 0.102970 0.139600 -0.430554
O18   O     O_2   0.885075 0.361860 0.723790 -0.461696
O19   O     O_2   0.884493 0.636803 0.228744 -0.462187
O20   O     O_2   0.385095 0.861847 0.723867 -0.461350
O21   O     O_2   0.384492 0.136800 0.228755 -0.462381
O22   O     O_3   0.813411 0.482397 0.050583 -0.510198
O23   O     O_2   0.385280 0.936300 0.888260 -0.453683
O24   O     O_3   0.815777 0.516836 0.551049 -0.538883
O25   O     O_3   0.313411 0.982396 0.050592 -0.510217
O26   O     O_3   0.315776 0.016838 0.551039 -0.538852
O27   O     O_3   0.966799 0.305036 0.668324 -0.605205
O28   O     O_3   0.965071 0.694892 0.169482 -0.602213
O29   O     O_3   0.466845 0.805046 0.668403 -0.605402
O30   O     O_3   0.465062 0.194892 0.169479 -0.602168
O31   O     O_2   0.114450 0.435960 0.801790 -0.459814
O32   O     O_2   0.114450 0.564040 0.301790 -0.459972
O33   O     O_2   0.614450 0.935960 0.801790 -0.459714
O34   O     O_2   0.385280 0.063700 0.388260 -0.401911
O35   O     O_2   0.614450 0.064040 0.301790 -0.459906
O36   O     O_3   0.019500 0.396970 0.050670 -0.494990
O37   O     O_3   0.019500 0.603030 0.550670 -0.500753
O38   O     O_3   0.519500 0.896970 0.050670 -0.495655
O39   O     O_3   0.519500 0.103030 0.550670 -0.500802
O40   O     O_2   0.126425 0.371560 0.995590 -0.494731
O41   O     O_2   0.125403 0.630301 0.491518 -0.493391
O42   O     O_2   0.626418 0.871551 0.995556 -0.494910
O43   O     O_2   0.625401 0.130312 0.491512 -0.493220
O44   O     O_2   0.278172 0.437148 0.444658 -0.569475
O45   O     O_3   0.181246 0.486147 0.640642 -0.630752
O46   O     O_2   0.278552 0.563669 0.943340 -0.573658
O47   O     O_2   0.778192 0.937152 0.444614 -0.568874
O48   O     O_2   0.778558 0.063670 0.943312 -0.570426
O49   O     O_2   0.673720 0.514273 0.156197 -0.284228
O50   O     O_2   0.722836 0.536422 0.928029 -0.200889
O51   O     O_3   0.644300 0.474002 0.905022 -0.443649
O52   O     O_2   0.689875 0.477953 0.421150 -0.227195
O53   O     O_2   0.724338 0.473124 0.688119 -0.208772
O54   O     O_3   0.645820 0.532726 0.613951 -0.454847
O55   O     O_2   0.173711 0.014265 0.156201 -0.282542
O56   O     O_3   0.181030 0.514031 0.141133 -0.631162
O57   O     O_2   0.222837 0.036424 0.928060 -0.201234
O58   O     O_3   0.144305 0.974002 0.905000 -0.442847
O59   O     O_2   0.189852 0.977965 0.421185 -0.226593
O60   O     O_2   0.224352 0.973126 0.688125 -0.209000
O61   O     O_3   0.145833 0.032737 0.614050 -0.453137
O62   O     O_2   0.047497 0.171959 0.621867 -0.238658
O63   O     O_2   0.954279 0.211597 0.619918 -0.292729
O64   O     O_3   0.012932 0.214779 0.373150 -0.531594
O65   O     O_2   0.953046 0.788515 0.122368 -0.290182
O66   O     O_2   0.046460 0.828307 0.118937 -0.224724
O67   O     O_3   0.681243 0.986150 0.640646 -0.630827
O68   O     O_3   0.010442 0.784460 0.873666 -0.528573
O69   O     O_2   0.547215 0.672102 0.625500 -0.250478
O70   O     O_2   0.453791 0.711919 0.618801 -0.320311
O71   O     O_3   0.514137 0.714295 0.373967 -0.564125
O72   O     O_2   0.453029 0.288514 0.122370 -0.290164
O73   O     O_2   0.546441 0.328308 0.118898 -0.225395
O74   O     O_3   0.510416 0.284451 0.873656 -0.528719
O75   O     O_2   0.930118 0.455943 0.481440 -0.293138
O76   O     O_2   0.837441 0.472009 0.338970 -0.353029
O77   O     O_3   0.830808 0.423233 0.577930 -0.491106
O78   O     O_3   0.681032 0.014034 0.141131 -0.631132
O79   O     O_2   0.852778 0.565287 0.083677 -0.242069
O80   O     O_2   0.842659 0.525518 0.841785 -0.310024
O81   O     O_3   0.948578 0.540959 0.959066 -0.452195
O82   O     O_2   0.430150 0.955951 0.481388 -0.293234
O83   O     O_2   0.337450 0.972003 0.338991 -0.353095
O84   O     O_3   0.330859 0.923236 0.577992 -0.491090
O85   O     O_2   0.352780 0.065283 0.083679 -0.242191
O86   O     O_2   0.342664 0.025514 0.841786 -0.310068
O87   O     O_3   0.448582 0.040959 0.959069 -0.452163
O88   O     O_3   0.051589 0.306831 0.009223 -0.595307
P1    P     P_3+3 0.879620 0.451210 0.061380 1.233992
P2    P     P_3+3 0.073884 0.643204 0.589630 0.918471
P3    P     P_3+3 0.574273 0.857414 0.090065 0.922738
P4    P     P_3+3 0.573886 0.143206 0.589654 0.918500
P5    P     P_3+3 0.930030 0.645789 0.108397 1.016524
P6    P     P_3+3 0.931246 0.353578 0.605159 1.023659
P7    P     P_3+3 0.430026 0.145787 0.108401 1.016438
P8    P     P_3+3 0.431256 0.853571 0.605202 1.023506
P9    P     P_3+3 0.879620 0.548790 0.561380 1.191541
P10   P     P_3+3 0.379620 0.951210 0.061380 1.234028
P11   P     P_3+3 0.379620 0.048790 0.561380 1.191624
P12   P     P_3+3 0.120160 0.450850 0.628590 0.995007
P13   P     P_3+3 0.120160 0.549150 0.128590 0.993853
P14   P     P_3+3 0.620160 0.950850 0.628590 0.995140
P15   P     P_3+3 0.620160 0.049150 0.128590 0.993953
P16   P     P_3+3 0.074274 0.357418 0.090067 0.921434
S1    S     S_3+6 0.699655 0.497458 0.013558 0.038213
S2    S     S_3+6 0.879505 0.558274 0.932439 -0.035068
S3    S     S_3+6 0.371107 0.938175 0.431433 -0.071809
S4    S     S_3+6 0.379507 0.058270 0.932441 -0.035187
S5    S     S_3+6 0.705139 0.504866 0.563030 0.056580
S6    S     S_3+6 0.199655 0.997456 0.013564 0.039144
S7    S     S_3+6 0.205140 0.004873 0.563062 0.057272
S8    S     S_3+6 0.015577 0.212973 0.566868 -0.061322
S9    S     S_3+6 0.014026 0.787032 0.067299 -0.052043
S10   S     S_3+6 0.515383 0.712866 0.567617 -0.079539
S11   S     S_3+6 0.514007 0.287030 0.067288 -0.052428
S12   S     S_3+6 0.871080 0.438173 0.431417 -0.071858

loop_
_geom_bond_atom_site_label_1
_geom_bond_atom_site_label_2
_ccdc_geom_bond_type
O67   P14   S    
C73   H100  S    
O41   P2    D    
C73   C97   A    
C81   H4    S    
C85   S12   S    
O29   P8    S    
C53   S9    S    
C37   O29   S    
O34   P11   D    
Ba1   O14   S    
C52   C79   A    
C107  C114  A    
Ba2   O9    S    
Ba3   O16   S    
C59   H95   S    
C46   P16   S    
O56   P13   S    
O20   P8    D    
C43   O44   D    
C74   H101  S    
C29   H45   S    
Ba3   O23   S    
C5    C9    A    
O69   S10   D    
C132  H15   S    
C7    C11   A    
C86   P13   S    
C8    C12   A    
O40   P16   D    
C103  H121  S    
O86   S4    D    
C36   C53   S    
C92   H106  S    
C3    C124  A    
C90   H103  S    
O59   S7    D    
C91   C98   A    
C36   H49   S    
C94   H114  S    
C38   O30   S    
C28   S6    S    
C113  C135  A    
C100  H118  S    
C16   C128  A    
C114  C136  A    
Ba2   O15   S    
C13   C48   A    
C106  H124  S    
Ba1   O6    S    
O49   S1    D    
C11   C16   A    
C28   O25   S    
C32   H53   S    
O83   S3    D    
O33   P14   D    
C116  C121  A    
O18   P6    D    
O23   P10   D    
O45   P12   S    
C36   H65   S    
C104  C109  A    
O1    P1    D    
C101  H119  S    
C49   C76   A    
C13   H88   S    
C99   H117  S    
C104  H122  S    
C12   C125  A    
C4    H132  S    
C31   H52   S    
O19   P5    D    
C19   H23   S    
C9    C14   A    
H30   O51   S    
O6    P12   S    
O70   S10   D    
C42   H85   S    
O75   S12   D    
C14   C126  A    
C46   C73   A    
O66   S9    D    
C2    C69   A    
C1    H68   S    
C133  H16   S    
C83   C132  S    
C40   C97   A    
C67   C89   A    
Ba3   P10   S    
Ba4   O11   S    
Ba1   O1    S    
C22   H93   S    
C70   C136  S    
O25   P10   S    
C83   H136  S    
O54   S5    S    
C60   H96   S    
C18   H22   S    
C88   S3    S    
C47   O48   D    
C58   C89   A    
C27   H43   S    
C99   C103  A    
C96   H112  S    
C24   C71   A    
C7    C139  A    
C50   C77   A    
C76   C119  A    
O58   S6    S    
C122  C139  A    
C65   P9    S    
O27   P6    S    
O72   S11   D    
O57   S6    D    
C93   H107  S    
C91   C113  A    
C133  H80   S    
C25   H115  S    
C139  H127  S    
C28   C32   S    
C25   H24   S    
C140  H128  S    
C61   C66   A    
C20   O67   S    
C133  H11   S    
C55   C85   A    
Ba2   O12   S    
C118  C123  A    
C22   H2    S    
O84   S3    S    
C38   H71   S    
C71   C137  S    
C92   C94   A    
C33   H58   S    
C127  C136  A    
C122  C128  A    
C9    H74   S    
C27   S5    S    
C68   C134  S    
C63   P1    S    
C38   C75   S    
C109  C115  A    
C1    H108  S    
O53   S5    D    
C84   O4    S    
C17   O56   S    
C42   C71   A    
C40   H83   S    
O77   S12   S    
C26   O22   S    
C50   C55   A    
Ba4   O7    S    
O42   P3    D    
C26   C30   S    
C30   H46   S    
C72   H99   S    
C1    C34   S    
O78   P15   S    
C6    C10   A    
O52   S5    D    
C69   C135  S    
C60   C65   A    
C61   H97   S    
C41   C70   A    
C93   C115  A    
C123  C125  A    
C44   H27   S    
C121  C127  A    
C64   S10   S    
C90   C96   A    
C4    C8    A    
C60   C78   A    
C82   O2    S    
C87   S2    S    
C33   H54   S    
C2    C46   A    
C37   H60   S    
C105  C110  A    
O61   S7    S    
Ba2   O5    S    
C37   H66   S    
O62   S8    D    
C75   H72   S    
C53   H69   S    
O10   P9    S    
C84   H7    S    
C76   H102  S    
C19   O78   S    
C32   H57   S    
C50   H90   S    
Ba3   Ba4   S    
C25   C47   S    
C128  C137  A    
C101  C105  A    
O71   S10   S    
C31   H47   S    
C32   H48   S    
C103  C107  A    
O63   S8    D    
O26   P11   S    
C45   H28   S    
C110  C112  A    
C23   H13   S    
O21   P7    D    
Ba1   P1    S    
C130  H86   S    
C79   C118  S    
C53   H109  S    
H36   O68   S    
C82   C131  S    
C109  C117  A    
Ba1   O36   S    
C72   C86   A    
C52   H92   S    
C16   H63   S    
C29   O26   S    
C51   C56   A    
C35   C130  A    
O51   S1    S    
Ba4   P11   S    
C30   H51   S    
C54   C58   A    
O5    P13   S    
C129  H12   S    
C29   S7    S    
O7    P15   S    
C105  H123  S    
C35   P2    S    
Ba1   O5    S    
C56   P5    S    
C20   H20   S    
Ba3   O7    S    
C14   H61   S    
Ba3   O33   S    
C18   H18   S    
C126  C135  A    
C94   C99   A    
H41   O84   S    
C17   H21   S    
C6    C138  A    
Ba2   P9    S    
O8    P14   S    
C66   P10   S    
C20   C25   S    
C17   C21   S    
O4    P4    S    
H31   O54   S    
O13   P11   S    
C111  C113  A    
C83   H6    S    
C15   H62   S    
C129  H77   S    
C64   H70   S    
C21   C43   S    
C57   C88   A    
C22   C44   S    
C120  C124  A    
C95   C100  A    
Ba1   P12   S    
C81   H134  S    
O30   P7    S    
C5    H133  S    
Ba3   O8    S    
C129  H8    S    
C6    H130  S    
C48   C74   A    
O68   S9    S    
Ba4   O35   S    
C37   C64   S    
C39   C86   A    
O36   P16   S    
Ba3   O13   S    
O24   P9    S    
C90   C112  A    
C29   C33   S    
C49   P3    S    
C1    S8    S    
C75   S11   S    
O2    P2    S    
C132  H10   S    
C68   C130  A    
C62   C67   A    
C81   O88   S    
O85   S4    D    
C96   C101  A    
C27   C31   S    
C42   C119  A    
Ba4   O17   S    
H42   O87   S    
C8    H73   S    
C100  C104  A    
O55   S6    D    
C111  C120  A    
O22   P1    S    
O11   P10   S    
C66   C88   A    
C51   H91   S    
C124  C126  A    
C24   C49   A    
C98   H113  S    
O81   S2    S    
C89   S4    S    
C18   O45   S    
O74   S11   S    
C33   H50   S    
C138  H125  S    
O38   P3    S    
C23   H104  S    
C57   P8    S    
O32   P13   D    
C84   H3    S    
Ba1   O10   S    
C123  C140  A    
C40   C69   A    
O79   S2    D    
C83   O3    S    
C84   C133  S    
C97   P12   S    
C64   H110  S    
C18   C22   S    
O50   S1    D    
C52   C57   A    
C119  P14   S    
C74   C108  A    
C106  C111  A    
O73   S11   D    
C81   C129  S    
O3    P3    S    
O60   S7    D    
C39   C68   A    
H39   O77   S    
C91   H105  S    
C41   C108  A    
C77   C116  S    
C58   P7    S    
Ba4   O8    S    
C34   H64   S    
C59   C77   A    
C92   C114  A    
H32   O58   S    
C55   P6    S    
C27   O24   S    
H40   O81   S    
C61   C79   A    
O35   P15   D    
C21   H82   S    
C63   C85   A    
Ba1   Ba2   S    
Ba3   O38   S    
C47   H29   S    
H38   O74   S    
Ba4   P15   S    
C30   H55   S    
C125  C134  A    
C44   O46   D    
C26   H35   S    
C19   C23   S    
H37   O71   S    
C26   S1    S    
O76   S12   D    
C78   C117  S    
C21   H126  S    
C24   H89   S    
Ba2   O6    S    
O28   P5    S    
Ba1   O31   S    
C131  H14   S    
Ba2   O32   S    
C2    H87   S    
C35   C72   A    
C102  H120  S    
C93   C95   A    
C31   H56   S    
C19   H19   S    
C15   C127  A    
O82   S3    D    
C59   C63   A    
C17   H17   S    
C28   H44   S    
Ba2   P13   S    
O64   S8    S    
C45   O47   D    
C82   H5    S    
Ba4   O34   S    
C10   C15   A    
C62   H98   S    
O15   P5    S    
C107  C116  A    
C41   H84   S    
O14   P6    S    
O43   P4    D    
C34   H1    S    
C54   C80   A    
O87   S4    S    
H34   O64   S    
C121  C138  A    
Ba3   P14   S    
C36   O28   S    
C4    C140  A    
C82   H135  S    
O17   P7    S    
C51   C78   A    
C20   H25   S    
Ba4   O39   S    
C7    H131  S    
O39   P4    S    
C67   P11   S    
O16   P8    S    
O65   S9    D    
C13   C70   A    
C12   H59   S    
C112  C134  A    
H33   O61   S    
C43   H26   S    
C102  C106  A    
C56   C87   A    
C3    C5    A    
C131  H78   S    
O31   P12   D    
C108  P15   S    
C3    H129  S    
C80   C120  S    
O9    P1    S    
C131  H9    S    
Ba2   O37   S    
O12   P9    D    
C117  C122  A    
C65   C87   A    
C132  H79   S    
C95   H116  S    
C115  C137  A    
C98   C102  A    
C48   P4    S    
C10   H75   S    
O88   P16   S    
C62   C80   A    
C110  C118  A    
C23   C45   S    
O37   P2    S    
C75   H111  S    
O80   S2    D    
C34   O27   S    
C11   H76   S    
C54   H94   S    
C38   H67   S    
C39   H81   S    
