data_mof_unit_pretest_380.cif
_audit_creation_date              2012-12-11T15:28:34-0500
_audit_creation_method            fapswitch 2.2
_symmetry_space_group_name_H-M    P1
_symmetry_Int_Tables_number       1
_space_group_crystal_system       triclinic
_cell_length_a                    6.958617
_cell_length_b                    19.589622
_cell_length_c                    23.40244
_cell_angle_alpha                 96.106178
_cell_angle_beta                  91.053399
_cell_angle_gamma                 88.793345
_cell_volume                      3170.92186428

loop_
_atom_site_label
_atom_site_type_symbol
_atom_type_description
_atom_site_fract_x
_atom_site_fract_y
_atom_site_fract_z
_atom_type_partial_charge
O1    O     O_R   0.617180 0.809390 0.808140 -0.515436
O2    O     O_R   0.382820 0.190610 0.191860 -0.522416
O3    O     O_R   0.293300 0.672410 0.795490 -0.540776
O4    O     O_R   0.706700 0.327590 0.204510 -0.539663
O5    O     O_R   0.117220 0.690610 0.691850 -0.520348
O6    O     O_R   0.882780 0.309390 0.308150 -0.528943
C1    C     C_R   0.464684 0.647966 0.805469 0.693989
C2    C     C_R   0.535316 0.352033 0.194530 0.697380
O7    O     O_R   0.287840 0.807750 0.814460 -0.530636
O8    O     O_R   0.712160 0.192250 0.185540 -0.521668
O9    O     O_R   0.111720 0.826910 0.710960 -0.509695
O10   O     O_R   0.888280 0.173090 0.289040 -0.529245
C3    C     C_R   0.456500 0.830787 0.833156 0.734795
C4    C     C_R   0.543516 0.169214 0.166842 0.729817
O11   O     O_R   0.622680 0.673080 0.789040 -0.541990
O12   O     O_R   0.377320 0.326920 0.210960 -0.541234
O13   O     O_3   0.448820 0.756130 0.716020 -0.345210
O14   O     O_3   0.551180 0.243870 0.283980 -0.355072
V1    V     V_3+5 0.176220 0.748860 0.756300 1.517495
V2    V     V_3+5 0.823780 0.251140 0.243700 1.498849
O15   O     O_R   0.781670 0.827580 0.704500 -0.524667
O16   O     O_R   0.218330 0.172420 0.295500 -0.515541
C5    C     C_R   0.948154 0.851932 0.694235 0.891416
C6    C     C_R   0.051328 0.148239 0.305853 0.901259
O17   O     O_R   0.787130 0.692240 0.685530 -0.531815
O18   O     O_R   0.212870 0.307760 0.314470 -0.523602
C7    C     C_R   0.956123 0.669259 0.666783 0.724781
C8    C     C_R   0.043885 0.330736 0.333220 0.732751
V3    V     V_3+5 0.675510 0.751130 0.743690 1.530261
V4    V     V_3+5 0.324490 0.248870 0.256310 1.525734
O19   O     O_3   0.952780 0.743870 0.783980 -0.375060
O20   O     O_3   0.047220 0.256130 0.216020 -0.372056
C9    C     C_1   0.966698 0.617204 0.614726 -0.163111
C10   C     C_1   0.033338 0.382778 0.385286 -0.158146
C11   C     C_1   0.978267 0.573680 0.571915 0.037135
C12   C     C_1   0.021794 0.426293 0.428103 0.039339
C13   C     C_1   0.993474 0.521854 0.521321 0.037115
C14   C     C_1   0.006602 0.478114 0.478700 0.037714
C15   C     C_R   0.946611 0.914514 0.663712 -0.290314
C16   C     C_R   0.044501 0.085694 0.336072 -0.297327
C17   C     C_R   0.856787 0.034738 0.663097 0.648029
C18   C     C_R   0.005147 0.962540 0.330950 0.645672
C19   C     C_R   0.869352 0.975775 0.691495 0.247380
C20   C     C_R   0.017020 0.022117 0.303638 0.239248
C21   C     C_R   0.008496 0.912580 0.606200 0.272446
C22   C     C_R   0.056005 0.089424 0.396784 0.267844
C23   C     C_R   0.970652 0.970139 0.574156 -0.052251
C24   C     C_R   0.017621 0.030023 0.425445 -0.053131
C25   C     C_R   0.905942 0.032500 0.604997 -0.131223
C26   C     C_R   0.005265 0.965858 0.391215 -0.133469
C27   C     C_R   0.989653 0.968587 0.512869 0.121337
C28   C     C_R   0.987242 0.031261 0.486213 0.120275
C29   C     C_R   0.926172 0.091592 0.519428 -0.107345
C30   C     C_R   0.981706 0.906610 0.476640 -0.114537
C31   C     C_R   0.884543 0.091988 0.577198 -0.065335
C32   C     C_R   0.987116 0.905393 0.417293 -0.074410
H1    H     H_    0.831654 0.139525 0.599999 0.207140
H2    H     H_    0.973742 0.856280 0.391605 0.205909
H3    H     H_    0.890220 0.137929 0.500263 0.192452
H4    H     H_    0.951210 0.858647 0.492916 0.190025
C33   C     C_R   0.484245 0.585631 0.835477 -0.107941
C34   C     C_R   0.515750 0.414369 0.164522 -0.108490
C35   C     C_R   0.585575 0.466296 0.832364 0.402886
C36   C     C_R   0.414354 0.533697 0.167632 0.403498
C37   C     C_R   0.549088 0.524932 0.804819 -0.190168
C38   C     C_R   0.450855 0.475063 0.195177 -0.190873
C39   C     C_R   0.456209 0.587915 0.894882 -0.211602
C40   C     C_R   0.543819 0.412089 0.105119 -0.211219
C41   C     C_R   0.496329 0.529480 0.924980 0.044622
C42   C     C_R   0.503671 0.470520 0.075020 0.044375
C43   C     C_R   0.561348 0.468072 0.892408 0.032876
C44   C     C_R   0.438616 0.531924 0.107589 0.033180
C45   C     C_R   0.477154 0.530227 0.986196 0.082303
C46   C     C_R   0.522846 0.469774 0.013804 0.082422
C47   C     C_R   0.585407 0.410443 0.979238 -0.195269
C48   C     C_R   0.414572 0.589555 0.020760 -0.195073
C49   C     C_R   0.603546 0.409703 0.920277 -0.117264
C50   C     C_R   0.396410 0.590293 0.079720 -0.116367
H5    H     H_    0.652986 0.362273 0.896705 0.200487
H6    H     H_    0.346944 0.637720 0.103292 0.200798
H7    H     H_    0.591201 0.363407 0.083802 0.109103
H8    H     H_    0.408877 0.636601 0.916202 0.108887
H9    H     H_    0.426959 0.476650 0.240951 0.148062
H10   H     H_    0.572952 0.523341 0.759043 0.148750
H11   H     H_    0.622762 0.362991 0.996343 0.132140
H12   H     H_    0.377199 0.637005 0.003654 0.132301
C51   C     C_1   0.467236 0.882871 0.885196 -0.152804
C52   C     C_1   0.532850 0.117134 0.114797 -0.152169
C53   C     C_1   0.478716 0.926384 0.928020 0.052708
C54   C     C_1   0.521444 0.073623 0.071969 0.054387
C55   C     C_1   0.493667 0.978160 0.978659 0.045716
C56   C     C_1   0.506537 0.021849 0.021327 0.046739
Cl1   Cl    Cl    0.152790 0.165220 0.433402 -0.653475
Cl2   Cl    Cl    0.159830 0.842619 0.580242 -0.650559
Cl3   Cl    Cl    0.004293 0.015374 0.227840 -0.542040
Cl4   Cl    Cl    0.794425 0.980953 0.763548 -0.541283
F1    F     F_    0.789815 0.094127 0.691985 -0.597520
F2    F     F_    0.987451 0.901206 0.298338 -0.598018
Cl5   Cl    Cl    0.666466 0.392097 0.789433 -0.566080
Cl6   Cl    Cl    0.333389 0.607888 0.210559 -0.569936

loop_
_geom_bond_atom_site_label_1
_geom_bond_atom_site_label_2
_ccdc_geom_bond_type
C35   C37   A    
O13   V3    S    
C45   C46   A    
O4    C2    A    
V1    O19   S    
C29   H3    S    
C23   C25   A    
C30   H4    S    
C7    C9    S    
C16   C22   A    
O9    V1    S    
C40   H7    S    
C11   C13   S    
C48   C50   A    
O3    C1    A    
C18   F2    S    
C9    C11   T    
C50   H6    S    
O12   V4    S    
C21   C23   A    
O9    C5    A    
C41   C43   A    
O7    C3    A    
C1    C33   S    
C17   F1    S    
C44   C50   A    
C6    C16   S    
C38   H9    S    
O5    C7    A    
O7    V1    S    
O6    C8    A    
O8    V2    S    
C42   C46   A    
C35   Cl5   S    
O3    V1    S    
O14   V4    S    
C53   C55   S    
C16   C20   A    
C10   C12   T    
C15   C21   A    
C49   H5    S    
C8    C10   S    
C2    O12   A    
C17   C19   A    
O10   V2    S    
C18   C20   A    
C21   Cl2   S    
C17   C25   A    
C47   H11   S    
O11   V3    S    
C22   C24   A    
C29   C31   A    
O17   V3    S    
C30   C32   A    
C46   C47   A    
C34   C38   A    
C27   C28   A    
O8    C4    A    
C55   C56   T    
C37   H10   S    
C15   C19   A    
C1    O11   A    
C25   C31   A    
O15   V3    S    
C26   C32   A    
C39   C41   A    
C36   C38   A    
C13   C14   T    
C33   C39   A    
C54   C56   S    
C36   Cl6   S    
C3    C51   S    
O1    V3    S    
C19   Cl4   S    
C41   C45   A    
C47   C49   A    
C18   C26   A    
C52   C54   T    
O18   V4    S    
C31   H1    S    
C45   C48   A    
O16   C6    A    
O1    C3    A    
C12   C14   S    
C48   H12   S    
C43   C49   A    
C28   C29   A    
V2    O20   S    
O16   V4    S    
C35   C43   A    
C23   C27   A    
O5    V1    S    
O17   C7    A    
O6    V2    S    
O10   C6    A    
O18   C8    A    
C34   C40   A    
O2    V4    S    
C27   C30   A    
O15   C5    A    
C4    C52   S    
V3    O19   S    
C20   Cl3   S    
V4    O20   S    
C22   Cl1   S    
C5    C15   S    
C24   C26   A    
O13   V1    S    
C32   H2    S    
O14   V2    S    
C36   C44   A    
O2    C4    A    
O4    V2    S    
C33   C37   A    
C24   C28   A    
C39   H8    S    
C40   C42   A    
C51   C53   T    
C42   C44   A    
C2    C34   S    
