data_mof_unit_pretest_1713.cif
_audit_creation_date              2012-12-10T16:48:07-0500
_audit_creation_method            fapswitch 2.2
_symmetry_space_group_name_H-M    P1
_symmetry_Int_Tables_number       1
_space_group_crystal_system       triclinic
_cell_length_a                    18.737391
_cell_length_b                    18.865605
_cell_length_c                    18.618026
_cell_angle_alpha                 108.994578
_cell_angle_beta                  108.845054
_cell_angle_gamma                 109.405084
_cell_volume                      5137.99740427

loop_
_atom_site_label
_atom_site_type_symbol
_atom_type_description
_atom_site_fract_x
_atom_site_fract_y
_atom_site_fract_z
_atom_type_partial_charge
C1    C     C_R   0.384949 0.881950 0.004942 0.930731
C2    C     C_R   0.002345 0.382925 0.880992 0.954540
C3    C     C_R   0.118505 0.614544 0.994344 0.908354
C4    C     C_R   0.881495 0.385461 0.005659 0.908306
C5    C     C_2   0.979618 0.311773 0.734983 -0.161704
C6    C     C_2   0.020364 0.688219 0.265004 -0.161727
C7    C     C_2   0.011255 0.324674 0.816373 -0.389630
C8    C     C_2   0.988754 0.675335 0.183627 -0.389641
C9    C     C_2   0.989648 0.252163 0.670539 0.225906
C10   C     C_2   0.010325 0.747825 0.329442 0.225855
C11   C     C_2   0.986281 0.181264 0.674858 -0.343139
C12   C     C_R   0.615054 0.118051 0.995059 0.930744
C13   C     C_2   0.013724 0.818734 0.325149 -0.343075
C14   C     C_R   0.621572 0.002102 0.118631 0.934065
C15   C     C_R   0.378423 0.997893 0.881368 0.934110
C16   C     C_2   0.825930 0.078455 0.317768 -0.163797
C17   C     C_2   0.174106 0.921536 0.682177 -0.163725
C18   C     C_2   0.813405 0.007116 0.323852 -0.334750
C19   C     C_2   0.186597 0.992910 0.676175 -0.334671
C20   C     C_2   0.753568 0.078501 0.256494 -0.150866
C21   C     C_2   0.246474 0.921500 0.743456 -0.150843
C22   C     C_2   0.694325 0.006529 0.181520 -0.335981
C23   C     C_2   0.328708 0.820264 0.018324 -0.333715
C24   C     C_2   0.305648 0.993446 0.818483 -0.336032
C25   C     C_2   0.263295 0.684243 0.012953 -0.169563
C26   C     C_2   0.736695 0.315753 0.987035 -0.169581
C27   C     C_2   0.179713 0.664148 0.974014 0.030753
C28   C     C_2   0.820290 0.335879 0.026009 0.030781
C29   C     C_2   0.328103 0.746108 0.005199 -0.164542
C30   C     C_2   0.671903 0.253905 0.994819 -0.164578
C31   C     C_3   0.997742 0.270046 0.599347 -0.853156
C32   C     C_3   0.002184 0.729930 0.400589 -0.853366
C33   C     C_3   0.142582 0.683341 0.901285 -0.861516
C34   C     C_2   0.671278 0.179733 0.981658 -0.333773
C35   C     C_3   0.857447 0.316763 0.098809 -0.861405
C36   C     C_R   0.996325 0.118330 0.616145 0.942025
C37   C     C_R   0.003674 0.881669 0.383855 0.942018
C38   C     C_R   0.880924 0.002406 0.383195 0.932466
C39   C     C_R   0.119076 0.997598 0.616809 0.932439
C40   C     C_R   0.997658 0.617078 0.119008 0.954538
H1    H     H_    0.887732 0.137261 0.359823 0.163307
H2    H     H_    0.249603 0.862281 0.728337 0.165087
H3    H     H_    0.702968 0.950380 0.162108 0.156096
H4    H     H_    0.296932 0.049550 0.837933 0.156117
H5    H     H_    0.285599 0.659426 0.055519 0.150577
H6    H     H_    0.714364 0.340511 0.944404 0.150592
H7    H     H_    0.374666 0.731654 0.990176 0.166357
H8    H     H_    0.625402 0.268406 0.009938 0.166416
H9    H     H_    0.287699 0.837225 0.042305 0.171837
H10   H     H_    0.712248 0.162751 0.957619 0.171846
H11   H     H_    0.948927 0.347368 0.716328 0.170963
H12   H     H_    0.112338 0.862687 0.640031 0.163225
H13   H     H_    0.051028 0.652609 0.283646 0.170975
H14   H     H_    0.990703 0.327184 0.603328 0.219596
H15   H     H_    0.062354 0.283406 0.605492 0.254192
H16   H     H_    0.946510 0.214168 0.534837 0.227235
H17   H     H_    0.009219 0.672797 0.396598 0.219636
H18   H     H_    0.053380 0.785791 0.465099 0.227251
H19   H     H_    0.937581 0.716576 0.394420 0.254253
H20   H     H_    0.083193 0.624631 0.845152 0.240565
H21   H     H_    0.125755 0.734334 0.924718 0.234181
H22   H     H_    0.186544 0.702779 0.875003 0.254584
H23   H     H_    0.049181 0.295614 0.837676 0.157391
H24   H     H_    0.916713 0.375559 0.154994 0.240470
H25   H     H_    0.813427 0.297166 0.124978 0.254560
H26   H     H_    0.874489 0.265917 0.075495 0.234214
H27   H     H_    0.950852 0.704412 0.162332 0.157411
H28   H     H_    0.968327 0.164837 0.719561 0.129533
H29   H     H_    0.031717 0.835172 0.280475 0.129545
H30   H     H_    0.749133 0.951693 0.289041 0.158525
H31   H     H_    0.250849 0.048387 0.711069 0.158479
H32   H     H_    0.750512 0.137746 0.271552 0.165058
O1    O     O_R   0.409560 0.858470 0.948950 -0.619488
O2    O     O_R   0.590460 0.039390 0.948920 -0.621935
O3    O     O_R   0.590480 0.948940 0.039400 -0.627107
O4    O     O_R   0.409520 0.051060 0.960600 -0.627116
O5    O     O_R   0.590470 0.051080 0.141520 -0.615838
O6    O     O_R   0.409530 0.948920 0.858480 -0.615857
O7    O     O_R   0.051050 0.141530 0.590440 -0.614436
O8    O     O_R   0.948950 0.858470 0.409560 -0.614435
O9    O     O_R   0.948920 0.039390 0.590460 -0.623778
O10   O     O_R   0.051080 0.960610 0.409540 -0.623778
O11   O     O_R   0.960590 0.051060 0.409530 -0.618968
O12   O     O_R   0.590440 0.141530 0.051050 -0.619502
O13   O     O_R   0.039410 0.948940 0.590470 -0.618951
O14   O     O_R   0.858460 0.948920 0.409550 -0.623346
O15   O     O_R   0.141540 0.051080 0.590450 -0.623337
O16   O     O_R   0.051060 0.590470 0.141520 -0.620163
O17   O     O_R   0.948940 0.409530 0.858480 -0.620163
O18   O     O_R   0.948910 0.590450 0.039380 -0.623440
O19   O     O_R   0.051090 0.409550 0.960620 -0.623451
O20   O     O_R   0.141530 0.590470 0.051060 -0.636609
O21   O     O_R   0.858470 0.409530 0.948940 -0.636606
O22   O     O_R   0.039370 0.590450 0.948920 -0.616097
O23   O     O_R   0.960630 0.409550 0.051080 -0.616058
O24   O     O_R   0.409540 0.960610 0.051080 -0.621944
Zn1   Zn    Zn3+2 0.500010 0.931800 0.931810 0.950400
Zn2   Zn    Zn3+2 0.499990 0.068200 0.068190 0.950398
Zn3   Zn    Zn3+2 0.068190 0.068200 0.499990 0.949266
Zn4   Zn    Zn3+2 0.931810 0.931800 0.500010 0.949276
Zn5   Zn    Zn3+2 0.068210 0.500010 0.068200 0.945069
Zn6   Zn    Zn3+2 0.931790 0.499990 0.931800 0.945064

loop_
_geom_bond_atom_site_label_1
_geom_bond_atom_site_label_2
_ccdc_geom_bond_type
C18   H30   S    
C12   O2    A    
O17   Zn6   S    
O10   Zn3   S    
C19   H31   S    
C2    C7    S    
C39   O15   A    
O16   Zn5   S    
C27   C33   S    
O1    Zn1   S    
C38   O14   A    
C23   C29   D    
O7    Zn3   S    
C11   C36   S    
C38   O11   A    
C23   H9    S    
C15   O6    A    
C35   H25   S    
O4    Zn2   S    
O3    Zn1   S    
C12   O12   A    
C14   O5    A    
O18   Zn6   S    
C28   C35   S    
C33   H22   S    
O24   Zn2   S    
C35   H24   S    
C32   H18   S    
C31   H16   S    
O14   Zn4   S    
C13   C37   S    
C15   O4    A    
O11   Zn3   S    
O8    Zn4   S    
C32   H17   S    
O19   Zn5   S    
C40   O18   A    
C17   H12   S    
C4    C28   S    
O2    Zn1   S    
O15   Zn3   S    
C25   C29   S    
C37   O8    A    
C34   H10   S    
C30   C34   D    
C5    C7    D    
C9    C31   S    
C6    C8    D    
C35   H26   S    
C36   O7    A    
C17   C21   S    
C21   H2    S    
C3    O20   A    
C2    O17   A    
C5    C9    S    
C4    O23   A    
C22   H3    S    
C36   O9    A    
C16   C20   S    
O6    Zn1   S    
O5    Zn2   S    
C9    C11   D    
C7    H23   S    
C19   C39   S    
O20   Zn5   S    
C33   H21   S    
C15   C24   S    
C29   H7    S    
C26   C30   S    
C33   H20   S    
C24   H4    S    
C37   O10   A    
C39   O13   A    
C6    H13   S    
C12   C34   S    
C25   H5    S    
C11   H28   S    
C30   H8    S    
C5    H11   S    
C20   C22   D    
C10   C13   D    
O21   Zn6   S    
C6    C10   S    
C1    C23   S    
O9    Zn4   S    
C25   C27   D    
C26   C28   D    
O12   Zn2   S    
C14   O3    A    
C40   O16   A    
C3    C27   S    
C18   C38   S    
C1    O1    A    
O13   Zn4   S    
C14   C22   S    
C13   H29   S    
C1    O24   A    
C17   C19   D    
C3    O22   A    
C31   H14   S    
C2    O19   A    
C26   H6    S    
C4    O21   A    
C10   C32   S    
O22   Zn6   S    
C8    H27   S    
C16   C18   D    
C21   C24   D    
C20   H32   S    
C8    C40   S    
C32   H19   S    
C31   H15   S    
C16   H1    S    
O23   Zn5   S    
