data_mof_unit_pretest_1036.cif
_audit_creation_date              2012-12-10T17:51:32-0500
_audit_creation_method            fapswitch 2.2
_symmetry_space_group_name_H-M    P1
_symmetry_Int_Tables_number       1
_space_group_crystal_system       triclinic
_cell_length_a                    9.874317
_cell_length_b                    10.727955
_cell_length_c                    16.569877
_cell_angle_alpha                 91.696292
_cell_angle_beta                  85.064607
_cell_angle_gamma                 89.84819
_cell_volume                      1747.96935324

loop_
_atom_site_label
_atom_site_type_symbol
_atom_type_description
_atom_site_fract_x
_atom_site_fract_y
_atom_site_fract_z
_atom_type_partial_charge
C1    C     C_R   0.499755 0.739711 0.493592 0.866271
C2    C     C_R   0.530454 0.551751 0.264215 -0.101995
C3    C     C_R   0.247674 0.886499 0.466960 -0.152150
C4    C     C_R   0.480967 0.503086 0.653867 0.842904
C5    C     C_R   0.123545 0.946199 0.488069 -0.129392
C6    C     C_R   0.120294 0.058941 0.531615 -0.159404
C7    C     C_R   0.241775 0.117448 0.546815 -0.158186
C8    C     C_R   0.368799 0.062902 0.518481 0.099618
C9    C     C_R   0.370921 0.939006 0.490143 0.096459
C10   C     C_R   0.496315 0.873157 0.487757 -0.121135
C11   C     C_R   0.618575 0.936355 0.494208 -0.215006
C12   C     C_R   0.343012 0.559192 0.782326 -0.208386
C13   C     C_R   0.617799 0.063249 0.504879 -0.212842
C14   C     C_R   0.494149 0.127553 0.515278 -0.134391
C15   C     C_R   0.844357 0.665947 0.605162 -0.174440
C16   C     C_R   0.498354 0.260627 0.507340 0.893609
C17   C     C_R   0.907414 0.747479 0.656765 -0.211228
C18   C     C_R   0.047480 0.746674 0.657052 -0.189312
C19   C     C_R   0.125238 0.664539 0.605593 -0.163364
C20   C     C_R   0.064875 0.581520 0.551865 0.152989
C21   C     C_R   0.920053 0.581820 0.551735 0.166129
C22   C     C_R   0.935717 0.421405 0.450772 -0.117366
C23   C     C_R   0.444910 0.696728 0.170663 0.040757
C24   C     C_R   0.079086 0.421516 0.450732 -0.118732
C25   C     C_R   0.519016 0.505859 0.346555 0.880572
C26   C     C_R   0.469301 0.527660 0.741224 -0.035936
C27   C     C_R   0.587287 0.533548 0.782416 -0.213700
C28   C     C_R   0.580024 0.574039 0.862796 -0.148893
C29   C     C_R   0.454521 0.610423 0.903129 0.195261
C30   C     C_R   0.335825 0.599982 0.863047 -0.169979
C31   C     C_1   0.744542 0.432540 0.224864 0.172322
C32   C     C_1   0.344510 0.788566 0.153988 0.148875
C33   C     C_R   0.434249 0.640758 0.245434 -0.259970
C34   C     C_R   0.642499 0.522780 0.208243 -0.003396
C35   C     C_R   0.652504 0.578417 0.133008 -0.211985
C36   C     C_R   0.552212 0.661958 0.113083 0.123856
C37   C     C_2   0.443026 0.644580 0.989600 -0.212432
C38   C     C_2   0.548262 0.688635 0.027460 -0.223420
H1    H     H_    0.685791 0.508633 0.752295 0.161711
H2    H     H_    0.736480 0.671625 0.609456 0.209314
H3    H     H_    0.846968 0.811241 0.697073 0.154715
H4    H     H_    0.351535 0.668471 0.289770 0.160013
H5    H     H_    0.096379 0.809867 0.697500 0.154630
H6    H     H_    0.231950 0.668854 0.609906 0.208411
H7    H     H_    0.139186 0.357374 0.410625 0.162539
H8    H     H_    0.642382 0.714849 0.993650 0.150262
H9    H     H_    0.237818 0.624242 0.894107 0.131396
H10   H     H_    0.250426 0.555345 0.751771 0.157308
H11   H     H_    0.350547 0.616679 0.024778 0.160161
H12   H     H_    0.734248 0.550996 0.087928 0.139423
H13   H     H_    0.672602 0.573923 0.893240 0.125444
H14   H     H_    0.715505 0.887993 0.490898 0.172083
H15   H     H_    0.245318 0.800953 0.431048 0.161395
H16   H     H_    0.029783 0.903408 0.472340 0.141251
H17   H     H_    0.023865 0.102800 0.551649 0.136716
H18   H     H_    0.234723 0.204124 0.581931 0.162577
H19   H     H_    0.714546 0.110831 0.504364 0.168740
H20   H     H_    0.887584 0.357157 0.410746 0.162862
N1    N     N_R   0.857140 0.501200 0.500750 -0.122031
N2    N     N_R   0.142740 0.501280 0.500770 -0.127445
N3    N     N_1   0.826331 0.360229 0.238101 -0.214557
N4    N     N_1   0.264084 0.862116 0.140658 -0.200157
O1    O     O_R   0.385310 0.683220 0.500000 -0.651693
O2    O     O_R   0.614640 0.683250 0.500010 -0.636720
O3    O     O_R   0.371780 0.500010 0.615800 -0.640073
O4    O     O_R   0.601110 0.500030 0.615800 -0.634867
O5    O     O_R   0.385360 0.316750 0.499990 -0.621477
O6    O     O_R   0.614690 0.316780 0.500000 -0.615023
O7    O     O_R   0.398890 0.499970 0.384200 -0.612969
O8    O     O_R   0.628220 0.499990 0.384200 -0.598060
Zn1   Zn    Zn3+2 0.346870 0.499980 0.499990 0.921776
Zn2   Zn    Zn3+2 0.653130 0.500020 0.500010 0.939763

loop_
_geom_bond_atom_site_label_1
_geom_bond_atom_site_label_2
_ccdc_geom_bond_type
C22   H20   S    
C4    C26   S    
C6    C7    A    
C3    C9    A    
C30   H9    S    
C20   N2    A    
C37   H11   S    
C9    C10   A    
N1    Zn2   S    
C11   H14   S    
C35   C36   A    
C12   H10   S    
C6    H17   S    
O6    Zn2   S    
C23   C32   S    
C2    C34   A    
C35   H12   S    
C36   C38   S    
C17   C18   A    
C31   C34   S    
C32   N4    T    
C7    C8    A    
C16   O5    A    
O3    Zn1   S    
C13   C14   A    
C20   C21   A    
C4    O4    A    
C3    H15   S    
C26   C27   A    
C29   C30   A    
C15   C21   A    
C7    H18   S    
C16   O6    A    
C33   H4    S    
C1    O1    A    
C2    C33   A    
C27   C28   A    
C28   C29   A    
C37   C38   D    
O1    Zn1   S    
C21   N1    A    
C2    C25   S    
O5    Zn1   S    
O2    Zn2   S    
C5    C6    A    
C28   H13   S    
C14   C16   S    
C15   H2    S    
C38   H8    S    
C17   H3    S    
C13   H19   S    
C10   C11   A    
C24   H7    S    
C27   H1    S    
C24   N2    A    
C23   C36   A    
C1    O2    A    
C3    C5    A    
C5    H16   S    
C11   C13   A    
C25   O7    A    
C19   H6    S    
O7    Zn1   S    
C34   C35   A    
C22   C24   A    
C29   C37   S    
C22   N1    A    
C15   C17   A    
C31   N3    T    
C4    O3    A    
C18   C19   A    
O8    Zn2   S    
C25   O8    A    
C8    C14   A    
N2    Zn1   S    
C12   C30   A    
C18   H5    S    
O4    Zn2   S    
C1    C10   S    
C19   C20   A    
C12   C26   A    
C8    C9    A    
C23   C33   A    
