data_mof_unit_pretest_1380.cif
_audit_creation_date              2012-12-11T15:29:38-0500
_audit_creation_method            fapswitch 2.2
_symmetry_space_group_name_H-M    P1
_symmetry_Int_Tables_number       1
_space_group_crystal_system       triclinic
_cell_length_a                    21.537235
_cell_length_b                    7.492662
_cell_length_c                    14.956837
_cell_angle_alpha                 90.001549
_cell_angle_beta                  72.596574
_cell_angle_gamma                 90.000155
_cell_volume                      2303.11422153

loop_
_atom_site_label
_atom_site_type_symbol
_atom_type_description
_atom_site_fract_x
_atom_site_fract_y
_atom_site_fract_z
_atom_type_partial_charge
O1    O     O_R   0.464160 0.506670 0.130070 -0.529397
O2    O     O_R   0.535840 0.006670 0.869930 -0.529420
O3    O     O_R   0.589710 0.179080 0.006710 -0.549434
O4    O     O_R   0.410290 0.679080 0.993290 -0.549413
C1    C     C_R   0.615333 0.345363 0.002416 0.693043
C2    C     C_R   0.384668 0.845363 0.997578 0.693189
O5    O     O_R   0.467940 0.177220 0.138010 -0.534343
O6    O     O_R   0.532060 0.677220 0.861990 -0.534363
O7    O     O_R   0.413200 0.002810 0.002170 -0.539483
O8    O     O_R   0.586800 0.502810 0.997830 -0.539485
C3    C     C_R   0.455402 0.344559 0.173085 0.668647
C4    C     C_R   0.544598 0.844556 0.826915 0.668598
O9    O     O_3   0.482180 0.337850 0.955280 -0.383018
O10   O     O_3   0.517820 0.837850 0.044720 -0.383008
V1    V     V_3+5 0.503310 0.064600 0.008300 1.465386
V2    V     V_3+5 0.496690 0.564600 0.991700 1.465391
C5    C     C_R   0.575455 0.843252 0.725634 -0.029378
C6    C     C_R   0.424552 0.343253 0.274370 -0.029408
C7    C     C_R   0.934541 0.867160 0.276552 -0.035258
C8    C     C_R   0.065456 0.367168 0.723448 -0.035279
C9    C     C_R   0.573477 0.724916 0.576487 -0.147826
C10   C     C_R   0.426511 0.224704 0.423482 -0.147816
C11   C     C_R   0.540860 0.774789 0.667928 -0.151626
C12   C     C_R   0.459134 0.274632 0.332054 -0.151585
C13   C     C_R   0.642939 0.867773 0.690491 -0.165784
C14   C     C_R   0.357074 0.367887 0.309528 -0.165834
C15   C     C_R   0.677651 0.816438 0.597770 0.092245
C16   C     C_R   0.322353 0.316478 0.402233 0.092228
C17   C     C_R   0.641349 0.740572 0.541919 0.112586
C18   C     C_R   0.358642 0.240457 0.458058 0.112616
C19   C     C_R   0.746888 0.834415 0.558822 0.015641
C20   C     C_R   0.253119 0.334517 0.441185 0.015648
C21   C     C_R   0.777235 0.781500 0.464491 0.040333
C22   C     C_R   0.222760 0.281514 0.535499 0.040353
C23   C     C_R   0.740139 0.686844 0.417199 -0.088514
C24   C     C_R   0.259844 0.186743 0.582766 -0.088479
C25   C     C_R   0.673256 0.672074 0.453693 -0.142075
C26   C     C_R   0.326724 0.171902 0.546265 -0.142063
C27   C     C_R   0.786930 0.899492 0.610945 -0.125218
C28   C     C_R   0.213088 0.399735 0.389079 -0.125301
C29   C     C_R   0.854083 0.925742 0.570507 -0.041845
C30   C     C_R   0.145939 0.426042 0.429519 -0.041802
C31   C     C_R   0.882133 0.898782 0.473031 0.037506
C32   C     C_R   0.117880 0.398978 0.526983 0.037523
C33   C     C_R   0.843714 0.824515 0.419721 0.091466
C34   C     C_R   0.156284 0.324562 0.580275 0.091476
C35   C     C_R   0.946727 0.952178 0.426287 -0.169730
C36   C     C_R   0.053294 0.452425 0.573736 -0.169696
C37   C     C_R   0.972152 0.938003 0.329276 -0.128435
C38   C     C_R   0.027861 0.438160 0.670740 -0.128414
C39   C     C_R   0.871483 0.808602 0.321420 -0.125770
C40   C     C_R   0.128505 0.308546 0.678570 -0.125800
H1    H     H_    0.646426 0.603500 0.413131 0.155143
H2    H     H_    0.353546 0.103225 0.586805 0.155076
H3    H     H_    0.843399 0.764921 0.276926 0.117563
H4    H     H_    0.156577 0.264751 0.723056 0.117520
H5    H     H_    0.020885 0.986464 0.294938 0.117398
H6    H     H_    0.979138 0.486681 0.705088 0.117370
H7    H     H_    0.545855 0.666931 0.533890 0.127870
H8    H     H_    0.454123 0.166590 0.466057 0.127866
H9    H     H_    0.488970 0.751047 0.695421 0.129029
H10   H     H_    0.511018 0.250797 0.304549 0.129040
H11   H     H_    0.667020 0.916733 0.739076 0.120524
H12   H     H_    0.333001 0.416978 0.260961 0.120605
H13   H     H_    0.762526 0.617607 0.352784 0.172697
H14   H     H_    0.237451 0.117474 0.647168 0.172691
H15   H     H_    0.767376 0.925806 0.684722 0.173781
H16   H     H_    0.232649 0.426121 0.315311 0.173730
H17   H     H_    0.977390 0.014374 0.462713 0.106607
H18   H     H_    0.022646 0.514743 0.537324 0.106566
C41   C     C_3   0.229976 0.694028 0.930704 0.748088
C42   C     C_3   0.770023 0.194052 0.069302 0.748063
C43   C     C_3   0.301498 0.700574 0.937294 -0.329643
C44   C     C_3   0.698494 0.200635 0.062740 -0.329695
H19   H     H_    0.337956 0.705014 0.866695 0.184647
H20   H     H_    0.662048 0.205192 0.133346 0.184635
H21   H     H_    0.314738 0.579943 0.970017 0.193796
H22   H     H_    0.685225 0.079973 0.030076 0.193830
H23   H     H_    0.165173 0.734387 0.133633 0.246541
H24   H     H_    0.834840 0.234356 0.866358 0.246514
C45   C     C_3   0.193352 0.846917 0.094084 -0.380098
C46   C     C_3   0.806650 0.346875 0.905909 -0.379937
C47   C     C_3   0.225704 0.028349 0.949977 -0.171883
C48   C     C_3   0.774300 0.528369 0.050000 -0.171914
C49   C     C_3   0.189295 0.854904 0.991174 -0.235993
C50   C     C_3   0.810706 0.354905 0.008818 -0.236001
H25   H     H_    0.201062 0.130341 0.001470 0.230643
H26   H     H_    0.798950 0.630354 0.998512 0.230648
C51   C     C_3   0.313903 0.854948 0.996429 -0.186140
C52   C     C_3   0.686099 0.354947 0.003562 -0.186160
C53   C     C_3   0.265068 0.850634 0.097493 -0.124055
C54   C     C_3   0.734935 0.350548 0.902500 -0.124069
C55   C     C_3   0.299193 0.024774 0.948711 -0.246716
C56   C     C_3   0.700816 0.524817 0.051242 -0.246643
H27   H     H_    0.333312 0.032458 0.876432 0.209011
H28   H     H_    0.666687 0.532587 0.123511 0.208996
H29   H     H_    0.309604 0.141820 0.987559 0.196755
H30   H     H_    0.690424 0.641829 0.012356 0.196728
H31   H     H_    0.167647 0.964658 0.133871 0.150813
H32   H     H_    0.832347 0.464620 0.866120 0.150765
H33   H     H_    0.271588 0.977922 0.132358 0.158343
H34   H     H_    0.728414 0.477799 0.867605 0.158291
O11   O     O_R   0.913210 0.208550 0.002110 -0.476884
O12   O     O_R   0.086790 0.708550 0.997890 -0.476885
O13   O     O_R   0.032060 0.539960 0.861980 -0.514277
O14   O     O_R   0.967940 0.039960 0.138020 -0.514272
C57   C     C_R   0.041684 0.372688 0.826173 0.667276
C58   C     C_R   0.958316 0.872690 0.173827 0.667241
O15   O     O_R   0.910290 0.538020 0.993280 -0.549240
O16   O     O_R   0.089710 0.038020 0.006720 -0.549235
O17   O     O_R   0.964160 0.712340 0.130090 -0.545796
O18   O     O_R   0.035840 0.212340 0.869910 -0.545794
C59   C     C_R   0.883650 0.368538 0.002809 0.672733
C60   C     C_R   0.116350 0.868538 0.997188 0.672715
O19   O     O_3   0.017820 0.379210 0.044690 -0.348334
O20   O     O_3   0.982180 0.879210 0.955310 -0.348344
V3    V     V_3+5 0.996690 0.652500 0.991710 1.651668
V4    V     V_3+5 0.003310 0.152500 0.008290 1.651694
S1    S     S_3+6 0.201122 0.478174 0.972576 -0.039325
O21   O     O_2   0.259075 0.368580 0.924224 -0.387918
O22   O     O_2   0.186700 0.450951 0.076121 -0.374158
O23   O     O_3   0.137377 0.407800 0.939782 -0.476779
H35   H     H_    0.153179 0.393155 0.871336 0.342081
S2    S     S_3+6 0.798863 0.978184 0.027416 -0.039308
O24   O     O_2   0.740912 0.868598 0.075781 -0.387899
O25   O     O_2   0.813265 0.950952 0.923874 -0.374085
O26   O     O_3   0.862618 0.907793 0.060177 -0.476774
H36   H     H_    0.846830 0.893155 0.128623 0.342064
S3    S     S_3+6 0.234675 0.692153 0.805300 -0.044353
O27   O     O_2   0.250471 0.509068 0.763815 -0.301772
O28   O     O_2   0.170956 0.749417 0.792597 -0.391432
O29   O     O_3   0.295011 0.823444 0.741462 -0.530208
H37   H     H_    0.293576 0.811347 0.676155 0.362391
S4    S     S_3+6 0.765347 0.192177 0.194698 -0.044352
O30   O     O_2   0.749558 0.009091 0.236179 -0.301791
O31   O     O_2   0.829076 0.249432 0.207373 -0.391446
O32   O     O_3   0.705021 0.323470 0.258566 -0.530172
H38   H     H_    0.706500 0.311474 0.323856 0.362391
C61   C     C_2   0.278240 0.701551 0.157165 0.422180
H39   H     H_    0.277622 0.563494 0.136037 0.100919
O33   O     O_2   0.290398 0.735822 0.229959 -0.540146
C62   C     C_2   0.721764 0.201405 0.842856 0.422304
H40   H     H_    0.722287 0.063380 0.864077 0.100871
O34   O     O_2   0.709708 0.235595 0.769979 -0.540150
C63   C     C_2   0.216339 0.082666 0.856839 0.673858
H41   H     H_    0.168969 0.072750 0.846034 0.008602
O35   O     O_2   0.261004 0.144817 0.793789 -0.485869
C64   C     C_2   0.783651 0.582688 0.143147 0.673761
H42   H     H_    0.831017 0.572780 0.153966 0.008629
O36   O     O_2   0.738978 0.644831 0.206190 -0.485897
C65   C     C_2   0.893608 0.981454 0.632191 0.390363
H43   H     H_    0.945718 0.960238 0.611507 0.039878
O37   O     O_2   0.868016 0.049265 0.708549 -0.519829
C66   C     C_2   0.106428 0.481934 0.367850 0.390322
H44   H     H_    0.054317 0.460746 0.388511 0.039934
O38   O     O_2   0.132033 0.549872 0.291532 -0.519969

loop_
_geom_bond_atom_site_label_1
_geom_bond_atom_site_label_2
_ccdc_geom_bond_type
C47   H25   S    
C3    C6    S    
C15   C17   A    
C42   C44   S    
C21   C33   A    
C57   O18   A    
O1    C3    A    
O2    C4    A    
O16   V4    S    
S4    O32   S    
C63   H41   S    
C46   C54   S    
C27   C29   A    
O5    C3    A    
O13   C57   A    
O14   V4    S    
C5    C11   A    
C44   H20   S    
C50   C59   S    
C6    C12   A    
C49   C60   S    
O11   C59   A    
C64   O36   D    
C53   H33   S    
C9    H7    S    
C10   H8    S    
C24   H14   S    
O17   V3    S    
C56   H30   S    
C45   C53   S    
C47   C55   S    
C34   C40   A    
C37   H5    S    
O20   V3    S    
C18   C26   A    
C13   H11   S    
C14   H12   S    
C35   H17   S    
C8    C38   A    
C47   C63   S    
C52   C54   S    
O29   H37   S    
C6    C14   A    
C4    C5    S    
C65   H43   S    
C19   C21   A    
C22   C34   A    
C51   C53   S    
C54   C62   S    
O16   C60   A    
C66   O38   D    
C1    C52   S    
O15   C59   A    
S3    O29   S    
C25   H1    S    
C7    C58   S    
C36   C38   A    
C55   H27   S    
C41   C49   S    
C42   S2    S    
C65   O37   D    
C29   C31   A    
O13   V3    S    
C30   C32   A    
C2    O7    A    
C14   C16   A    
C63   O35   D    
C32   C34   A    
C52   C56   S    
C33   C39   A    
S1    O22   D    
C15   C19   A    
C38   H6    S    
C16   C20   A    
C64   H42   S    
C35   C37   A    
C41   C43   S    
S4    O31   D    
C45   H31   S    
C39   H3    S    
C46   C50   S    
C9    C17   A    
C20   C22   A    
O4    V2    S    
C48   C64   S    
C41   S3    S    
C7    C37   A    
C42   S4    S    
C26   H2    S    
O6    C4    A    
O19   V4    S    
O1    V2    S    
C48   C56   S    
S1    O21   D    
C56   H28   S    
O2    V1    S    
C31   C33   A    
C66   H44   S    
S2    O26   S    
C53   C61   S    
H24   C46   S    
C47   C49   S    
C9    C11   A    
C28   H16   S    
O12   C60   A    
O15   V3    S    
O4    C2    A    
C43   H19   S    
O26   H36   S    
C55   H29   S    
C62   O34   D    
O3    V1    S    
C23   C25   A    
S2    O25   D    
O12   V3    S    
S1    O23   S    
C12   H10   S    
C10   C18   A    
C30   C66   S    
O10   V1    S    
C27   H15   S    
C48   H26   S    
C36   H18   S    
C28   C30   A    
O3    C1    A    
C42   C50   S    
C61   H39   S    
S4    O30   D    
C29   C65   S    
C54   H34   S    
C13   C15   A    
C2    C51   S    
O32   H38   S    
H23   C45   S    
C58   O17   A    
C41   S1    S    
C46   H32   S    
C5    C13   A    
C8    C57   S    
C16   C18   A    
S3    O27   D    
C43   C51   S    
C1    O8    A    
C8    C40   A    
C32   C36   A    
O8    V2    S    
C24   C26   A    
O18   V4    S    
C61   O33   D    
C44   C52   S    
O14   C58   A    
O5    V1    S    
C21   C23   A    
C22   C24   A    
C19   C27   A    
C10   C12   A    
C20   C28   A    
C51   C55   S    
O11   V4    S    
C7    C39   A    
C11   H9    S    
C43   H21   S    
O6    V2    S    
C44   H22   S    
O9    V2    S    
C17   C25   A    
C23   H13   S    
C62   H40   S    
C48   C50   S    
O23   H35   S    
C31   C35   A    
C45   C49   S    
C40   H4    S    
O7    V1    S    
S2    O24   D    
S3    O28   D    
