data_mof_unit_pretest_1891.cif
_audit_creation_date              2012-10-26T20:52:20-0400
_audit_creation_method            fapswitch 2.2
_symmetry_space_group_name_H-M    P1
_symmetry_Int_Tables_number       1
_space_group_crystal_system       triclinic
_cell_length_a                    16.01098
_cell_length_b                    14.770365
_cell_length_c                    10.959989
_cell_angle_alpha                 89.995302
_cell_angle_beta                  90.001749
_cell_angle_gamma                 90.003816
_cell_volume                      2591.9060669

loop_
_atom_site_label
_atom_site_type_symbol
_atom_type_description
_atom_site_fract_x
_atom_site_fract_y
_atom_site_fract_z
_atom_type_partial_charge
Br1   Br    Br    0.434683 0.317844 0.874195 -0.365208
Br2   Br    Br    0.566387 0.318334 0.126029 -0.365512
C1    C     C_R   0.340908 0.499950 0.500003 0.551337
C2    C     C_1   0.500016 0.197404 0.499996 0.190460
C3    C     C_R   0.500992 0.499681 0.264541 0.568589
C4    C     C_R   0.499041 0.499674 0.735464 0.568519
C5    C     C_2   0.489723 0.425199 0.935258 0.167051
C6    C     C_2   0.510793 0.425293 0.064807 0.166987
C7    C     C_2   0.507043 0.498662 0.867049 -0.118310
C8    C     C_2   0.493068 0.498655 0.132956 -0.118214
C9    C     C_R   0.956563 0.577231 0.499105 -0.114339
C10   C     C_R   0.043453 0.577227 0.499123 -0.114350
C11   C     C_R   0.912652 0.495451 0.500071 0.014001
C12   C     C_R   0.659092 0.499955 0.499997 0.551438
C13   C     C_R   0.087347 0.495443 0.500105 0.013985
C14   C     C_R   0.955946 0.412314 0.501073 -0.006350
C15   C     C_R   0.044036 0.412310 0.501087 -0.006365
C16   C     C_1   0.823023 0.498248 0.500023 -0.032408
C17   C     C_1   0.176977 0.498233 0.500070 -0.032475
C18   C     C_1   0.251921 0.499608 0.500038 0.005785
C19   C     C_1   0.748079 0.499623 0.500001 0.005898
C20   C     C_1   0.910145 0.327610 0.502083 0.224644
C21   C     C_1   0.089821 0.327602 0.502099 0.224597
C22   C     C_1   0.557447 0.093529 0.710761 0.227725
C23   C     C_R   0.527829 0.951497 0.602209 -0.109587
C24   C     C_1   0.442689 0.093580 0.289175 0.227561
C25   C     C_R   0.472231 0.951515 0.397738 -0.109585
C26   C     C_R   0.500020 0.902574 0.499977 -0.017913
C27   C     C_R   0.472056 0.047358 0.397048 -0.013449
C28   C     C_R   0.528025 0.047338 0.602904 -0.013452
C29   C     C_R   0.500035 0.096936 0.499984 -0.018593
C30   C     C_1   0.500007 0.802625 0.499987 0.141457
Cu1   Cu    Cu3+1 0.500000 0.589220 0.500000 1.009004
Cu2   Cu    Cu3+1 0.500000 0.410780 0.500000 1.115507
H1    H     H_    0.534248 0.558655 0.908454 0.072523
H2    H     H_    0.465579 0.558479 0.091514 0.072428
H3    H     H_    0.076559 0.641230 0.498364 0.130558
H4    H     H_    0.923469 0.641237 0.498334 0.130572
H5    H     H_    0.549515 0.914882 0.681912 0.125335
H6    H     H_    0.450545 0.914914 0.318029 0.125328
N1    N     N_1   0.500000 0.276710 0.500000 -0.157074
N2    N     N_1   0.500000 0.723290 0.500000 -0.189934
N3    N     N_1   0.873542 0.260044 0.502890 -0.242957
N4    N     N_1   0.126410 0.260032 0.502906 -0.242956
N5    N     N_1   0.581062 0.130546 0.797204 -0.191032
N6    N     N_1   0.419124 0.130635 0.202728 -0.191367
O1    O     O_R   0.380310 0.575320 0.500020 -0.499177
O2    O     O_R   0.619690 0.575320 0.499980 -0.499203
O3    O     O_R   0.380310 0.424640 0.499970 -0.478827
O4    O     O_R   0.619690 0.424640 0.500030 -0.478671
O5    O     O_R   0.500000 0.575320 0.321940 -0.504891
O6    O     O_R   0.500000 0.575320 0.678060 -0.504892
O7    O     O_R   0.500000 0.424640 0.321880 -0.447123
O8    O     O_R   0.500000 0.424640 0.678120 -0.447071

loop_
_geom_bond_atom_site_label_1
_geom_bond_atom_site_label_2
_ccdc_geom_bond_type
C9    H4    S    
C12   O2    A    
C9    C10   A    
Cu2   O7    S    
C5    C6    S    
C25   C27   A    
C16   C19   T    
C17   C18   T    
C10   C13   A    
C26   C30   S    
C25   H6    S    
C25   C26   A    
C4    C7    S    
Cu1   Cu2   S    
C1    O3    A    
C1    C18   S    
C27   C29   A    
C15   C21   S    
C23   H5    S    
C23   C26   A    
C13   C17   S    
C9    C11   A    
C12   O4    A    
Cu2   N1    S    
C11   C16   S    
C4    O8    A    
C22   N5    T    
Br2   C6    S    
C12   C19   S    
C1    O1    A    
C8    H2    S    
Cu2   O8    S    
C28   C29   A    
Cu1   O1    S    
C22   C28   S    
Cu2   O4    S    
C2    C29   S    
Cu1   O5    S    
C2    N1    T    
Cu1   N2    S    
C7    H1    S    
C3    C8    S    
C24   C27   S    
C5    C7    D    
C11   C14   A    
C3    O7    A    
C10   H3    S    
C13   C15   A    
Cu1   O2    S    
C30   N2    T    
C23   C28   A    
Cu2   O3    S    
C14   C20   S    
C4    O6    A    
Br1   C5    S    
C24   N6    T    
C6    C8    D    
C3    O5    A    
C21   N4    T    
C20   N3    T    
C14   C15   A    
Cu1   O6    S    
