data_mof_unit_pretest_1111.cif
_audit_creation_date              2012-12-11T14:17:28-0500
_audit_creation_method            fapswitch 2.2
_symmetry_space_group_name_H-M    P1
_symmetry_Int_Tables_number       1
_space_group_crystal_system       triclinic
_cell_length_a                    6.941679
_cell_length_b                    13.618312
_cell_length_c                    20.433749
_cell_angle_alpha                 101.956467
_cell_angle_beta                  90.034634
_cell_angle_gamma                 90.50061
_cell_volume                      1889.69782068

loop_
_atom_site_label
_atom_site_type_symbol
_atom_type_description
_atom_site_fract_x
_atom_site_fract_y
_atom_site_fract_z
_atom_type_partial_charge
O1    O     O_R   0.506860 0.599390 0.449240 -0.542776
O2    O     O_R   0.180220 0.594600 0.586780 -0.510120
O3    O     O_R   0.004500 0.400610 0.550760 -0.526049
C1    C     C_R   0.347660 0.615166 0.613992 0.791201
O4    O     O_R   0.177490 0.611290 0.451970 -0.548779
O5    O     O_R   0.001750 0.417420 0.414990 -0.555598
C2    C     C_R   0.346586 0.638015 0.435222 0.688117
O6    O     O_R   0.509610 0.582580 0.585010 -0.536611
O7    O     O_3   0.337420 0.436370 0.488020 -0.372318
V1    V     V_3+5 0.064680 0.511800 0.502220 1.564828
O8    O     O_R   0.671710 0.405400 0.413220 -0.518526
C3    C     C_R   0.839160 0.387253 0.385784 0.731662
O9    O     O_R   0.674440 0.388710 0.548030 -0.543054
C4    C     C_R   0.843020 0.362423 0.565222 0.812554
V2    V     V_3+5 0.564010 0.488200 0.497780 1.564839
O10   O     O_3   0.841140 0.563630 0.511980 -0.370257
C5    C     C_R   0.907406 0.112060 0.612930 -0.192040
H1    H     H_    0.917939 0.987018 0.696436 0.134014
H2    H     H_    0.927403 0.034204 0.588546 0.153448
C6    C     C_R   0.853921 0.284069 0.604526 -0.150047
C7    C     C_R   0.862964 0.315176 0.928084 -0.274764
C8    C     C_R   0.890602 0.392047 0.893590 0.428144
C9    C     C_R   0.913426 0.370193 0.823695 0.320542
C10   C     C_R   0.887422 0.269474 0.786870 -0.056562
C11   C     C_R   0.878234 0.191161 0.823788 0.017955
C12   C     C_R   0.879404 0.242162 0.715234 0.122941
C13   C     C_R   0.899135 0.139780 0.682989 0.069455
C14   C     C_R   0.905757 0.065429 0.720681 -0.172931
C15   C     C_R   0.888383 0.090249 0.789725 -0.142167
C16   C     C_R   0.841301 0.311612 0.674310 -0.205022
C17   C     C_R   0.890379 0.184101 0.573764 0.370825
C18   C     C_R   0.865064 0.215191 0.894413 -0.143323
H3    H     H_    0.795520 0.386954 0.695332 0.195554
H4    H     H_    0.852068 0.333305 0.982174 0.174417
H5    H     H_    0.886599 0.029284 0.816344 0.105624
C19   C     C_2   0.993218 0.280014 0.288124 -0.219162
C20   C     C_2   0.839691 0.333697 0.315134 0.192720
H6    H     H_    0.119135 0.277205 0.319265 0.161655
C21   C     C_2   0.010207 0.229307 0.216604 0.435445
C22   C     C_2   0.864017 0.173681 0.183286 -0.301926
H7    H     H_    0.730227 0.166847 0.209482 0.173640
C23   C     C_2   0.203791 0.788518 0.784643 -0.148726
C24   C     C_2   0.364219 0.814046 0.820956 -0.335560
H8    H     H_    0.067627 0.819935 0.804874 0.170791
H9    H     H_    0.501757 0.782234 0.803108 0.165673
C25   C     C_2   0.195811 0.715934 0.719124 0.445911
C26   C     C_2   0.354012 0.684481 0.680767 -0.350569
H10   H     H_    0.495943 0.711967 0.697898 0.145048
C27   C     C_R   0.370930 0.889029 0.386998 -0.103150
H11   H     H_    0.366601 0.838876 0.479837 0.114699
H12   H     H_    0.380436 0.014348 0.303650 0.153922
H13   H     H_    0.377795 0.967442 0.411864 0.154524
C28   C     C_R   0.356105 0.714841 0.394969 -0.041988
C29   C     C_R   0.346504 0.684237 0.071509 -0.111229
C30   C     C_R   0.339691 0.608117 0.107386 -0.046929
C31   C     C_R   0.343491 0.630910 0.177086 -0.142236
C32   C     C_R   0.353822 0.731765 0.213027 0.068257
C33   C     C_R   0.360057 0.809535 0.175815 0.059859
C34   C     C_R   0.358156 0.758059 0.284488 0.071895
C35   C     C_R   0.367568 0.861113 0.316882 0.122244
C36   C     C_R   0.373253 0.935705 0.279248 -0.168816
C37   C     C_R   0.369780 0.910547 0.209904 -0.191888
C38   C     C_R   0.353139 0.685802 0.325209 -0.193845
C39   C     C_R   0.364806 0.816224 0.425792 -0.164842
C40   C     C_R   0.356762 0.784587 0.104968 -0.098581
H14   H     H_    0.346192 0.606386 0.304596 0.130841
H15   H     H_    0.344089 0.664855 0.017319 0.157655
H16   H     H_    0.338201 0.567699 0.201110 0.157267
H17   H     H_    0.331832 0.530570 0.080948 0.165623
H18   H     H_    0.374560 0.971389 0.183188 0.140210
O11   O     O_R   0.203230 0.917310 0.915020 -0.545198
O12   O     O_R   0.535500 0.888690 0.048040 -0.540478
O13   O     O_R   0.711080 0.082610 0.085000 -0.534860
C41   C     C_R   0.366428 0.861968 0.064807 0.697416
O14   O     O_R   0.532630 0.905370 0.913230 -0.546365
O15   O     O_R   0.708190 0.099410 0.949230 -0.542982
C42   C     C_R   0.364647 0.883966 0.886720 0.759944
O16   O     O_R   0.206120 0.900510 0.050790 -0.539381
O17   O     O_3   0.375360 0.063570 0.011990 -0.355902
V3    V     V_3+5 0.648170 0.988200 0.997780 1.511300
O18   O     O_R   0.038240 0.111390 0.951940 -0.541800
C43   C     C_R   0.870028 0.137491 0.934637 0.722271
O19   O     O_R   0.041120 0.094710 0.086750 -0.512199
C44   C     C_R   0.873371 0.114782 0.113767 0.774223
V4    V     V_3+5 0.148810 0.011930 0.002180 1.535701
O20   O     O_3   0.871750 0.936430 0.988010 -0.376921
Cl1   Cl    Cl    0.909151 0.146474 0.486181 -0.689443
Cl2   Cl    Cl    0.641490 0.356695 0.266087 -0.604574
Cl3   Cl    Cl    0.236803 0.241206 0.179903 -0.577347
Cl4   Cl    Cl    0.958697 0.674572 0.695175 -0.623111
Cl5   Cl    Cl    0.018672 0.466268 0.788399 -0.552136
Cl6   Cl    Cl    0.909232 0.515808 0.940665 -0.571765

loop_
_geom_bond_atom_site_label_1
_geom_bond_atom_site_label_2
_ccdc_geom_bond_type
C33   C37   A    
C30   C31   A    
H11   C39   S    
C22   C44   S    
C20   Cl2   S    
H12   C36   S    
O11   C42   A    
C1    O6    A    
O18   C43   A    
C29   C40   A    
C6    C16   A    
V4    O20   S    
C12   C13   A    
C27   C35   A    
C14   C15   A    
C10   C12   A    
O5    C3    A    
C28   C39   A    
C32   C34   A    
V2    O10   S    
C31   C32   A    
C37   H18   S    
C23   C25   S    
C3    C20   S    
V3    O20   S    
C25   C26   D    
O8    V2    S    
C26   H10   S    
C9    C10   A    
O1    V2    S    
O14   V3    S    
O13   C44   A    
C11   C18   A    
C38   H14   S    
C34   C35   A    
C27   C39   A    
O11   V4    S    
O9    C4    A    
C23   H8    S    
C11   C15   A    
C7    C18   A    
C17   Cl1   S    
C5    C13   A    
C6    C17   A    
C4    C6    S    
H1    C14   S    
C10   C11   A    
O12   C41   A    
O15   C43   A    
C21   C22   D    
O4    C2    A    
C29   H15   S    
C31   H16   S    
C40   C41   S    
C35   C36   A    
O2    C1    A    
O14   C42   A    
C33   C40   A    
O19   C44   A    
C7    H4    S    
C27   H13   S    
C24   H9    S    
C30   H17   S    
O3    C4    A    
O16   V4    S    
C22   H7    S    
O19   V4    S    
C12   C16   A    
O6    V2    S    
O9    V2    S    
C5    C17   A    
C9    Cl5   S    
C23   C24   D    
C2    C28   S    
O2    V1    S    
O17   V4    S    
O7    V1    S    
C29   C30   A    
C19   C20   D    
C16   H3    S    
O1    C2    A    
C19   C21   S    
O15   V3    S    
O5    V1    S    
O8    C3    A    
C25   Cl4   S    
C24   C42   S    
C18   C43   S    
C15   H5    S    
C34   C38   A    
C19   H6    S    
O7    V2    S    
O4    V1    S    
O12   V3    S    
O3    V1    S    
V1    O10   S    
C28   C38   A    
C32   C33   A    
C5    H2    S    
O13   V3    S    
C36   C37   A    
O17   V3    S    
C41   O16   A    
C13   C14   A    
C8    Cl6   S    
C8    C9    A    
C7    C8    A    
C21   Cl3   S    
O18   V4    S    
C1    C26   S    
