data_mof_unit_pretest_1609.cif
_audit_creation_date              2012-12-10T16:58:29-0500
_audit_creation_method            fapswitch 2.2
_symmetry_space_group_name_H-M    P1
_symmetry_Int_Tables_number       1
_space_group_crystal_system       triclinic
_cell_length_a                    30.617167
_cell_length_b                    31.065589
_cell_length_c                    24.840256
_cell_angle_alpha                 90.173017
_cell_angle_beta                  128.959959
_cell_angle_gamma                 90.112023
_cell_volume                      18371.369881

loop_
_atom_site_label
_atom_site_type_symbol
_atom_type_description
_atom_site_fract_x
_atom_site_fract_y
_atom_site_fract_z
_atom_type_partial_charge
C1    C     C_R   0.809907 0.809095 0.499961 0.876542
C2    C     C_R   0.543861 0.756525 0.070333 0.278751
C3    C     C_R   0.915771 0.293196 0.815515 0.023830
C4    C     C_R   0.580618 0.755706 0.146130 0.022563
C5    C     C_R   0.434480 0.754981 0.854751 0.023468
C6    C     C_R   0.080618 0.255706 0.146130 0.022564
C7    C     C_R   0.934480 0.254982 0.854751 0.023468
C8    C     C_R   0.596098 0.715504 0.178797 -0.222972
C9    C     C_R   0.414967 0.714911 0.821175 -0.222148
C10   C     C_R   0.096099 0.215504 0.178797 -0.222972
C11   C     C_R   0.914968 0.214911 0.821175 -0.222148
C12   C     C_R   0.627705 0.712429 0.250443 -0.005654
C13   C     C_R   0.973291 0.255855 0.930507 0.277052
C14   C     C_R   0.376931 0.712108 0.749027 -0.009088
C15   C     C_R   0.127706 0.212429 0.250443 -0.005653
C16   C     C_R   0.876931 0.212108 0.749027 -0.009088
C17   C     C_R   0.832155 0.722235 0.839764 0.132781
C18   C     C_R   0.846393 0.684460 0.878596 -0.133541
C19   C     C_R   0.817512 0.672925 0.903041 -0.138186
C20   C     C_R   0.774002 0.698767 0.888570 -0.109767
C21   C     C_R   0.759254 0.736181 0.849565 -0.136912
C22   C     C_R   0.788057 0.747875 0.825071 -0.155946
C23   C     C_R   0.153889 0.757652 0.147546 0.131627
C24   C     C_R   0.043860 0.256525 0.070333 0.278751
C25   C     C_R   0.197497 0.730557 0.164161 -0.155312
C26   C     C_R   0.221908 0.736269 0.132397 -0.132800
C27   C     C_R   0.203190 0.769137 0.084147 -0.109683
C28   C     C_R   0.160180 0.796465 0.067786 -0.135051
C29   C     C_R   0.135726 0.790929 0.099534 -0.129395
C30   C     C_R   0.332133 0.222310 0.839767 0.132765
C31   C     C_R   0.346326 0.184537 0.878589 -0.133546
C32   C     C_R   0.317438 0.173043 0.903039 -0.138168
C33   C     C_R   0.273964 0.198926 0.888585 -0.109772
C34   C     C_R   0.259260 0.236339 0.849591 -0.136897
C35   C     C_2   0.851517 0.901921 0.443378 -0.180412
C36   C     C_R   0.288070 0.247992 0.825091 -0.155925
C37   C     C_R   0.653887 0.257619 0.147543 0.131627
C38   C     C_R   0.697490 0.230514 0.164161 -0.155321
C39   C     C_R   0.721900 0.236211 0.132395 -0.132802
C40   C     C_R   0.703190 0.269074 0.084140 -0.109682
C41   C     C_R   0.660186 0.296411 0.067773 -0.135053
C42   C     C_R   0.635732 0.290891 0.099524 -0.129396
C43   C     C_3   0.943148 0.756035 0.721309 -0.418868
C44   C     C_3   0.968836 0.714971 0.718350 -0.814625
C45   C     C_3   0.055826 0.742621 0.285330 -0.399213
C46   C     C_2   0.144747 0.898522 0.556355 -0.182798
C47   C     C_3   0.042243 0.696260 0.290455 -0.823238
C48   C     C_3   0.443158 0.255967 0.721317 -0.418776
C49   C     C_3   0.468801 0.214881 0.718339 -0.814616
C50   C     C_3   0.555827 0.242645 0.285335 -0.399253
C51   C     C_3   0.542224 0.196289 0.290454 -0.823193
C52   C     C_3   0.658013 0.604628 0.629426 -0.385829
C53   C     C_3   0.712747 0.628618 0.685393 -0.874913
C54   C     C_3   0.343519 0.605173 0.371534 -0.378344
C55   C     C_3   0.288488 0.628471 0.316002 -0.908342
C56   C     C_3   0.158013 0.104628 0.629426 -0.385813
C57   C     C_2   0.351542 0.401890 0.443371 -0.180416
C58   C     C_3   0.212747 0.128618 0.685392 -0.874939
C59   C     C_3   0.843521 0.105174 0.371534 -0.378336
C60   C     C_3   0.788491 0.128473 0.316002 -0.908367
C61   C     C_3   0.543947 0.625627 0.426783 -0.394097
C62   C     C_3   0.483248 0.634280 0.396845 -0.838348
C63   C     C_3   0.452812 0.622820 0.575771 -0.397823
C64   C     C_3   0.507116 0.644814 0.600240 -0.857093
C65   C     C_3   0.043948 0.125627 0.426783 -0.394095
C66   C     C_3   0.983248 0.134279 0.396844 -0.838346
C67   C     C_3   0.952811 0.122820 0.575771 -0.397817
C68   C     C_2   0.644778 0.398554 0.556355 -0.182804
C69   C     C_3   0.007116 0.144813 0.600243 -0.857086
C70   C     C_3   0.631265 0.708536 0.561786 -0.328471
C71   C     C_3   0.593847 0.707681 0.582702 -0.927245
C72   C     C_3   0.369418 0.709029 0.439607 -0.326393
C73   C     C_3   0.404663 0.709438 0.415552 -0.933401
C74   C     C_3   0.131263 0.208535 0.561784 -0.328472
C75   C     C_3   0.093847 0.207680 0.582701 -0.927230
C76   C     C_3   0.869422 0.209030 0.439611 -0.326392
C77   C     C_3   0.904667 0.209438 0.415558 -0.933395
C78   C     C_R   0.586872 0.837232 0.155600 0.122077
C79   C     C_2   0.898789 0.918234 0.500542 -0.320039
C80   C     C_R   0.608721 0.849092 0.122150 -0.135510
C81   C     C_R   0.599442 0.890411 0.094807 -0.123614
C82   C     C_R   0.567932 0.919980 0.100063 -0.101365
C83   C     C_R   0.546177 0.908432 0.133415 -0.132225
C84   C     C_R   0.555880 0.867290 0.161536 -0.146434
C85   C     C_R   0.438228 0.836178 0.847563 0.124390
C86   C     C_R   0.402158 0.868305 0.839056 -0.149832
C87   C     C_R   0.423440 0.908992 0.868931 -0.128869
C88   C     C_R   0.480606 0.917996 0.906645 -0.100854
C89   C     C_R   0.516571 0.886339 0.914498 -0.126205
C90   C     C_2   0.100930 0.917921 0.499748 -0.317917
C91   C     C_R   0.495601 0.845496 0.885349 -0.130099
C92   C     C_R   0.086868 0.337232 0.155599 0.122076
C93   C     C_R   0.108717 0.349094 0.122150 -0.135513
C94   C     C_R   0.099436 0.390413 0.094807 -0.123612
C95   C     C_R   0.067924 0.419980 0.100062 -0.101362
C96   C     C_R   0.046170 0.408431 0.133413 -0.132222
C97   C     C_R   0.055874 0.367288 0.161535 -0.146430
C98   C     C_R   0.938225 0.336178 0.847563 0.124391
C99   C     C_R   0.902153 0.368304 0.839057 -0.149836
C100  C     C_R   0.923434 0.408991 0.868933 -0.128874
C101  C     C_2   0.398785 0.418235 0.500534 -0.320033
C102  C     C_R   0.980599 0.417997 0.906646 -0.100853
C103  C     C_R   0.016565 0.386341 0.914498 -0.126206
C104  C     C_R   0.995597 0.345498 0.885349 -0.130101
C105  C     C_R   0.639710 0.669121 0.281906 0.127836
C106  C     C_R   0.666208 0.637885 0.270396 -0.147852
C107  C     C_R   0.677322 0.597032 0.299837 -0.142973
C108  C     C_R   0.661780 0.586965 0.340543 -0.108244
C109  C     C_R   0.634934 0.617682 0.351714 -0.122026
C110  C     C_R   0.623790 0.658585 0.322471 -0.123507
C111  C     C_R   0.361082 0.668924 0.716133 0.128549
C112  C     C_R   0.189764 0.809039 0.499143 0.875372
C113  C     C_2   0.600932 0.417926 0.499741 -0.317914
C114  C     C_R   0.334709 0.639007 0.729751 -0.148668
C115  C     C_R   0.320531 0.598010 0.699560 -0.143407
C116  C     C_R   0.333022 0.586487 0.656157 -0.108910
C117  C     C_R   0.359801 0.615907 0.642954 -0.122845
C118  C     C_R   0.373833 0.657004 0.672768 -0.119207
C119  C     C_R   0.139711 0.169121 0.281906 0.127836
C120  C     C_R   0.166210 0.137885 0.270396 -0.147850
C121  C     C_R   0.177326 0.097032 0.299837 -0.142976
C122  C     C_R   0.161783 0.086965 0.340543 -0.108245
C123  C     C_R   0.134936 0.117681 0.351714 -0.122024
C124  C     C_2   0.819133 0.870943 0.450010 -0.217329
C125  C     C_R   0.123792 0.158584 0.322471 -0.123507
C126  C     C_R   0.861083 0.168924 0.716134 0.128548
C127  C     C_R   0.834711 0.139007 0.729752 -0.148668
C128  C     C_R   0.820534 0.098010 0.699561 -0.143407
C129  C     C_R   0.833024 0.086487 0.656157 -0.108910
C130  C     C_R   0.859801 0.115908 0.642954 -0.122844
C131  C     C_R   0.873833 0.157004 0.672767 -0.119206
C132  C     C_R   0.905324 0.829875 0.542441 0.162572
C133  C     C_R   0.939173 0.834006 0.614697 -0.205694
C134  C     C_R   0.996336 0.824135 0.656556 -0.126819
C135  C     C_2   0.177730 0.867702 0.550835 -0.215427
C136  C     C_R   0.019911 0.809589 0.626645 -0.101823
C137  C     C_R   0.986395 0.805013 0.554817 -0.158115
C138  C     C_R   0.929257 0.815199 0.512636 -0.104906
C139  C     C_R   0.092668 0.833679 0.442104 0.143659
C140  C     C_R   0.068835 0.840207 0.372601 -0.215881
C141  C     C_R   0.010954 0.835461 0.320225 -0.148506
C142  C     C_R   0.976635 0.823445 0.336694 -0.094312
C143  C     C_R   0.000111 0.816259 0.405601 -0.148261
C144  C     C_R   0.057982 0.821247 0.458310 -0.108496
C145  C     C_R   0.405354 0.329909 0.542579 0.162466
C146  C     C_2   0.319153 0.370913 0.449995 -0.217304
C147  C     C_R   0.439128 0.334077 0.614823 -0.205883
C148  C     C_R   0.496310 0.324253 0.656778 -0.126842
C149  C     C_R   0.519977 0.309716 0.626976 -0.101707
C150  C     C_R   0.486536 0.305102 0.555162 -0.158079
C151  C     C_R   0.429380 0.315241 0.512885 -0.104914
C152  C     C_R   0.592670 0.333649 0.442200 0.143797
C153  C     C_R   0.568761 0.340161 0.372667 -0.215914
C154  C     C_R   0.510874 0.335386 0.320360 -0.148396
C155  C     C_R   0.476624 0.323354 0.336927 -0.094266
C156  C     C_R   0.500176 0.316185 0.405865 -0.148333
C157  C     C_2   0.677756 0.367732 0.550825 -0.215440
C158  C     C_R   0.558054 0.321204 0.458505 -0.108463
C159  C     C_2   0.844296 0.839941 0.498506 -0.145987
C160  C     C_2   0.154194 0.839996 0.497324 -0.129576
C161  C     C_2   0.344311 0.339942 0.498542 -0.145876
C162  C     C_2   0.654202 0.339997 0.497347 -0.129672
C163  C     C_R   0.828838 0.740694 0.740376 -0.276200
C164  C     C_R   0.309911 0.309095 0.499970 0.876548
C165  C     C_R   0.163587 0.754062 0.254037 -0.278474
C166  C     C_R   0.328832 0.240727 0.740379 -0.276190
C167  C     C_R   0.663588 0.254048 0.254036 -0.278469
C168  C     C_R   0.861340 0.733689 0.811573 0.029912
C169  C     C_R   0.128437 0.751768 0.181764 0.025342
C170  C     C_R   0.361328 0.233724 0.811576 0.029899
C171  C     C_R   0.628436 0.251752 0.181763 0.025346
C172  C     C_R   0.920580 0.735097 0.853039 -0.005531
C173  C     C_R   0.070120 0.745215 0.144224 0.000895
C174  C     C_R   0.420569 0.235096 0.853041 -0.005519
C175  C     C_R   0.689765 0.309040 0.499146 0.875361
C176  C     C_R   0.570118 0.245212 0.144225 0.000896
C177  C     C_R   0.945652 0.741436 0.822040 -0.197585
C178  C     C_R   0.048392 0.742213 0.179588 -0.205182
C179  C     C_R   0.445646 0.241400 0.822041 -0.197604
C180  C     C_R   0.548390 0.242222 0.179591 -0.205165
C181  C     C_R   0.682206 0.749734 0.365423 0.871885
C182  C     C_R   0.317937 0.749920 0.634636 0.873517
C183  C     C_R   0.182206 0.249734 0.365423 0.871891
C184  C     C_R   0.817937 0.249920 0.634636 0.873518
C185  C     C_R   0.913197 0.747473 0.750772 0.157744
C186  C     C_R   0.644853 0.750604 0.290026 -0.087827
C187  C     C_R   0.083318 0.744671 0.251700 0.155301
C188  C     C_R   0.413197 0.247437 0.750775 0.157704
C189  C     C_R   0.583317 0.244681 0.251703 0.155301
C190  C     C_R   0.854115 0.747438 0.709838 -0.075460
C191  C     C_R   0.141874 0.750199 0.289376 -0.081412
C192  C     C_R   0.354114 0.247437 0.709839 -0.075488
C193  C     C_R   0.641874 0.250198 0.289377 -0.081404
C194  C     C_R   0.030600 0.740913 0.068525 0.277884
C195  C     C_R   0.957551 0.734260 0.928922 0.276733
C196  C     C_R   0.530594 0.240911 0.068527 0.277878
C197  C     C_R   0.357326 0.750400 0.710103 -0.088446
C198  C     C_R   0.457539 0.234259 0.928925 0.276737
C199  C     C_2   0.622899 0.624655 0.557253 0.141506
C200  C     C_2   0.378193 0.624859 0.444270 0.153701
C201  C     C_2   0.122899 0.124655 0.557252 0.141501
C202  C     C_2   0.878193 0.124859 0.444270 0.153701
C203  C     C_2   0.578148 0.604400 0.498671 -0.110880
C204  C     C_2   0.420903 0.603512 0.502642 -0.107084
C205  C     C_2   0.078148 0.104400 0.498670 -0.110884
C206  C     C_2   0.920903 0.103512 0.502642 -0.107087
C207  C     C_2   0.643791 0.664224 0.548110 0.208705
C208  C     C_R   0.144853 0.250604 0.290026 -0.087830
C209  C     C_2   0.357675 0.664509 0.453757 0.225216
C210  C     C_2   0.143791 0.164224 0.548109 0.208709
C211  C     C_2   0.857676 0.164510 0.453758 0.225216
C212  C     C_2   0.670165 0.657571 0.521451 -0.492104
C213  C     C_2   0.328993 0.657709 0.477312 -0.498290
C214  C     C_2   0.170165 0.157571 0.521451 -0.492102
C215  C     C_2   0.828992 0.157709 0.477311 -0.498291
C216  C     C_R   0.442584 0.561919 0.500004 0.887609
C217  C     C_R   0.557357 0.562059 0.500304 0.903794
C218  C     C_R   0.942584 0.061919 0.500004 0.887608
C219  C     C_R   0.857326 0.250400 0.710103 -0.088443
C220  C     C_R   0.057357 0.062059 0.500304 0.903796
C221  C     C_R   0.937937 0.943136 0.499644 0.952700
C222  C     C_R   0.061814 0.942970 0.500250 0.950643
C223  C     C_R   0.437938 0.443136 0.499643 0.952697
C224  C     C_R   0.561816 0.442972 0.500250 0.950655
C225  C     C_R   0.693095 0.690732 0.505056 0.942647
C226  C     C_R   0.306492 0.690779 0.494300 0.944991
C227  C     C_R   0.193095 0.190732 0.505056 0.942656
C228  C     C_R   0.806492 0.190779 0.494300 0.944986
C229  C     C_R   0.817702 0.750051 0.634602 0.856301
C230  C     C_R   0.473292 0.755855 0.930507 0.277052
C231  C     C_R   0.181423 0.750511 0.365183 0.856161
C232  C     C_R   0.317704 0.250052 0.634603 0.856284
C233  C     C_R   0.681424 0.250510 0.365184 0.856161
C234  C     C_R   0.629155 0.790753 0.257614 -0.260359
C235  C     C_R   0.376921 0.790412 0.743548 -0.259290
C236  C     C_R   0.129154 0.290753 0.257613 -0.260364
C237  C     C_R   0.876920 0.290412 0.743548 -0.259288
C238  C     C_R   0.597795 0.793842 0.186066 0.024351
C239  C     C_R   0.415772 0.793196 0.815515 0.023831
C240  C     C_R   0.097793 0.293842 0.186066 0.024351
H1    H     H_    0.643568 0.819943 0.288637 0.151925
H2    H     H_    0.320467 0.624752 0.483387 0.150491
H3    H     H_    0.533348 0.652223 0.656407 0.245243
H4    H     H_    0.428781 0.646407 0.581088 0.205840
H5    H     H_    0.462817 0.597018 0.612842 0.215533
H6    H     H_    0.955945 0.106264 0.366058 0.265323
H7    H     H_    0.980973 0.140638 0.438936 0.255982
H8    H     H_    0.966467 0.162531 0.361876 0.238722
H9    H     H_    0.061240 0.156754 0.426170 0.214093
H10   H     H_    0.043968 0.104192 0.390905 0.203419
H11   H     H_    0.031583 0.124011 0.591477 0.267471
H12   H     H_    0.997063 0.175531 0.572222 0.256754
H13   H     H_    0.177627 0.124639 0.513861 0.152256
H14   H     H_    0.033348 0.152221 0.656410 0.245245
H15   H     H_    0.928780 0.146406 0.581089 0.205838
H16   H     H_    0.962816 0.097017 0.612841 0.215532
H17   H     H_    0.552830 0.692773 0.540540 0.266256
H18   H     H_    0.613701 0.689535 0.631339 0.273338
H19   H     H_    0.586264 0.741104 0.590906 0.250869
H20   H     H_    0.671430 0.725061 0.602989 0.203375
H21   H     H_    0.608355 0.727816 0.513628 0.221434
H22   H     H_    0.447846 0.698685 0.458020 0.258480
H23   H     H_    0.386024 0.688815 0.369282 0.272743
H24   H     H_    0.820466 0.124752 0.483384 0.150492
H25   H     H_    0.407305 0.742839 0.401991 0.253136
H26   H     H_    0.328735 0.725034 0.399519 0.206065
H27   H     H_    0.392992 0.728476 0.487985 0.221047
H28   H     H_    0.052829 0.192772 0.540541 0.266252
H29   H     H_    0.113701 0.189535 0.631339 0.273341
H30   H     H_    0.086262 0.241104 0.590903 0.250870
H31   H     H_    0.171429 0.225061 0.602987 0.203381
H32   H     H_    0.108353 0.227816 0.513626 0.221430
H33   H     H_    0.947849 0.198682 0.458025 0.258479
H34   H     H_    0.886028 0.188817 0.369286 0.272743
H35   H     H_    0.581704 0.686227 0.148036 0.154644
H36   H     H_    0.907313 0.242840 0.402001 0.253136
H37   H     H_    0.828739 0.225035 0.399523 0.206066
H38   H     H_    0.892995 0.228475 0.487990 0.221045
H39   H     H_    0.633269 0.826481 0.117819 0.121346
H40   H     H_    0.616870 0.899561 0.069773 0.115515
H41   H     H_    0.560579 0.951886 0.078552 0.115672
H42   H     H_    0.521958 0.931412 0.137688 0.125797
H43   H     H_    0.538967 0.858736 0.187457 0.128430
H44   H     H_    0.357766 0.861715 0.809796 0.123265
H45   H     H_    0.395588 0.933580 0.862673 0.124624
H46   H     H_    0.429831 0.685574 0.851351 0.154424
H47   H     H_    0.496999 0.949536 0.929564 0.115131
H48   H     H_    0.560692 0.893467 0.943001 0.115724
H49   H     H_    0.523892 0.821248 0.891744 0.122704
H50   H     H_    0.133267 0.326484 0.117820 0.121346
H51   H     H_    0.116863 0.399564 0.069773 0.115515
H52   H     H_    0.060569 0.451886 0.078550 0.115669
H53   H     H_    0.021949 0.431409 0.137685 0.125795
H54   H     H_    0.038961 0.358733 0.187456 0.128431
H55   H     H_    0.857761 0.361712 0.809797 0.123265
H56   H     H_    0.895581 0.433578 0.862675 0.124620
H57   H     H_    0.081705 0.186227 0.148036 0.154643
H58   H     H_    0.996990 0.449537 0.929565 0.115128
H59   H     H_    0.060685 0.393471 0.943001 0.115723
H60   H     H_    0.023889 0.321251 0.891742 0.122703
H61   H     H_    0.678662 0.645295 0.239162 0.127370
H62   H     H_    0.698008 0.573170 0.291100 0.128647
H63   H     H_    0.670407 0.555328 0.363277 0.122810
H64   H     H_    0.622690 0.609767 0.382954 0.110827
H65   H     H_    0.602614 0.681953 0.331240 0.103383
H66   H     H_    0.324882 0.647534 0.763373 0.126671
H67   H     H_    0.299961 0.575136 0.709932 0.128518
H68   H     H_    0.929833 0.185575 0.851351 0.154424
H69   H     H_    0.322141 0.554709 0.632965 0.122602
H70   H     H_    0.369827 0.606789 0.609794 0.110890
H71   H     H_    0.394900 0.679400 0.662436 0.103898
H72   H     H_    0.178665 0.145296 0.239162 0.127369
H73   H     H_    0.198012 0.073171 0.291100 0.128647
H74   H     H_    0.170411 0.055328 0.363278 0.122809
H75   H     H_    0.122693 0.109766 0.382954 0.110827
H76   H     H_    0.102615 0.181952 0.331240 0.103382
H77   H     H_    0.824884 0.147533 0.763374 0.126671
H78   H     H_    0.799964 0.075136 0.709934 0.128519
H79   H     H_    0.837383 0.910028 0.392160 0.172935
H80   H     H_    0.822143 0.054709 0.632965 0.122603
H81   H     H_    0.869827 0.106790 0.609792 0.110890
H82   H     H_    0.894900 0.179401 0.662435 0.103898
H83   H     H_    0.921319 0.845285 0.638415 0.114246
H84   H     H_    0.022316 0.827620 0.712202 0.125088
H85   H     H_    0.064115 0.801742 0.659127 0.121102
H86   H     H_    0.004766 0.793327 0.532046 0.118774
H87   H     H_    0.903633 0.811419 0.457035 0.122901
H88   H     H_    0.095018 0.849502 0.359169 0.127907
H89   H     H_    0.992742 0.840941 0.266818 0.130075
H90   H     H_    0.155785 0.904118 0.606784 0.172312
H91   H     H_    0.931846 0.819647 0.296047 0.120768
H92   H     H_    0.973294 0.806913 0.417948 0.118668
H93   H     H_    0.075739 0.815716 0.511569 0.125087
H94   H     H_    0.421203 0.345347 0.638459 0.114337
H95   H     H_    0.522234 0.327769 0.712413 0.125038
H96   H     H_    0.564196 0.301907 0.659533 0.121081
H97   H     H_    0.504980 0.293425 0.532477 0.118763
H98   H     H_    0.403815 0.311434 0.457296 0.122900
H99   H     H_    0.594890 0.349466 0.359159 0.127856
H100  H     H_    0.492602 0.340855 0.266929 0.130023
H101  H     H_    0.337434 0.409971 0.392156 0.172943
H102  H     H_    0.431830 0.319534 0.296333 0.120759
H103  H     H_    0.473414 0.306825 0.418287 0.118655
H104  H     H_    0.575870 0.315685 0.511788 0.125054
H105  H     H_    0.362440 0.819703 0.713239 0.153653
H106  H     H_    0.655844 0.404171 0.606795 0.172305
H107  H     H_    0.909622 0.912862 0.550843 0.168465
H108  H     H_    0.092879 0.915026 0.450645 0.171780
H109  H     H_    0.409592 0.412889 0.550826 0.168489
H110  H     H_    0.592856 0.415011 0.450626 0.171772
H111  H     H_    0.773578 0.872351 0.412411 0.154304
H112  H     H_    0.222497 0.866059 0.593944 0.145019
H113  H     H_    0.273601 0.372293 0.412344 0.154251
H114  H     H_    0.722533 0.366115 0.593899 0.145068
H115  H     H_    0.783402 0.738815 0.707880 0.145269
H116  H     H_    0.143566 0.319943 0.288637 0.151929
H117  H     H_    0.208398 0.758643 0.283060 0.156347
H118  H     H_    0.283394 0.238874 0.707884 0.145300
H119  H     H_    0.708400 0.258620 0.283059 0.156334
H120  H     H_    0.879444 0.663752 0.889344 0.124711
H121  H     H_    0.828684 0.643820 0.932919 0.126244
H122  H     H_    0.751607 0.689736 0.907410 0.123099
H123  H     H_    0.725419 0.756098 0.838197 0.128386
H124  H     H_    0.776107 0.776946 0.794846 0.128458
H125  H     H_    0.212243 0.704864 0.201266 0.128525
H126  H     H_    0.255318 0.715191 0.145169 0.128108
H127  H     H_    0.862438 0.319703 0.713239 0.153648
H128  H     H_    0.222102 0.773494 0.059563 0.122629
H129  H     H_    0.145870 0.822008 0.030610 0.125604
H130  H     H_    0.102712 0.812522 0.086773 0.124916
H131  H     H_    0.379350 0.163799 0.889325 0.124709
H132  H     H_    0.328576 0.143939 0.932909 0.126245
H133  H     H_    0.251564 0.189928 0.907430 0.123100
H134  H     H_    0.225453 0.256288 0.838237 0.128379
H135  H     H_    0.276155 0.277063 0.794875 0.128455
H136  H     H_    0.712229 0.204825 0.201272 0.128533
H137  H     H_    0.755306 0.215125 0.145171 0.128108
H138  H     H_    0.991026 0.743164 0.853871 0.156298
H139  H     H_    0.722103 0.273418 0.059554 0.122628
H140  H     H_    0.645882 0.321950 0.030592 0.125602
H141  H     H_    0.602724 0.312492 0.086759 0.124920
H142  H     H_    0.000748 0.701908 0.771170 0.246542
H143  H     H_    0.935672 0.690303 0.685713 0.269872
H144  H     H_    0.989596 0.722211 0.695444 0.246855
H145  H     H_    0.914482 0.769836 0.668671 0.214185
H146  H     H_    0.976883 0.780350 0.754034 0.190629
H147  H     H_    0.011961 0.681847 0.237991 0.245233
H148  H     H_    0.080991 0.676533 0.321065 0.272017
H149  H     H_    0.003646 0.737418 0.150736 0.154940
H150  H     H_    0.023109 0.695737 0.316387 0.242287
H151  H     H_    0.082242 0.757789 0.337359 0.225401
H152  H     H_    0.016153 0.761317 0.253968 0.196318
H153  H     H_    0.500697 0.201803 0.771153 0.246541
H154  H     H_    0.435610 0.190233 0.685689 0.269868
H155  H     H_    0.489572 0.222099 0.695440 0.246841
H156  H     H_    0.414510 0.269781 0.668687 0.214246
H157  H     H_    0.476920 0.280261 0.754056 0.190640
H158  H     H_    0.511935 0.181881 0.237988 0.245225
H159  H     H_    0.580964 0.176552 0.321061 0.272008
H160  H     H_    0.491021 0.243101 0.853872 0.156300
H161  H     H_    0.523091 0.195777 0.316387 0.242297
H162  H     H_    0.582252 0.257809 0.337367 0.225380
H163  H     H_    0.516163 0.261352 0.253978 0.196288
H164  H     H_    0.740433 0.630333 0.670920 0.262786
H165  H     H_    0.704306 0.661625 0.693783 0.269094
H166  H     H_    0.735457 0.611029 0.735117 0.248918
H167  H     H_    0.632332 0.602876 0.646790 0.220186
H168  H     H_    0.670416 0.571594 0.626744 0.215621
H169  H     H_    0.260711 0.629117 0.330391 0.267143
H170  H     H_    0.296366 0.661831 0.308301 0.262110
H171  H     H_    0.503642 0.237438 0.150740 0.154936
H172  H     H_    0.266137 0.611010 0.265946 0.248785
H173  H     H_    0.369402 0.604216 0.354457 0.218768
H174  H     H_    0.331141 0.571845 0.373112 0.217719
H175  H     H_    0.240433 0.130332 0.670918 0.262793
H176  H     H_    0.204307 0.161624 0.693782 0.269095
H177  H     H_    0.235458 0.111028 0.735116 0.248901
H178  H     H_    0.132332 0.102876 0.646790 0.220185
H179  H     H_    0.170416 0.071593 0.626743 0.215624
H180  H     H_    0.760713 0.129119 0.330389 0.267143
H181  H     H_    0.796371 0.161834 0.308303 0.262111
H182  H     H_    0.677627 0.624639 0.513861 0.152258
H183  H     H_    0.766140 0.111013 0.265945 0.248784
H184  H     H_    0.869404 0.104217 0.354458 0.218769
H185  H     H_    0.831141 0.071847 0.373111 0.217716
H186  H     H_    0.455944 0.606264 0.366061 0.265326
H187  H     H_    0.480973 0.640640 0.438938 0.255983
H188  H     H_    0.466466 0.662531 0.361876 0.238722
H189  H     H_    0.561240 0.656755 0.426171 0.214094
H190  H     H_    0.543967 0.604193 0.390905 0.203420
H191  H     H_    0.531583 0.624012 0.591475 0.267473
H192  H     H_    0.497062 0.675531 0.572217 0.256755
N1    N     N_R   0.548045 0.725576 0.035183 -0.185356
N2    N     N_R   0.978298 0.757774 0.031909 -0.181695
N3    N     N_R   0.509551 0.216810 0.965620 -0.180623
N4    N     N_R   0.478304 0.257794 0.031912 -0.181691
N5    N     N_R   0.045342 0.719834 0.034267 -0.158472
N6    N     N_R   0.942514 0.754731 0.963284 -0.158526
N7    N     N_R   0.545322 0.219812 0.034268 -0.158472
N8    N     N_R   0.442517 0.254752 0.963288 -0.158526
N9    N     N_R   0.513351 0.725252 0.966410 -0.182981
N10   N     N_R   0.048046 0.225577 0.035183 -0.185356
N11   N     N_R   0.013351 0.225253 0.966409 -0.182982
N12   N     N_R   0.468592 0.786434 0.965610 -0.154794
N13   N     N_R   0.503236 0.786722 0.034346 -0.153597
N14   N     N_R   0.968591 0.286433 0.965610 -0.154794
N15   N     N_R   0.003234 0.286722 0.034346 -0.153597
N16   N     N_R   0.009574 0.716833 0.965618 -0.180621
O1    O     O_R   0.820760 0.769680 0.499980 -0.616443
O2    O     O_R   0.073990 0.954760 0.557490 -0.620159
O3    O     O_R   0.426010 0.454760 0.442510 -0.619439
O4    O     O_R   0.573990 0.454760 0.557490 -0.620158
O5    O     O_R   0.983520 0.954760 0.557520 -0.619688
O6    O     O_R   0.016480 0.954760 0.442480 -0.617065
O7    O     O_R   0.483520 0.454760 0.557520 -0.619663
O8    O     O_R   0.516480 0.454760 0.442480 -0.617080
O9    O     O_R   0.769670 0.820760 0.499990 -0.618821
O10   O     O_R   0.230330 0.820760 0.500010 -0.618534
O11   O     O_R   0.269670 0.320760 0.499990 -0.618815
O12   O     O_R   0.179240 0.769680 0.500020 -0.620682
O13   O     O_R   0.730330 0.320760 0.500010 -0.618528
O14   O     O_R   0.724610 0.724460 0.398130 -0.604548
O15   O     O_R   0.275390 0.724460 0.601870 -0.604908
O16   O     O_R   0.224610 0.224460 0.398130 -0.604544
O17   O     O_R   0.775390 0.224460 0.601870 -0.604908
O18   O     O_R   0.673520 0.775530 0.398150 -0.624473
O19   O     O_R   0.326480 0.775530 0.601850 -0.622040
O20   O     O_R   0.173520 0.275530 0.398150 -0.624468
O21   O     O_R   0.826480 0.275530 0.601850 -0.622045
O22   O     O_R   0.730310 0.679220 0.500010 -0.606256
O23   O     O_R   0.320760 0.269680 0.499980 -0.616463
O24   O     O_R   0.269690 0.679220 0.499990 -0.607159
O25   O     O_R   0.230310 0.179220 0.500010 -0.606255
O26   O     O_R   0.769690 0.179220 0.499990 -0.607160
O27   O     O_R   0.679220 0.730290 0.500020 -0.638016
O28   O     O_R   0.320780 0.730290 0.499980 -0.636562
O29   O     O_R   0.179220 0.230290 0.500020 -0.638015
O30   O     O_R   0.820780 0.230290 0.499980 -0.636564
O31   O     O_R   0.826460 0.724450 0.601850 -0.613758
O32   O     O_R   0.173540 0.724450 0.398150 -0.618277
O33   O     O_R   0.326460 0.224450 0.601850 -0.613769
O34   O     O_R   0.679240 0.269680 0.500020 -0.620671
O35   O     O_R   0.673540 0.224450 0.398150 -0.618273
O36   O     O_R   0.775370 0.775520 0.601870 -0.625707
O37   O     O_R   0.224630 0.775520 0.398130 -0.626331
O38   O     O_R   0.275370 0.275520 0.601870 -0.625714
O39   O     O_R   0.724630 0.275520 0.398130 -0.626321
O40   O     O_R   0.425990 0.545230 0.442510 -0.652815
O41   O     O_R   0.574010 0.545230 0.557490 -0.655772
O42   O     O_R   0.925990 0.045230 0.442510 -0.652819
O43   O     O_R   0.074010 0.045230 0.557490 -0.655767
O44   O     O_R   0.483490 0.545220 0.557520 -0.614564
O45   O     O_R   0.516510 0.545220 0.442480 -0.610443
O46   O     O_R   0.983490 0.045220 0.557520 -0.614562
O47   O     O_R   0.016510 0.045220 0.442480 -0.610440
O48   O     O_R   0.926010 0.954760 0.442510 -0.619433
Zn1   Zn    Zn3+2 0.784100 0.715890 0.499990 0.963813
Zn2   Zn    Zn3+2 0.538410 0.499990 0.576790 0.930322
Zn3   Zn    Zn3+2 0.961590 0.999990 0.423210 0.927491
Zn4   Zn    Zn3+2 0.038410 0.999990 0.576790 0.930316
Zn5   Zn    Zn3+2 0.215900 0.715890 0.500010 0.958280
Zn6   Zn    Zn3+2 0.284100 0.215890 0.499990 0.963790
Zn7   Zn    Zn3+2 0.715900 0.215890 0.500010 0.958291
Zn8   Zn    Zn3+2 0.715880 0.784090 0.500010 0.928948
Zn9   Zn    Zn3+2 0.284120 0.784090 0.499990 0.933026
Zn10  Zn    Zn3+2 0.215880 0.284090 0.500010 0.928949
Zn11  Zn    Zn3+2 0.784120 0.284090 0.499990 0.933028
Zn12  Zn    Zn3+2 0.461590 0.499990 0.423210 0.927487

loop_
_geom_bond_atom_site_label_1
_geom_bond_atom_site_label_2
_ccdc_geom_bond_type
C172  C177  A    
C70   H21   S    
C105  C110  A    
C225  O27   A    
C205  C220  S    
C126  C127  A    
C164  O11   A    
C19   C20   A    
C52   H168  S    
C114  C115  A    
C185  C190  A    
C66   H8    S    
C71   H18   S    
O2    Zn4   S    
C111  C118  A    
C177  H138  S    
C19   H121  S    
C35   C124  S    
C106  H61   S    
C48   C188  S    
C49   H155  S    
C170  C174  A    
C216  O44   A    
C230  N9    A    
C106  C107  A    
C143  C144  A    
O46   Zn4   S    
C108  C109  A    
C16   C219  A    
C215  C228  S    
O30   Zn11  S    
O44   Zn2   S    
C37   C42   A    
C55   H169  S    
C213  C226  S    
C4    C238  A    
C92   C97   A    
C231  O32   A    
C208  C236  A    
C15   C208  A    
C110  H65   S    
C228  O30   A    
C59   C60   S    
C78   C238  S    
O9    Zn8   S    
C58   H176  S    
C118  H71   S    
C54   H173  S    
C136  H85   S    
O1    Zn1   S    
C182  O19   A    
C14   C197  A    
C48   H157  S    
N3    N7    A    
C45   C47   S    
C165  C169  A    
C146  C161  D    
C122  H74   S    
C203  C217  S    
C97   H54   S    
C77   H33   S    
C1    C159  S    
O25   Zn6   S    
C28   H129  S    
C74   H32   S    
C167  C171  A    
C179  C188  A    
O24   Zn5   S    
C58   H177  S    
O48   Zn3   S    
C209  C213  D    
C59   H184  S    
C114  H66   S    
C178  H149  S    
C43   C44   S    
C33   H133  S    
C37   C38   A    
C220  O43   A    
C2    N13   A    
C74   H31   S    
C72   H26   S    
C76   C77   S    
C62   H187  S    
C44   H142  S    
C154  C155  A    
C46   C90   D    
C212  C225  S    
C41   H140  S    
C226  O28   A    
C137  H86   S    
C182  O15   A    
C66   H6    S    
C91   H49   S    
C112  C160  S    
C42   H141  S    
C235  H105  S    
C215  H24   S    
C87   H45   S    
C72   C73   S    
C147  H94   S    
C139  C140  A    
C227  O29   A    
C196  N7    A    
C56   C201  S    
C26   H126  S    
C99   H55   S    
C200  C209  S    
C30   C36   A    
C38   H136  S    
C219  C237  A    
C156  H103  S    
C156  C158  A    
C130  C131  A    
C70   C207  S    
C179  H160  S    
O8    Zn12  S    
C183  O16   A    
C3    C98   S    
C30   C31   A    
C145  C161  S    
C229  O36   A    
C163  C190  A    
C69   H11   S    
C7    C13   S    
C61   H189  S    
C20   C21   A    
O23   Zn6   S    
C191  C231  S    
C98   C99   A    
C101  H109  S    
C155  C156  A    
C86   H44   S    
C67   C69   S    
C149  C150  A    
C157  C162  D    
C63   C204  S    
C147  C148  A    
C202  C211  S    
C128  C129  A    
C229  O31   A    
O34   Zn7   S    
C44   H143  S    
C64   H3    S    
C127  H77   S    
C67   H16   S    
C165  H117  S    
C93   H50   S    
O22   Zn1   S    
C23   C29   A    
C21   C22   A    
C213  H2    S    
C27   H128  S    
C180  C189  A    
C38   C39   A    
C78   C80   A    
C65   C205  S    
C43   C185  S    
C71   H19   S    
C115  C116  A    
C51   H158  S    
C153  H99   S    
C50   C189  S    
C96   H53   S    
C44   H144  S    
C45   H152  S    
C196  N4    A    
C43   H146  S    
C230  N12   A    
C83   C84   A    
C222  O6    A    
C80   H39   S    
C107  C108  A    
C151  H98   S    
C89   C91   A    
O17   Zn7   S    
C20   H122  S    
C39   H137  S    
C124  H111  S    
C200  C204  D    
O42   Zn3   S    
C116  H69   S    
C109  H64   S    
C65   H10   S    
C96   C97   A    
C55   H172  S    
C167  C193  A    
C182  C197  S    
C157  H114  S    
C22   H124  S    
C100  C102  A    
C216  O40   A    
C194  N5    A    
C69   H14   S    
C24   N15   A    
C225  O22   A    
C237  H127  S    
C63   H5    S    
C84   H43   S    
C132  C159  S    
C8    H35   S    
C39   C40   A    
C52   C199  S    
C45   C187  S    
C162  C175  S    
C25   C26   A    
C78   C84   A    
N12   N13   A    
C50   H163  S    
C2    C4    S    
C29   H130  S    
C5    C9    A    
O13   Zn11  S    
O11   Zn10  S    
C72   C209  S    
C23   C169  S    
C168  C172  A    
C104  H60   S    
C6    C24   S    
C17   C18   A    
C140  H88   S    
O19   Zn9   S    
C214  C227  S    
C56   H179  S    
N2    N6    A    
C166  C170  A    
C128  H78   S    
C123  H75   S    
C212  H182  S    
C51   H161  S    
C173  C194  S    
C120  C121  A    
C223  O7    A    
C129  C130  A    
C54   C55   S    
C92   C240  S    
C222  O2    A    
C94   H51   S    
C115  H67   S    
C60   H181  S    
C136  C137  A    
C17   C168  S    
C102  H58   S    
C68   H106  S    
C181  C186  S    
C220  O47   A    
C2    N1    A    
C71   H17   S    
C57   C101  D    
C171  C176  A    
C204  C216  S    
C188  C192  A    
O26   Zn7   S    
C163  C168  A    
C83   H42   S    
C117  C118  A    
C10   H57   S    
C194  N2    A    
C59   C202  S    
C173  C178  A    
C63   H4    S    
C35   C79   D    
C56   C58   S    
C34   C36   A    
C164  O23   A    
C61   C62   S    
C131  H82   S    
C221  O48   A    
C158  H104  S    
C63   C64   S    
C129  H80   S    
C189  C193  A    
O32   Zn5   S    
C176  C180  A    
C152  C153  A    
C218  O42   A    
C217  O41   A    
C201  C205  D    
O27   Zn8   S    
C154  H100  S    
C148  H95   S    
N10   N11   A    
O38   Zn10  S    
O37   Zn9   S    
C73   H23   S    
C214  H13   S    
C1    O1    A    
C87   C88   A    
C54   H174  S    
C41   C42   A    
O18   Zn8   S    
C100  H56   S    
C197  C235  A    
C18   H120  S    
C52   C53   S    
C64   H191  S    
C103  H59   S    
C26   C27   A    
C21   H123  S    
C76   H37   S    
C149  H96   S    
C28   C29   A    
C3    C7    A    
C52   H167  S    
C12   C105  S    
C113  H110  S    
C123  C125  A    
C132  C138  A    
C46   H90   S    
C177  C185  A    
C18   C19   A    
C234  C238  A    
C40   H139  S    
C30   C170  S    
C46   C135  S    
C175  O13   A    
C70   C71   S    
O40   Zn12  S    
C195  N6    A    
C51   H159  S    
C8    C12   A    
C62   H188  S    
O12   Zn5   S    
C68   C113  D    
C75   H28   S    
C70   H20   S    
C57   C146  S    
C199  C203  D    
C135  H112  S    
C120  H72   S    
C184  O21   A    
C125  H76   S    
C193  C233  S    
C145  C147  A    
C79   C221  S    
C66   H7    S    
C152  C158  A    
C144  H93   S    
C88   H47   S    
C224  O8    A    
C226  O24   A    
C86   C87   A    
C35   H79   S    
C85   C86   A    
C32   H132  S    
C34   H134  S    
C55   H170  S    
C9    C14   A    
C37   C171  S    
C146  H113  S    
C11   C16   A    
C112  O10   A    
C12   C186  A    
O3    Zn12  S    
C143  H92   S    
C140  C141  A    
C121  C122  A    
C67   C206  S    
C73   H25   S    
C163  H115  S    
C178  C187  A    
C119  C125  A    
C48   C49   S    
C75   H30   S    
C139  C160  S    
C58   H175  S    
C233  O35   A    
C133  C134  A    
O20   Zn10  S    
C68   C157  S    
C150  H97   S    
C56   H178  S    
C161  C164  S    
C134  H84   S    
C192  C232  S    
C36   H135  S    
C135  C160  D    
C5    C239  A    
C235  C239  A    
C77   H34   S    
C6    C10   A    
C223  O3    A    
C119  C120  A    
O36   Zn8   S    
C67   H15   S    
C105  C106  A    
C17   C22   A    
C25   H125  S    
C190  C229  S    
C32   C33   A    
C232  O33   A    
C59   H185  S    
C109  C110  A    
C53   H165  S    
C53   H166  S    
O31   Zn1   S    
C92   C93   A    
C165  C191  A    
C111  C114  A    
C166  C192  A    
C94   C95   A    
C62   H186  S    
O16   Zn6   S    
C198  N3    A    
C45   H151  S    
C60   H183  S    
O35   Zn7   S    
C108  H63   S    
C43   H145  S    
O10   Zn9   S    
C89   H48   S    
C82   C83   A    
C103  C104  A    
C218  O46   A    
C142  C143  A    
C172  C195  S    
O47   Zn3   S    
C183  O20   A    
C49   H154  S    
C16   C126  S    
C53   H164  S    
C152  C162  S    
N4    N8    A    
O7    Zn2   S    
C47   H147  S    
C181  O18   A    
C211  C215  D    
O5    Zn4   S    
C167  H119  S    
N14   N15   A    
C65   H9    S    
C81   H40   S    
C90   H108  S    
C95   C96   A    
C4    C8    A    
O39   Zn11  S    
C142  H91   S    
C81   C82   A    
C85   C91   A    
N1    N9    A    
C228  O26   A    
C166  H118  S    
C206  C218  S    
C7    C11   A    
C9    H46   S    
C74   C210  S    
C90   C222  S    
C10   C15   A    
C47   H150  S    
N5    N16   A    
C112  O12   A    
C121  H73   S    
C124  C159  D    
C217  O45   A    
C54   C200  S    
C116  C117  A    
C195  N16   A    
C69   H12   S    
C184  C219  S    
C61   H190  S    
C15   C119  S    
C132  C133  A    
C221  O5    A    
O45   Zn12  S    
C187  C191  A    
C133  H83   S    
C130  H81   S    
C88   C89   A    
C101  C223  S    
C181  O14   A    
O28   Zn9   S    
C183  C208  S    
C77   H36   S    
C102  C103  A    
O15   Zn5   S    
C198  N8    A    
C60   H180  S    
C57   H101  S    
C50   C51   S    
C14   C111  S    
C174  C198  S    
C74   C75   S    
C148  C149  A    
C134  C136  A    
C75   H29   S    
C210  C214  D    
C6    C240  A    
C72   H27   S    
C236  C240  A    
O4    Zn2   S    
C85   C239  S    
C113  C224  S    
C13   N11   A    
C107  H62   S    
C49   H153  S    
C139  C144  A    
C99   C100  A    
C1    O9    A    
C138  H87   S    
C199  C207  S    
C33   C34   A    
C184  O17   A    
C93   C94   A    
C95   H52   S    
C176  C196  S    
C145  C151  A    
C175  O34   A    
C3    C237  A    
C76   C211  S    
C40   C41   A    
C207  C212  D    
O14   Zn1   S    
C201  C210  S    
C224  O4    A    
C73   H22   S    
C24   N10   A    
O33   Zn6   S    
C117  H70   S    
C169  C173  A    
C11   H68   S    
C5    C230  S    
C232  O38   A    
C31   C32   A    
C80   C81   A    
C231  O37   A    
C155  H102  S    
O6    Zn3   S    
C64   H192  S    
C137  C138  A    
C47   H148  S    
C79   H107  S    
C150  C151  A    
C76   H38   S    
C50   H162  S    
C122  C123  A    
C141  C142  A    
C61   C203  S    
C180  H171  S    
O29   Zn10  S    
C126  C131  A    
C98   C104  A    
C233  O39   A    
C31   H131  S    
C141  H89   S    
O21   Zn11  S    
C23   C25   A    
O43   Zn4   S    
C48   H156  S    
C234  H1    S    
C227  O25   A    
O41   Zn2   S    
C65   C66   S    
C202  C206  D    
C27   C28   A    
C236  H116  S    
C186  C234  A    
C153  C154  A    
C82   H41   S    
C174  C179  A    
C13   N14   A    
C127  C128  A    
