data_mof_unit_pretest_534.cif
_audit_creation_date              2013-03-05T16:00:48-0500
_audit_creation_method            fapswitch 2.2
_symmetry_space_group_name_H-M    P1
_symmetry_Int_Tables_number       1
_space_group_crystal_system       triclinic
_cell_length_a                    14.761512
_cell_length_b                    14.653626
_cell_length_c                    15.876358
_cell_angle_alpha                 75.992971
_cell_angle_beta                  102.332846
_cell_angle_gamma                 114.841404
_cell_volume                      2999.27023146

loop_
_atom_site_label
_atom_site_type_symbol
_atom_site_description
_atom_site_fract_x
_atom_site_fract_y
_atom_site_fract_z
_atom_type_partial_charge
O1    O     O_R   0.977910 0.338120 0.529720 -0.560144
O2    O     O_R   0.839850 0.379180 0.491640 -0.575092
C1    C     C_R   0.880814 0.311991 0.518748 0.799179
O3    O     O_R   0.069060 0.479460 0.639610 -0.594749
O4    O     O_R   0.931000 0.520530 0.601530 -0.576146
C2    C     C_R   0.999484 0.499706 0.659498 0.831045
Cu1   Cu    Cu3+1 0.081750 0.475690 0.522550 1.058507
Cu2   Cu    Cu3+1 0.918250 0.524310 0.477450 1.005976
O5    O     O_R   0.160150 0.620820 0.508360 -0.531044
O6    O     O_R   0.022090 0.661880 0.470280 -0.575440
O7    O     O_R   0.069000 0.479470 0.398470 -0.507419
O8    O     O_R   0.930940 0.520540 0.360390 -0.597704
C3    C     C_R   0.119819 0.688868 0.486991 0.860870
C4    C     C_R   0.000409 0.500006 0.340521 0.844372
C5    C     C_3   0.057549 0.433986 0.976002 -0.384943
C6    C     C_3   0.890890 0.456338 0.940302 0.190516
C7    C     C_3   0.892884 0.445847 0.040607 -0.473891
H1    H     H_    0.017765 0.353492 0.966151 0.249780
H2    H     H_    0.857586 0.513554 0.907106 0.119216
H3    H     H_    0.860204 0.364781 0.072126 0.266082
H4    H     H_    0.843701 0.481251 0.051543 0.167673
C8    C     C_1   0.001343 0.499783 0.251247 -0.056639
C9    C     C_3   0.001024 0.500068 0.916850 0.021061
C10   C     C_3   0.068500 0.443167 0.073473 -0.165506
C11   C     C_3   0.002679 0.499787 0.083742 0.024734
C12   C     C_3   0.042815 0.612298 0.032366 0.109696
C13   C     C_3   0.053626 0.612394 0.936056 -0.317758
C14   C     C_1   0.002024 0.499672 0.175939 0.029668
C15   C     C_1   0.999508 0.499673 0.824410 0.009303
C16   C     C_1   0.998942 0.499677 0.748857 -0.069322
H5    H     H_    0.010162 0.656120 0.892346 0.147405
H6    H     H_    0.133025 0.457441 0.956254 0.204565
H7    H     H_    0.148614 0.490495 0.091948 0.227420
H8    H     H_    0.982282 0.640987 0.026786 0.130423
C17   C     C_R   0.813890 0.205047 0.546761 -0.174496
C18   C     C_R   0.188127 0.799751 0.477973 -0.214106
C19   C     C_R   0.760859 0.061301 0.665614 0.286010
C20   C     C_R   0.838371 0.145273 0.625325 -0.117557
C21   C     C_R   0.715786 0.172230 0.503811 -0.202257
C22   C     C_R   0.637061 0.087192 0.541418 0.068014
C23   C     C_R   0.660073 0.034914 0.625636 -0.008795
C24   C     C_R   0.535272 0.055985 0.500031 0.061536
C25   C     C_R   0.458895 0.971570 0.542855 0.090806
C26   C     C_R   0.482805 0.932482 0.630933 -0.142038
C27   C     C_R   0.581523 0.959638 0.669979 -0.116786
C28   C     C_R   0.506851 0.106338 0.417689 -0.199035
C29   C     C_R   0.406267 0.081128 0.382252 0.352824
C30   C     C_R   0.330632 0.996574 0.425099 -0.081301
C31   C     C_R   0.359274 0.932403 0.498045 -0.058385
C32   C     C_R   0.227395 0.974109 0.396625 0.311847
C33   C     C_R   0.155919 0.875659 0.422929 -0.127343
C34   C     C_R   0.289350 0.830147 0.519885 -0.029694
H9    H     H_    0.595132 0.922311 0.736246 0.203066
H10   H     H_    0.702530 0.219840 0.443356 0.180702
H11   H     H_    0.425157 0.881323 0.671533 0.164294
H12   H     H_    0.560747 0.166704 0.378534 0.180015
N1    N     N_R   0.795410 0.560790 0.443550 -0.192686
N2    N     N_R   0.204590 0.439170 0.556520 -0.231793
C35   C     C_R   0.711122 0.662647 0.351842 -0.255402
C36   C     C_R   0.791523 0.632100 0.372129 0.120444
C37   C     C_R   0.718717 0.512371 0.493820 0.087765
C38   C     C_R   0.628929 0.530999 0.470828 -0.003682
C39   C     C_R   0.631197 0.614333 0.402378 0.143970
C40   C     C_R   0.540233 0.475519 0.515421 0.008492
C41   C     C_R   0.462315 0.514199 0.495779 0.084076
C42   C     C_R   0.478456 0.608038 0.438484 -0.089432
C43   C     C_R   0.557156 0.653147 0.388474 -0.144459
C44   C     C_R   0.525052 0.383275 0.577549 -0.076668
C45   C     C_R   0.447081 0.345337 0.631182 -0.049632
C46   C     C_R   0.371087 0.384927 0.611149 0.018610
C47   C     C_R   0.372358 0.461220 0.536926 -0.088061
C48   C     C_R   0.290909 0.346632 0.661594 -0.218340
C49   C     C_R   0.210495 0.377304 0.634433 0.069120
C50   C     C_R   0.281899 0.479492 0.505763 0.481890
H13   H     H_    0.562747 0.722116 0.341497 0.170069
H14   H     H_    0.150511 0.348513 0.674563 0.155404
H15   H     H_    0.711933 0.724383 0.297777 0.159507
H16   H     H_    0.852662 0.667303 0.332794 0.142379
H17   H     H_    0.731364 0.462893 0.553087 0.146053
H18   H     H_    0.432229 0.650004 0.433001 0.212110
H19   H     H_    0.289322 0.292833 0.722031 0.178722
C51   C     C_2   0.048109 0.340366 0.133096 0.885843
O9    O     O_2   0.112239 0.329999 0.193282 -0.480821
O10   O     O_R   0.957522 0.257346 0.119269 -0.713913
H20   H     H_    0.953855 0.193473 0.163516 0.367668
C52   C     C_2   0.324440 0.752193 0.578474 0.867713
O11   O     O_2   0.393393 0.737318 0.561008 -0.589892
O12   O     O_R   0.278219 0.696083 0.653374 -0.758671
H21   H     H_    0.307954 0.644869 0.687517 0.338163
C53   C     C_2   0.048395 0.854420 0.391561 0.936753
O13   O     O_2   0.992000 0.844120 0.442578 -0.554746
O14   O     O_R   0.012345 0.848207 0.303414 -0.698934
H22   H     H_    0.939949 0.841986 0.288215 0.328131
N3    N     N_R   0.384188 0.134404 0.296934 0.162629
O15   O     O_R   0.333190 0.083326 0.233973 -0.260160
O16   O     O_R   0.429929 0.233110 0.278117 -0.274392
N4    N     N_R   0.784715 0.004145 0.748121 0.127665
O17   O     O_R   0.838416 0.951385 0.752951 -0.296640
O18   O     O_R   0.764469 0.015828 0.819707 -0.276956
C54   C     C_2   0.942699 0.173130 0.669965 0.927012
O19   O     O_2   0.007754 0.172276 0.634069 -0.545375
O20   O     O_R   0.965478 0.196426 0.754281 -0.706367
H23   H     H_    0.038617 0.211702 0.778887 0.333601
N5    N     N_R   0.194784 0.054747 0.350219 0.150670
O21   O     O_R   0.137667 0.046803 0.275401 -0.237126
O22   O     O_R   0.226610 0.138988 0.381176 -0.269859
N6    N     N_R   0.263967 0.522854 0.415727 0.113424
O23   O     O_R   0.257451 0.611575 0.394205 -0.343219
O24   O     O_R   0.265257 0.478399 0.354535 -0.281499
C55   C     C_2   0.439125 0.256464 0.702384 0.883194
O25   O     O_2   0.370288 0.173713 0.695639 -0.551191
O26   O     O_R   0.510358 0.268098 0.776973 -0.662156
H24   H     H_    0.497364 0.202256 0.820763 0.367619
C56   C     C_2   0.577001 0.315937 0.576999 0.809126
O27   O     O_2   0.576899 0.292913 0.507959 -0.585389
O28   O     O_R   0.627351 0.280653 0.654384 -0.693096
H25   H     H_    0.661299 0.237188 0.644941 0.342278
N7    N     N_R   0.825841 0.359960 0.908854 0.155094
O29   O     O_R   0.836719 0.274915 0.945218 -0.271165
O30   O     O_R   0.752570 0.358254 0.846062 -0.280482
C57   C     C_2   0.160044 0.668518 0.911713 0.975812
O31   O     O_2   0.227560 0.640371 0.949531 -0.546501
O32   O     O_R   0.180302 0.753439 0.844595 -0.716676
H26   H     H_    0.253183 0.784516 0.833302 0.355177
N8    N     N_R   0.133099 0.683249 0.078219 0.153230
O33   O     O_R   0.211272 0.661099 0.112100 -0.277457
O34   O     O_R   0.132450 0.767647 0.090382 -0.275583

loop_
_geom_bond_atom_site_label_1
_geom_bond_atom_site_label_2
_geom_bond_distance
_ccdc_geom_bond_type
C5    H1    1.108463 S    
C32   N5    1.440777 S    
C35   H15   1.083842 S    
C19   N4    1.435623 S    
C56   O27   1.221963 D    
C13   C57   1.520990 S    
O32   H26   1.013987 S    
C11   C14   1.465438 S    
Cu1   O7    1.927876 S    
C36   H16   1.079003 S    
C12   C13   1.570505 S    
C38   C39   1.418470 A    
C9    C15   1.464386 S    
C19   C20   1.407524 A    
C45   C46   1.414630 A    
C33   C53   1.478663 S    
O4    C2    1.299189 A    
O7    C4    1.298543 A    
C52   O12   1.399116 S    
C21   H10   1.075432 S    
C7    H3    1.108209 S    
C10   C51   1.518669 S    
O28   H25   1.012807 S    
C24   C28   1.410076 A    
O5    C3    1.308663 A    
N7    O29   1.300926 A    
O14   H22   1.013526 S    
C38   C40   1.448934 A    
C50   N6    1.434272 S    
C55   O25   1.222899 D    
C12   H8    1.116616 S    
C6    C7    1.557483 S    
N6    O23   1.300853 A    
C46   C47   1.411702 A    
C9    C13   1.572606 S    
C22   C24   1.430011 A    
Cu1   N2    2.030564 S    
C48   H19   1.081949 S    
C18   C34   1.425967 A    
C5    C9    1.555560 S    
C42   C43   1.382648 A    
C27   H9    1.081607 S    
C35   C36   1.387796 A    
C8    C14   1.198190 T    
N6    O24   1.301246 A    
C37   C38   1.418989 A    
O3    Cu1   1.923335 S    
N5    O22   1.301484 A    
N5    O21   1.300781 A    
N4    O18   1.300987 A    
N4    O17   1.300879 A    
C55   O26   1.397231 S    
C39   C43   1.387544 A    
C13   H5    1.115229 S    
O20   H23   1.013632 S    
Cu1   Cu2   2.702758 S    
C17   C20   1.413542 A    
C10   C11   1.571455 S    
C3    C18   1.499933 S    
C20   C54   1.478586 S    
C21   C22   1.406867 A    
C52   O11   1.223395 D    
C25   C31   1.428165 A    
N1    C36   1.352758 A    
C11   C12   1.571385 S    
C41   C47   1.432366 A    
C7    H4    1.113683 S    
O1    C1    1.302215 A    
C12   N8    1.474708 S    
C17   C21   1.394699 A    
C25   C26   1.406886 A    
C15   C16   1.197726 T    
C6    N7    1.470707 S    
Cu2   N1    2.030213 S    
C47   C50   1.433035 A    
C45   C55   1.484332 S    
C53   O14   1.397417 S    
C29   C30   1.413721 A    
C1    C17   1.476175 S    
Cu2   O8    1.923337 S    
C31   C34   1.425747 A    
C54   O20   1.397857 S    
C32   C33   1.409443 A    
O10   H20   1.013827 S    
N3    O16   1.301401 A    
C57   O31   1.222203 D    
C18   C33   1.422425 A    
O3    C2    1.297086 A    
C22   C23   1.420849 A    
C2    C16   1.420327 S    
O8    C4    1.298087 A    
C51   O9    1.223290 D    
C6    C9    1.568450 S    
C51   O10   1.397613 S    
N8    O33   1.300515 A    
C49   H14   1.079333 S    
C43   H13   1.084331 S    
C24   C25   1.418465 A    
C40   C44   1.429949 A    
C26   C27   1.382917 A    
N2    C50   1.377173 A    
Cu1   O5    1.929862 S    
C28   C29   1.393009 A    
C5    C10   1.553890 S    
O1    Cu1   1.947703 S    
C44   C45   1.417996 A    
O2    Cu2   1.929861 S    
C48   C49   1.390252 A    
O6    C3    1.309921 A    
C5    H6    1.110430 S    
O4    Cu2   1.927876 S    
C56   O28   1.398025 S    
N1    C37   1.363458 A    
C42   H18   1.073623 S    
C35   C39   1.401612 A    
C10   H7    1.107579 S    
C7    C11   1.559517 S    
C40   C41   1.431935 A    
C4    C8    1.421169 S    
C34   C52   1.488405 S    
O2    C1    1.305450 A    
C26   H11   1.079829 S    
C53   O13   1.222758 D    
C37   H17   1.074390 S    
C6    H2    1.115416 S    
C30   C31   1.414904 A    
C30   C32   1.411140 A    
C54   O19   1.222494 D    
C29   N3    1.436568 S    
O26   H24   1.013788 S    
C19   C23   1.413455 A    
N3    O15   1.301325 A    
N7    O30   1.301167 A    
C57   O32   1.398208 S    
O12   H21   1.013864 S    
Cu2   O6    1.947703 S    
C41   C42   1.409554 A    
C28   H12   1.075004 S    
N8    O34   1.301250 A    
C23   C27   1.398201 A    
C46   C48   1.409407 A    
N2    C49   1.355376 A    
C44   C56   1.484787 S    
