data_mof_unit_pretest_819.cif
_audit_creation_date              2012-12-10T18:02:05-0500
_audit_creation_method            fapswitch 2.2
_symmetry_space_group_name_H-M    P1
_symmetry_Int_Tables_number       1
_space_group_crystal_system       triclinic
_cell_length_a                    10.902535
_cell_length_b                    9.764158
_cell_length_c                    23.657114
_cell_angle_alpha                 89.999701
_cell_angle_beta                  101.228296
_cell_angle_gamma                 89.999099
_cell_volume                      2470.19183163

loop_
_atom_site_label
_atom_site_type_symbol
_atom_type_description
_atom_site_fract_x
_atom_site_fract_y
_atom_site_fract_z
_atom_type_partial_charge
C1    C     C_R   0.264183 0.499905 0.503566 0.842628
C2    C     C_R   0.735817 0.499904 0.496434 0.842711
C3    C     C_R   0.577894 0.391625 0.247240 0.454588
C4    C     C_R   0.421999 0.391722 0.752751 0.454398
C5    C     C_R   0.586307 0.406994 0.306881 0.362650
C6    C     C_R   0.413623 0.407068 0.693111 0.362677
C7    C     C_R   0.500629 0.493251 0.328105 -0.406807
C8    C     C_R   0.499359 0.493263 0.671894 -0.406819
C9    C     C_R   0.411058 0.564865 0.287591 0.338801
C10   C     C_R   0.588952 0.564845 0.712410 0.338690
C11   C     C_R   0.426241 0.578215 0.230618 0.391302
C12   C     C_R   0.573770 0.578209 0.769383 0.391717
C13   C     C_R   0.503031 0.483585 0.208528 -0.084718
C14   C     C_R   0.496916 0.483635 0.791466 -0.084769
C15   C     C_R   0.064710 0.374074 0.505150 0.402145
C16   C     C_R   0.935197 0.624394 0.493783 0.365786
C17   C     C_R   0.935293 0.374073 0.494852 0.402221
C18   C     C_R   0.064799 0.624395 0.506213 0.365830
C19   C     C_R   0.868941 0.499352 0.492516 -0.464061
C20   C     C_R   0.131059 0.499353 0.507484 -0.464095
C21   C     C_R   0.416888 0.076643 0.458608 0.324686
C22   C     C_R   0.579662 0.927252 0.543149 0.291339
C23   C     C_R   0.583110 0.076639 0.541392 0.324709
C24   C     C_R   0.420335 0.927255 0.456852 0.291369
C25   C     C_R   0.498606 0.499069 0.390973 0.880070
C26   C     C_R   0.501394 0.499070 0.609027 0.880048
C27   C     C_R   0.604030 0.459672 0.891066 0.662285
C28   C     C_R   0.395890 0.459716 0.108928 0.661690
C29   C     C_R   0.385446 0.506708 0.870782 0.687367
C30   C     C_R   0.614507 0.506532 0.129210 0.687432
C31   C     C_R   0.383201 0.514304 0.930438 -0.181697
C32   C     C_R   0.616740 0.514189 0.069556 -0.181731
C33   C     C_R   0.498476 0.502693 0.970040 -0.095597
C34   C     C_R   0.501458 0.502678 0.029954 -0.095574
C35   C     C_R   0.611086 0.487464 0.950010 -0.150869
C36   C     C_R   0.388844 0.487519 0.049984 -0.151578
C37   C     C_R   0.271668 0.532972 0.952376 0.382233
C38   C     C_R   0.728276 0.532824 0.047620 0.382203
C39   C     C_R   0.273392 0.505404 0.010991 0.332883
C40   C     C_R   0.726547 0.505269 0.989005 0.333394
Cu1   Cu    Cu3+1 0.500000 0.640660 0.500000 1.119761
Cu2   Cu    Cu3+1 0.500000 0.359340 0.500000 1.124459
N1    N     N_R   0.494969 0.481532 0.852485 -0.441603
N2    N     N_R   0.504968 0.481472 0.147509 -0.441654
N3    N     N_R   0.500000 0.852070 0.500000 -0.297491
N4    N     N_R   0.500000 0.147930 0.500000 -0.316944
O1    O     O_R   0.319640 0.618740 0.500000 -0.539942
O2    O     O_R   0.680360 0.381260 0.500000 -0.516516
O3    O     O_R   0.680360 0.618740 0.500000 -0.539962
O4    O     O_R   0.319640 0.381260 0.500000 -0.516548
O5    O     O_R   0.499960 0.618810 0.417880 -0.495410
O6    O     O_R   0.500040 0.381190 0.582120 -0.521155
O7    O     O_R   0.500040 0.618810 0.582120 -0.495398
O8    O     O_R   0.499960 0.381190 0.417880 -0.521133
O9    O     O_2   0.704496 0.410822 0.872100 -0.437009
O10   O     O_2   0.295396 0.410955 0.127893 -0.436664
O11   O     O_2   0.279332 0.517840 0.831058 -0.416553
O12   O     O_2   0.720647 0.517475 0.168927 -0.416688
S1    S     S_3+6 0.133400 0.607583 0.910684 0.147805
O13   O     O_2   0.057779 0.497990 0.875200 -0.161681
O14   O     O_2   0.055282 0.673498 0.948874 -0.192164
O15   O     O_3   0.171461 0.730202 0.867142 -0.457716
H1    H     H_    0.091130 0.757630 0.842415 0.409396
S2    S     S_3+6 0.866544 0.607437 0.089308 0.147926
O16   O     O_2   0.942264 0.497808 0.124722 -0.161736
O17   O     O_2   0.944550 0.673520 0.051112 -0.192065
O18   O     O_3   0.828507 0.729908 0.132919 -0.457534
H2    H     H_    0.908852 0.757100 0.157722 0.409392
O19   O     O_3   0.161345 0.504545 0.029568 -0.555813
H3    H     H_    0.171197 0.565727 0.063498 0.398097
O20   O     O_3   0.838601 0.504362 0.970432 -0.555906
H4    H     H_    0.828768 0.565517 0.936492 0.398442
O21   O     O_3   0.647789 0.288899 0.228732 -0.581335
H5    H     H_    0.614803 0.270514 0.187416 0.342543
O22   O     O_3   0.352013 0.289066 0.771253 -0.581435
H6    H     H_    0.384946 0.270693 0.812574 0.342418
O23   O     O_3   0.676764 0.332145 0.342773 -0.619168
H7    H     H_    0.699626 0.381577 0.379779 0.287197
O24   O     O_3   0.323134 0.332265 0.657215 -0.619187
H8    H     H_    0.300324 0.381695 0.620204 0.287185
O25   O     O_3   0.300411 0.609766 0.300323 -0.560703
H9    H     H_    0.272167 0.537718 0.324315 0.348310
O26   O     O_3   0.699602 0.609733 0.699676 -0.560651
H10   H     H_    0.727831 0.537685 0.675679 0.348245
S3    S     S_3+6 0.344968 0.713190 0.188717 0.122570
O27   O     O_2   0.212434 0.669049 0.166189 -0.223130
O28   O     O_2   0.343235 0.837204 0.226184 -0.131702
O29   O     O_3   0.414074 0.755846 0.133497 -0.537300
H11   H     H_    0.348306 0.802739 0.105339 0.379086
S4    S     S_3+6 0.655115 0.713139 0.811291 0.122178
O30   O     O_2   0.787637 0.668936 0.833819 -0.222472
O31   O     O_2   0.656872 0.837153 0.773822 -0.132633
O32   O     O_3   0.586057 0.755816 0.866520 -0.538192
H12   H     H_    0.651143 0.805005 0.894160 0.379960
O33   O     O_3   0.122757 0.248146 0.511328 -0.573349
H13   H     H_    0.187681 0.251942 0.546910 0.347556
O34   O     O_3   0.876533 0.749635 0.484257 -0.609240
H14   H     H_    0.810443 0.740030 0.449186 0.343288
O35   O     O_3   0.877248 0.248146 0.488675 -0.573314
H15   H     H_    0.812325 0.251942 0.453093 0.347509
O36   O     O_3   0.123461 0.749635 0.515739 -0.609232
H16   H     H_    0.189550 0.740030 0.550811 0.343294
S5    S     S_3+6 0.302509 0.165497 0.404070 0.140933
O37   O     O_2   0.334580 0.132929 0.346509 -0.197902
O38   O     O_2   0.176849 0.107318 0.408401 -0.192690
O39   O     O_3   0.277626 0.334577 0.400463 -0.514814
H17   H     H_    0.196154 0.346916 0.373858 0.362310
S6    S     S_3+6 0.661201 0.841988 0.608552 0.164038
O40   O     O_2   0.770019 0.911485 0.645996 -0.139536
O41   O     O_2   0.564619 0.825546 0.645492 -0.202189
O42   O     O_3   0.722859 0.690695 0.597034 -0.498748
H18   H     H_    0.811278 0.708964 0.594857 0.374795
S7    S     S_3+6 0.697486 0.165487 0.595931 0.140897
O43   O     O_2   0.665396 0.132928 0.653489 -0.198082
O44   O     O_2   0.823147 0.107296 0.591607 -0.192600
O45   O     O_3   0.722384 0.334561 0.599534 -0.514860
H19   H     H_    0.803710 0.346898 0.626224 0.362346
S8    S     S_3+6 0.338790 0.841995 0.391452 0.164027
O46   O     O_2   0.229961 0.911492 0.354014 -0.139561
O47   O     O_2   0.435366 0.825567 0.354507 -0.202188
O48   O     O_3   0.277146 0.690693 0.402967 -0.498774
H20   H     H_    0.188722 0.708948 0.405139 0.374777

loop_
_geom_bond_atom_site_label_1
_geom_bond_atom_site_label_2
_ccdc_geom_bond_type
C38   C40   A    
O32   H12   S    
C40   O20   S    
C8    C26   S    
Cu1   Cu2   S    
O33   H13   S    
O34   H14   S    
C28   O10   S    
S3    O27   D    
S6    O40   D    
O36   H16   S    
O26   H10   S    
C24   N3    A    
C12   S4    S    
S7    O43   D    
C15   O33   S    
C27   O9    S    
C16   O34   S    
O39   H17   S    
C10   O26   S    
O45   H19   S    
C15   C17   A    
O21   H5    S    
S8    O46   D    
C4    O22   S    
C33   C35   A    
O42   H18   S    
S1    O15   S    
C31   C33   A    
C32   C38   A    
C1    O4    A    
C18   C20   A    
C3    C13   A    
S7    O45   S    
S1    O13   D    
C23   N4    A    
C29   N1    A    
C30   N2    A    
Cu1   O3    S    
O25   H9    S    
C38   S2    S    
S3    O28   D    
Cu1   O1    S    
C15   C20   A    
S1    O14   D    
O18   H2    S    
S2    O18   S    
C25   O8    A    
C4    C6    A    
C5    C7    A    
C1    O1    A    
C6    C8    A    
C27   C35   A    
O23   H7    S    
C28   N2    A    
C31   C37   A    
C18   O36   S    
S2    O17   D    
O22   H6    S    
C25   O5    A    
O15   H1    S    
C2    O3    A    
C26   O6    A    
C23   S7    S    
C17   O35   S    
S4    O31   D    
O35   H15   S    
C29   C31   A    
C33   C34   A    
C39   O19   S    
S5    O38   D    
Cu2   O2    S    
C9    C11   A    
Cu1   O7    S    
O48   H20   S    
C37   S1    S    
C10   C12   A    
Cu2   O4    S    
C8    C10   A    
C12   C14   A    
Cu2   N4    S    
C5    O23   S    
C26   O7    A    
S4    O32   S    
C21   N4    A    
S3    O29   S    
C7    C9    A    
C1    C20   S    
C2    C19   S    
C36   C39   A    
C29   O11   S    
C3    C5    A    
Cu1   O5    S    
C24   S8    S    
C7    C25   S    
S6    O42   S    
C2    O2    A    
S2    O16   D    
C35   C40   A    
O20   H4    S    
C37   C39   A    
Cu2   O8    S    
C30   C32   A    
C11   C13   A    
S4    O30   D    
C11   S3    S    
C16   C19   A    
C22   S6    S    
C30   O12   S    
C17   C19   A    
S6    O41   D    
S5    O39   S    
C34   C36   A    
C4    C14   A    
O19   H3    S    
C3    O21   S    
S8    O47   D    
C6    O24   S    
O24   H8    S    
C21   S5    S    
C27   N1    A    
C22   N3    A    
O29   H11   S    
C28   C36   A    
C16   C18   A    
C21   C24   A    
Cu2   O6    S    
S5    O37   D    
Cu1   N3    S    
C22   C23   A    
C9    O25   S    
S8    O48   S    
C13   N2    S    
C32   C34   A    
C14   N1    S    
S7    O44   D    
