data_mof_unit_pretest_1215.cif
_audit_creation_date              2012-12-10T18:05:58-0500
_audit_creation_method            fapswitch 2.2
_symmetry_space_group_name_H-M    P1
_symmetry_Int_Tables_number       1
_space_group_crystal_system       triclinic
_cell_length_a                    12.813144
_cell_length_b                    13.185835
_cell_length_c                    14.952322
_cell_angle_alpha                 94.16291
_cell_angle_beta                  102.919689
_cell_angle_gamma                 81.934407
_cell_volume                      2435.69021208

loop_
_atom_site_label
_atom_site_type_symbol
_atom_type_description
_atom_site_fract_x
_atom_site_fract_y
_atom_site_fract_z
_atom_type_partial_charge
C1    C     C_R   0.439250 0.691187 0.489028 0.976625
C2    C     C_R   0.441918 0.580755 0.808375 0.308456
C3    C     C_R   0.503904 0.501947 0.768959 -0.175224
C4    C     C_R   0.501181 0.501090 0.672499 0.985683
C5    C     C_R   0.561370 0.418737 0.818716 0.394689
C6    C     C_R   0.716093 0.064521 0.612582 0.522174
C7    C     C_R   0.599762 0.199650 0.523467 -0.356660
C8    C     C_R   0.320983 0.827268 0.392699 0.270121
C9    C     C_R   0.334117 0.906442 0.338954 0.407375
C10   C     C_R   0.425259 0.957452 0.367079 0.483515
C11   C     C_R   0.484931 0.952464 0.459223 -0.087071
C12   C     C_R   0.556338 0.412707 0.099279 -0.102917
C13   C     C_R   0.474412 0.871422 0.511383 -0.209480
C14   C     C_R   0.554908 0.024654 0.501108 -0.014407
C15   C     C_R   0.635964 0.998784 0.580340 -0.286545
C16   C     C_R   0.560882 0.309025 0.511375 0.924729
C17   C     C_R   0.625147 0.918221 0.633128 0.455255
C18   C     C_R   0.538883 0.860101 0.601722 0.446909
C19   C     C_R   0.534917 0.127032 0.475190 0.417632
C20   C     C_R   0.695536 0.166273 0.587706 0.411170
C21   C     C_R   0.403033 0.800264 0.470773 -0.215208
C22   C     C_R   0.084065 0.363370 0.351374 0.350341
C23   C     C_R   0.389345 0.664604 0.036805 0.439542
C24   C     C_R   0.801046 0.629864 0.612546 0.392415
C25   C     C_R   0.896521 0.675189 0.619766 0.227591
C26   C     C_R   0.968202 0.635540 0.564085 0.491889
C27   C     C_R   0.956954 0.539917 0.515513 -0.193277
C28   C     C_R   0.499425 0.496787 0.327600 0.995459
C29   C     C_R   0.854082 0.504877 0.501190 -0.020934
C30   C     C_R   0.039600 0.482590 0.474359 -0.045710
C31   C     C_R   0.012382 0.403770 0.407332 -0.253383
C32   C     C_R   0.915889 0.364731 0.399952 0.342559
C33   C     C_R   0.834918 0.418749 0.439318 0.440172
C34   C     C_R   0.386442 0.661768 0.943762 -0.141865
C35   C     C_R   0.150358 0.494546 0.501270 0.525230
C36   C     C_R   0.189810 0.384126 0.376260 0.398797
C37   C     C_R   0.536102 0.406373 0.187096 0.334039
C38   C     C_R   0.496853 0.495877 0.231303 -0.235485
C39   C     C_R   0.464401 0.587373 0.186096 0.344502
C40   C     C_R   0.451846 0.585067 0.090831 -0.026523
C41   C     C_R   0.505065 0.499292 0.048270 -0.080547
C42   C     C_R   0.445004 0.581552 0.902124 -0.000392
C43   C     C_R   0.506430 0.500035 0.954866 -0.039506
C44   C     C_R   0.567738 0.419015 0.914100 -0.133795
C45   C     C_R   0.636076 0.343853 0.970461 0.327863
C46   C     C_R   0.627994 0.338796 0.062003 0.387768
Cl1   Cl    Cl    0.545109 0.287601 0.238314 -0.466923
Cl2   Cl    Cl    0.354755 0.674136 0.738323 -0.546920
Cl3   Cl    Cl    0.742486 0.263428 0.932570 -0.352559
Cl4   Cl    Cl    0.723116 0.250564 0.132098 -0.314412
Cl5   Cl    Cl    0.213946 0.752170 0.353885 -0.443294
Cl6   Cl    Cl    0.475732 0.006371 0.280075 -0.318049
Cl7   Cl    Cl    0.280018 0.329523 0.308295 -0.388588
Cl8   Cl    Cl    0.902452 0.235171 0.361905 -0.368011
Cl9   Cl    Cl    0.039628 0.302554 0.242156 -0.307704
Cl10  Cl    Cl    0.460126 0.703918 0.252058 -0.533559
Cl11  Cl    Cl    0.047949 0.723072 0.536212 -0.385747
Cl12  Cl    Cl    0.298695 0.761633 0.076498 -0.374773
H1    H     H_    0.336864 0.723599 0.904577 0.245670
H2    H     H_    0.724758 0.356275 0.352076 0.374720
H3    H     H_    0.577542 0.273680 0.791327 0.372430
H4    H     H_    0.727462 0.291635 0.656199 0.382324
H5    H     H_    0.671835 0.850730 0.750924 0.397678
H6    H     H_    0.832207 0.960680 0.660798 0.382939
H7    H     H_    0.462571 0.204312 0.371374 0.413637
H8    H     H_    0.201725 0.894890 0.245682 0.410666
H9    H     H_    0.436739 0.794880 0.646280 0.372539
H10   H     H_    0.245988 0.582840 0.571145 0.408969
H11   H     H_    0.768272 0.675661 0.729377 0.335212
H12   H     H_    0.857066 0.789268 0.701592 0.363355
N1    N     N_R   0.222190 0.444670 0.452360 -0.228713
N2    N     N_R   0.776970 0.554790 0.547140 -0.116913
O1    O     O_R   0.366740 0.627160 0.477250 -0.591701
O2    O     O_3   0.811374 0.034511 0.673682 -0.583800
O3    O     O_3   0.442037 0.158647 0.412443 -0.663568
O4    O     O_3   0.267408 0.928940 0.254570 -0.584280
O5    O     O_3   0.515561 0.796961 0.662150 -0.717860
O6    O     O_3   0.187436 0.547293 0.581821 -0.667951
O7    O     O_3   0.727448 0.663360 0.665866 -0.695008
O8    O     O_3   0.918993 0.762018 0.674188 -0.663029
O9    O     O_3   0.737128 0.384703 0.416219 -0.675836
O10   O     O_3   0.600747 0.334753 0.770132 -0.754291
O11   O     O_3   0.768401 0.231268 0.631068 -0.619149
O12   O     O_R   0.544830 0.662520 0.507680 -0.556823
O13   O     O_R   0.410940 0.482340 0.616930 -0.615263
O14   O     O_R   0.589030 0.517700 0.647360 -0.549867
O15   O     O_R   0.455170 0.337480 0.492320 -0.568426
O16   O     O_R   0.633260 0.372840 0.522750 -0.539376
O17   O     O_R   0.410970 0.482300 0.352640 -0.547256
O18   O     O_R   0.589060 0.517660 0.383070 -0.576034
O19   O     O_3   0.688001 0.909545 0.721214 -0.714745
Zn1   Zn    Zn3+2 0.381090 0.476390 0.479680 1.088504
Zn2   Zn    Zn3+2 0.618910 0.523610 0.520320 1.098216

loop_
_geom_bond_atom_site_label_1
_geom_bond_atom_site_label_2
_ccdc_geom_bond_type
C23   Cl12  S    
H4    O11   S    
C1    C21   S    
C27   C29   A    
C25   O8    S    
H9    O5    S    
C10   Cl6   S    
C45   C46   A    
C1    O12   A    
C26   C27   A    
C12   C41   A    
C13   C18   A    
H3    O10   S    
C38   C39   A    
C11   C14   A    
C4    O14   A    
C23   C40   A    
C29   C33   A    
C12   C37   A    
C36   Cl7   S    
C6    C15   A    
N1    Zn1   S    
C39   Cl10  S    
C8    C9    A    
C17   O19   S    
C16   O15   A    
C6    O2    S    
C28   O17   A    
C9    O4    S    
C28   C38   S    
C37   Cl1   S    
C9    C10   A    
C36   N1    A    
C29   N2    A    
C35   N1    A    
O15   Zn1   S    
C27   C30   A    
C41   C43   A    
C32   Cl8   S    
O13   Zn1   S    
C8    C21   A    
H10   O6    S    
C34   C42   A    
C22   C31   A    
H12   O8    S    
C24   C25   A    
C12   C46   A    
C39   C40   A    
C4    O13   A    
C2    Cl2   S    
C25   C26   A    
C43   C44   A    
C37   C38   A    
O14   Zn2   S    
H2    O9    S    
C24   O7    S    
C31   C32   A    
C45   Cl3   S    
C23   C34   A    
H8    O4    S    
C17   C18   A    
C13   C21   A    
O17   Zn1   S    
C8    Cl5   S    
N2    Zn2   S    
C30   C35   A    
C7    C16   S    
C5    C44   A    
C7    C19   A    
C34   H1    S    
H11   O7    S    
C42   C43   A    
C3    C4    S    
C22   C36   A    
C44   C45   A    
C24   N2    A    
O18   Zn2   S    
C15   C17   A    
O16   Zn2   S    
C40   C41   A    
C14   C19   A    
O1    Zn1   S    
C3    C5    A    
C22   Cl9   S    
C6    C20   A    
C46   Cl4   S    
C35   O6    S    
H7    O3    S    
C1    O1    A    
C32   C33   A    
C19   O3    S    
C2    C3    A    
C5    O10   S    
C11   C13   A    
C30   C31   A    
C2    C42   A    
C18   O5    S    
O12   Zn2   S    
C26   Cl11  S    
C10   C11   A    
C7    C20   A    
C20   O11   S    
H5    O19   S    
C16   O16   A    
H6    O2    S    
C14   C15   A    
C28   O18   A    
C33   O9    S    
