data_mof_unit_pretest_958.cif
_audit_creation_date              2012-10-26T19:31:27-0400
_audit_creation_method            fapswitch 2.2
_symmetry_space_group_name_H-M    P1
_symmetry_Int_Tables_number       1
_space_group_crystal_system       triclinic
_cell_length_a                    14.611718
_cell_length_b                    15.880791
_cell_length_c                    17.241903
_cell_angle_alpha                 89.858573
_cell_angle_beta                  86.521084
_cell_angle_gamma                 89.700169
_cell_volume                      3993.47156851

loop_
_atom_site_label
_atom_site_type_symbol
_atom_type_description
_atom_site_fract_x
_atom_site_fract_y
_atom_site_fract_z
_atom_type_partial_charge
C1    C     C_R   0.499728 0.660425 0.499909 0.554060
C2    C     C_3   0.582809 0.025983 0.502660 0.265777
C3    C     C_3   0.496818 0.916268 0.498775 0.023487
C4    C     C_3   0.498030 0.083005 0.496373 0.026073
C5    C     C_1   0.497557 0.825004 0.498956 0.012698
C6    C     C_1   0.499482 0.174486 0.497571 0.028312
C7    C     C_3   0.030491 0.424930 0.515615 0.250077
C8    C     C_3   0.969469 0.578489 0.483771 0.239225
C9    C     C_3   0.965156 0.477280 0.571227 -0.152778
C10   C     C_3   0.035977 0.526483 0.427811 -0.201490
C11   C     C_3   0.974616 0.448477 0.445819 0.252265
C12   C     C_R   0.500158 0.339448 0.499816 0.549318
C13   C     C_3   0.026677 0.554894 0.552750 0.272397
C14   C     C_3   0.908200 0.500839 0.500491 -0.024409
C15   C     C_3   0.092376 0.502015 0.498755 -0.036537
C16   C     C_R   0.488675 0.503403 0.650071 0.580149
C17   C     C_R   0.511003 0.499269 0.349191 0.560079
C18   C     C_1   0.805772 0.500307 0.500182 0.182357
C19   C     C_1   0.194410 0.500722 0.499490 0.167447
C20   C     C_R   0.483672 0.514357 0.733899 -0.048843
C21   C     C_R   0.514603 0.493470 0.263825 -0.058365
C22   C     C_R   0.535541 0.577591 0.767495 0.286167
C23   C     C_3   0.463591 0.027987 0.429557 -0.171981
C24   C     C_R   0.433899 0.479593 0.224224 0.297362
C25   C     C_R   0.529092 0.588605 0.848383 0.213194
C26   C     C_R   0.440882 0.462052 0.144600 0.230200
C27   C     C_R   0.475630 0.531539 0.895070 0.050145
C28   C     C_R   0.525566 0.473775 0.101903 0.037380
C29   C     C_R   0.423268 0.469148 0.860958 0.231581
C30   C     C_R   0.605197 0.491550 0.140381 0.196229
C31   C     C_R   0.426788 0.461868 0.780052 -0.180518
C32   C     C_R   0.599431 0.499029 0.221567 -0.187507
C33   C     C_2   0.477194 0.533101 0.980326 0.302861
C34   C     C_3   0.530912 0.971337 0.565426 -0.157396
C35   C     C_2   0.528907 0.476129 0.016099 0.333060
C36   C     C_3   0.678217 0.619271 0.721076 0.046184
C37   C     C_3   0.728835 0.678107 0.662906 -0.272049
C38   C     C_3   0.832524 0.668590 0.665583 -0.448362
C39   C     C_3   0.291038 0.541648 0.244566 0.041519
C40   C     C_3   0.292408 0.611902 0.305170 -0.268015
C41   C     C_3   0.225662 0.682776 0.287812 -0.499224
C42   C     C_3   0.000641 0.286279 0.548940 0.013992
C43   C     C_3   0.046181 0.203209 0.570085 -0.251029
C44   C     C_3   0.976128 0.132919 0.582661 -0.491316
C45   C     C_3   0.548799 0.971146 0.437350 0.212446
C46   C     C_3   0.972127 0.699334 0.408225 0.002352
C47   C     C_3   0.938252 0.790357 0.405551 -0.259394
C48   C     C_3   0.977478 0.835419 0.332780 -0.483231
C49   C     C_3   0.103044 0.678768 0.579117 0.024516
C50   C     C_3   0.179054 0.702265 0.632076 -0.270194
C51   C     C_3   0.234336 0.777254 0.599961 -0.450136
C52   C     C_3   0.017719 0.355849 0.345681 0.017981
C53   C     C_3   0.019359 0.390139 0.262616 -0.275828
C54   C     C_3   0.097687 0.351292 0.211872 -0.464442
C55   C     C_3   0.737576 0.992975 0.509705 0.017029
C56   C     C_3   0.445655 0.027970 0.557460 0.230439
C57   C     C_3   0.772472 0.987494 0.591432 -0.267095
C58   C     C_3   0.850496 0.923534 0.594868 -0.496515
C59   C     C_3   0.264449 0.991857 0.453597 0.019401
C60   C     C_3   0.165655 0.961508 0.467661 -0.262791
C61   C     C_3   0.100425 0.009835 0.417709 -0.492105
C62   C     C_1   0.498761 0.749723 0.499405 -0.006278
C63   C     C_1   0.500281 0.249899 0.498699 0.007631
C64   C     C_3   0.411812 0.972766 0.492424 0.258354
Cu1   Cu    Cu3+1 0.409780 0.500000 0.499990 1.012228
Cu2   Cu    Cu3+1 0.590220 0.500000 0.500010 1.011158
H1    H     H_    0.661100 0.510879 0.251569 0.144809
H2    H     H_    0.709354 0.744485 0.676396 0.177971
H3    H     H_    0.854728 0.686405 0.723765 0.157653
H4    H     H_    0.867287 0.710341 0.621422 0.192806
H5    H     H_    0.853362 0.602540 0.653028 0.175491
H6    H     H_    0.220073 0.516972 0.244127 0.147569
H7    H     H_    0.307666 0.568645 0.185609 0.184788
H8    H     H_    0.272847 0.585765 0.363473 0.189801
H9    H     H_    0.362731 0.638096 0.305909 0.173991
H10   H     H_    0.245477 0.712249 0.230805 0.167963
H11   H     H_    0.227015 0.731637 0.333709 0.149310
H12   H     H_    0.386985 0.413901 0.753006 0.131950
H13   H     H_    0.154740 0.658149 0.286791 0.129425
H14   H     H_    0.959205 0.275968 0.497791 0.170929
H15   H     H_    0.954876 0.306941 0.599399 0.132718
H16   H     H_    0.097280 0.184888 0.522784 0.173776
H17   H     H_    0.082957 0.211702 0.624069 0.187257
H18   H     H_    0.925314 0.149636 0.630718 0.155900
H19   H     H_    0.011575 0.073780 0.598202 0.149455
H20   H     H_    0.940042 0.121957 0.528740 0.152598
H21   H     H_    0.951880 0.665938 0.355224 0.147552
H22   H     H_    0.048250 0.700048 0.409508 0.111665
H23   H     H_    0.438075 0.051844 0.374246 0.105024
H24   H     H_    0.862126 0.791406 0.406131 0.186815
H25   H     H_    0.959502 0.824349 0.457738 0.151832
H26   H     H_    0.053532 0.837030 0.332160 0.145946
H27   H     H_    0.951014 0.901058 0.332101 0.150025
H28   H     H_    0.956603 0.802793 0.279795 0.159344
H29   H     H_    0.054865 0.732816 0.575122 0.158247
H30   H     H_    0.135559 0.666598 0.520003 0.110745
H31   H     H_    0.148413 0.718100 0.690852 0.177340
H32   H     H_    0.225952 0.647466 0.637469 0.192696
H33   H     H_    0.265737 0.762836 0.541143 0.180828
H34   H     H_    0.556135 0.947487 0.620795 0.113853
H35   H     H_    0.290019 0.791596 0.638882 0.168919
H36   H     H_    0.189371 0.833550 0.596724 0.155942
H37   H     H_    0.007023 0.286677 0.344023 0.147513
H38   H     H_    0.086016 0.365537 0.369932 0.155546
H39   H     H_    0.953197 0.375796 0.237032 0.186207
H40   H     H_    0.027786 0.459570 0.263215 0.157135
H41   H     H_    0.164652 0.365131 0.236188 0.186601
H42   H     H_    0.097790 0.378189 0.152364 0.173913
H43   H     H_    0.089029 0.281992 0.208230 0.152504
H44   H     H_    0.612759 0.381287 0.008638 0.345290
H45   H     H_    0.937271 0.458207 0.629928 0.110177
H46   H     H_    0.391838 0.626830 0.986715 0.328563
H47   H     H_    0.337680 0.375959 0.874996 0.332645
H48   H     H_    0.736070 0.515079 0.133177 0.327148
H49   H     H_    0.381049 0.406194 0.061068 0.361741
H50   H     H_    0.563888 0.658151 0.935702 0.346110
H51   H     H_    0.629361 0.988645 0.346998 0.333823
H52   H     H_    0.364624 0.010198 0.647462 0.335560
H53   H     H_    0.796089 0.008524 0.468035 0.150372
H54   H     H_    0.712430 0.929885 0.492550 0.157220
H55   H     H_    0.797037 0.050268 0.608931 0.182973
H56   H     H_    0.066016 0.545674 0.369883 0.079729
H57   H     H_    0.715706 0.968530 0.633411 0.164494
H58   H     H_    0.826934 0.860142 0.578003 0.152323
H59   H     H_    0.873609 0.920138 0.654962 0.157001
H60   H     H_    0.909490 0.942594 0.555152 0.136517
H61   H     H_    0.283521 0.989511 0.390146 0.138387
H62   H     H_    0.268407 0.058032 0.474641 0.153212
H63   H     H_    0.161805 0.893319 0.453752 0.165828
H64   H     H_    0.143525 0.970260 0.529948 0.161004
H65   H     H_    0.106388 0.078609 0.426955 0.147267
H66   H     H_    0.028735 0.990722 0.433620 0.140549
H67   H     H_    0.694745 0.552893 0.704355 0.134991
H68   H     H_    0.116359 0.995776 0.355266 0.151997
H69   H     H_    0.703141 0.631325 0.779681 0.193359
H70   H     H_    0.708682 0.663598 0.603295 0.200879
N1    N     N_1   0.725810 0.500000 0.500030 -0.197792
N2    N     N_1   0.274190 0.500000 0.499970 -0.199560
O1    O     O_R   0.423830 0.620920 0.499990 -0.514515
O2    O     O_3   0.349014 0.473930 0.264695 -0.525414
O3    O     O_3   0.069883 0.345899 0.531263 -0.565931
O4    O     O_3   0.931921 0.659904 0.475049 -0.579171
O5    O     O_3   0.054383 0.609088 0.611651 -0.559032
O6    O     O_3   0.943135 0.391752 0.390558 -0.570524
O7    O     O_3   0.583947 0.420575 0.972438 -0.684088
O8    O     O_3   0.425946 0.592069 0.023268 -0.723602
O9    O     O_3   0.369688 0.415993 0.907981 -0.687588
O10   O     O_3   0.687217 0.502669 0.097438 -0.674776
O11   O     O_3   0.363033 0.434781 0.110612 -0.665092
O12   O     O_R   0.576170 0.379080 0.500010 -0.488542
O13   O     O_3   0.575577 0.655455 0.878719 -0.685153
O14   O     O_3   0.603597 0.938751 0.375026 -0.698504
O15   O     O_3   0.389965 0.060182 0.619293 -0.680361
O16   O     O_3   0.672114 0.058744 0.506133 -0.559891
O17   O     O_3   0.322887 0.938250 0.493384 -0.575470
O18   O     O_R   0.576200 0.620920 0.500000 -0.492727
O19   O     O_R   0.423800 0.379080 0.500000 -0.480224
O20   O     O_R   0.414980 0.500010 0.613590 -0.497179
O21   O     O_R   0.585020 0.499990 0.386410 -0.501498
O22   O     O_R   0.567350 0.500010 0.613600 -0.489902
O23   O     O_R   0.432650 0.499990 0.386400 -0.458540
O24   O     O_3   0.583036 0.635226 0.720076 -0.535744

loop_
_geom_bond_atom_site_label_1
_geom_bond_atom_site_label_2
_ccdc_geom_bond_type
C9    H45   S    
C55   O16   S    
C30   C32   A    
C38   H4    S    
C52   H37   S    
C34   C56   S    
C8    C13   S    
C23   C45   S    
C16   O22   A    
C43   H17   S    
C14   C18   S    
C9    C14   S    
C26   C28   A    
C36   H67   S    
Cu2   O22   S    
Cu1   Cu2   S    
C46   O4    S    
C55   H53   S    
C53   C54   S    
C24   O2    S    
C51   H36   S    
C7    C11   S    
C64   O17   S    
C52   O6    S    
C48   H28   S    
C54   H41   S    
C36   C37   S    
C24   C26   A    
Cu2   O12   S    
C10   C15   S    
C41   H11   S    
C42   H14   S    
C22   O24   S    
C11   C14   S    
C27   C29   A    
C59   H61   S    
C37   H2    S    
H52   O15   S    
C35   O7    S    
C9    C13   S    
C61   H66   S    
C39   O2    S    
C53   H40   S    
C28   C35   S    
C40   H8    S    
C22   C25   A    
C34   H34   S    
C39   H6    S    
C56   C64   S    
C13   O5    S    
C12   O19   A    
H44   O7    S    
C11   O6    S    
C1    O1    A    
C2    C34   S    
C7    C15   S    
C38   H3    S    
C59   C60   S    
C2    O16   S    
C1    C62   S    
C36   O24   S    
C38   H5    S    
C42   H15   S    
C44   H20   S    
Cu2   O21   S    
C61   H68   S    
C46   H22   S    
C55   H54   S    
C2    C45   S    
C51   H33   S    
C21   C32   A    
C50   H32   S    
C48   H27   S    
C16   O20   A    
C15   C19   S    
C12   O12   A    
Cu1   O19   S    
C33   O8    S    
C60   H64   S    
C39   C40   S    
C4    C23   S    
C59   O17   S    
C56   O15   S    
C3    C34   S    
C10   H56   S    
C59   H62   S    
C3    C64   S    
C3    C45   S    
C27   C33   S    
C54   H43   S    
C60   C61   S    
C6    C63   T    
C1    O18   A    
C2    C4    S    
C43   C44   S    
C29   O9    S    
C37   C38   S    
C57   H57   S    
C47   C48   S    
C16   C20   S    
H49   O11   S    
C42   O3    S    
C23   H23   S    
C50   C51   S    
C37   H70   S    
C49   H29   S    
C17   O23   A    
C32   H1    S    
Cu1   N2    S    
C4    C6    S    
C40   C41   S    
C20   C22   A    
C58   H60   S    
C55   C57   S    
C47   H24   S    
C51   H35   S    
C42   C43   S    
C44   H19   S    
C36   H69   S    
C3    C5    S    
C7    O3    S    
C52   C53   S    
C31   H12   S    
C46   H21   S    
C7    C9    S    
C46   C47   S    
C52   H38   S    
C50   H31   S    
C8    C14   S    
C47   H25   S    
C26   O11   S    
Cu1   O20   S    
C44   H18   S    
C60   H63   S    
C41   H13   S    
C30   O10   S    
C25   C27   A    
C58   H58   S    
C40   H9    S    
C54   H42   S    
C25   O13   S    
C45   O14   S    
H47   O9    S    
C13   C15   S    
C23   C64   S    
H48   O10   S    
C29   C31   A    
C41   H10   S    
Cu2   O18   S    
C57   C58   S    
Cu2   N1    S    
C19   N2    T    
C49   O5    S    
C28   C30   A    
C33   C35   D    
H46   O8    S    
C5    C62   T    
H51   O14   S    
C39   H7    S    
C49   H30   S    
C17   O21   A    
C18   N1    T    
C17   C21   S    
C10   C11   S    
C61   H65   S    
C57   H55   S    
Cu1   O1    S    
C53   H39   S    
C58   H59   S    
C8    C10   S    
C49   C50   S    
C48   H26   S    
C21   C24   A    
Cu1   O23   S    
C43   H16   S    
C8    O4    S    
C12   C63   S    
H50   O13   S    
C4    C56   S    
C20   C31   A    
