data_mof_unit_pretest_1910.cif
_audit_creation_date              2012-12-10T18:25:39-0500
_audit_creation_method            fapswitch 2.2
_symmetry_space_group_name_H-M    P1
_symmetry_Int_Tables_number       1
_space_group_crystal_system       triclinic
_cell_length_a                    23.547711
_cell_length_b                    15.88409
_cell_length_c                    14.621486
_cell_angle_alpha                 90.010273
_cell_angle_beta                  89.938247
_cell_angle_gamma                 89.999268
_cell_volume                      5468.9290568

loop_
_atom_site_label
_atom_site_type_symbol
_atom_type_description
_atom_site_fract_x
_atom_site_fract_y
_atom_site_fract_z
_atom_type_partial_charge
C1    C     C_R   0.500004 0.339461 0.499978 0.827362
C2    C     C_R   0.499995 0.660539 0.500022 0.827110
C3    C     C_R   0.238867 0.505839 0.417390 -0.074983
C4    C     C_R   0.761237 0.490635 0.417713 -0.079850
C5    C     C_R   0.298071 0.505677 0.417293 -0.178511
C6    C     C_R   0.702029 0.490897 0.417553 -0.185412
C7    C     C_R   0.328152 0.499957 0.500065 -0.054554
C8    C     C_R   0.671832 0.500038 0.499937 -0.054687
C9    C     C_R   0.297950 0.494221 0.582807 -0.186960
C10   C     C_R   0.701902 0.509146 0.582360 -0.176741
C11   C     C_R   0.238742 0.494054 0.582672 -0.078012
C12   C     C_R   0.761106 0.509350 0.582256 -0.076535
C13   C     C_R   0.209034 0.499950 0.500023 0.326968
C14   C     C_R   0.790930 0.499979 0.499997 0.330775
C15   C     C_3   0.550399 0.972048 0.530132 0.110650
C16   C     C_3   0.449585 0.027951 0.469874 0.110294
C17   C     C_3   0.541436 0.027954 0.444730 0.110004
C18   C     C_3   0.458548 0.972045 0.555276 0.109434
C19   C     C_1   0.499995 0.249918 0.499964 -0.117051
C20   C     C_1   0.499997 0.750082 0.500037 -0.117170
C21   C     C_3   0.508948 0.028003 0.585386 0.109625
C22   C     C_3   0.491036 0.971996 0.414620 0.109785
C23   C     C_R   0.390663 0.499967 0.500051 0.808302
C24   C     C_R   0.609331 0.500034 0.499949 0.808198
C25   C     C_3   0.499985 0.082924 0.499983 -0.094711
C26   C     C_3   0.499999 0.917076 0.500023 -0.094764
C27   C     C_1   0.499988 0.174496 0.499965 0.100892
C28   C     C_1   0.500000 0.825503 0.500038 0.100781
C29   C     C_3   0.472910 0.568943 0.969209 -0.183761
C30   C     C_3   0.527088 0.431082 0.030790 -0.183297
C31   C     C_3   0.446665 0.499681 0.030741 0.216518
C32   C     C_3   0.553333 0.500346 0.969258 0.216599
C33   C     C_3   0.526694 0.569277 0.030820 -0.183844
C34   C     C_3   0.473303 0.430748 0.969180 -0.183442
C35   C     C_3   0.500098 0.500012 0.091434 -0.016861
C36   C     C_3   0.499900 0.500012 0.908566 -0.016776
C37   C     C_1   0.500070 0.500006 0.194143 0.209350
C38   C     C_1   0.499928 0.500005 0.805857 0.209448
C39   C     C_R   0.879969 0.573060 0.517732 0.579506
C40   C     C_R   0.120010 0.430242 0.470150 0.580654
C41   C     C_R   0.879989 0.426867 0.482323 0.580045
C42   C     C_R   0.119971 0.569677 0.529869 0.580711
C43   C     C_R   0.939794 0.426029 0.474804 -0.097361
C44   C     C_R   0.060120 0.574057 0.524953 -0.097790
C45   C     C_R   0.969915 0.499957 0.500032 -0.069197
C46   C     C_R   0.030028 0.499957 0.500025 -0.070990
C47   C     C_R   0.939762 0.573884 0.525266 -0.097184
C48   C     C_R   0.060153 0.425859 0.475089 -0.098169
C49   C     C_R   0.970139 0.353501 0.445925 0.152355
C50   C     C_R   0.029648 0.648714 0.546540 0.154073
C51   C     C_R   0.029711 0.351197 0.453526 0.154470
C52   C     C_R   0.970067 0.646405 0.554160 0.152430
Cu1   Cu    Cu3+1 0.500010 0.500000 0.590220 1.021617
Cu2   Cu    Cu3+1 0.499990 0.500000 0.409780 1.021593
H1    H     H_    0.320222 0.510289 0.352532 0.185197
H2    H     H_    0.679957 0.483625 0.353093 0.172815
N1    N     N_R   0.851876 0.499967 0.500020 -0.476545
N2    N     N_R   0.148070 0.499958 0.500011 -0.476616
N3    N     N_1   0.499980 0.500000 0.274190 -0.147956
N4    N     N_1   0.500020 0.500000 0.725810 -0.147946
O1    O     O_R   0.500010 0.379080 0.576170 -0.563107
O2    O     O_R   0.499990 0.620920 0.423830 -0.563182
O3    O     O_R   0.500000 0.379080 0.423800 -0.563224
O4    O     O_R   0.500000 0.620920 0.576200 -0.563333
O5    O     O_R   0.417890 0.499980 0.576200 -0.579490
O6    O     O_R   0.582110 0.500020 0.423800 -0.579461
O7    O     O_R   0.417870 0.499970 0.423830 -0.571490
O8    O     O_R   0.582130 0.500030 0.576170 -0.571390
O9    O     O_2   0.849615 0.644619 0.524390 -0.477519
O10   O     O_2   0.150559 0.366774 0.434058 -0.481343
O11   O     O_2   0.849638 0.355315 0.475659 -0.477678
O12   O     O_2   0.150475 0.633152 0.565939 -0.482993
I1    I     I_    0.929410 0.250814 0.374708 -0.107660
I2    I     I_    0.069906 0.770770 0.553286 -0.094084
I3    I     I_    0.360973 0.499168 0.078562 -0.304474
I4    I     I_    0.639025 0.500903 0.921436 -0.305896
H3    H     H_    0.450295 0.625766 0.944233 0.178762
H4    H     H_    0.549703 0.374260 0.055766 0.178390
H5    H     H_    0.451011 0.373647 0.944178 0.178183
H6    H     H_    0.548986 0.626378 0.055823 0.178577
I5    I     I_    0.069990 0.229146 0.446796 -0.092603
I6    I     I_    0.929242 0.749059 0.625437 -0.105311
H7    H     H_    0.216085 0.510592 0.353305 0.161745
H8    H     H_    0.784130 0.483481 0.353913 0.154539
H9    H     H_    0.320012 0.489602 0.647560 0.172921
H10   H     H_    0.679737 0.516419 0.646822 0.184844
H11   H     H_    0.215857 0.489296 0.646740 0.157591
H12   H     H_    0.783893 0.516479 0.646080 0.158645
I7    I     I_    0.606931 0.075660 0.357394 -0.180242
I8    I     I_    0.393053 0.924345 0.642613 -0.180844
I9    I     I_    0.630062 0.924354 0.577710 -0.165879
I10   I     I_    0.369918 0.075638 0.422305 -0.167710
I11   I     I_    0.476901 0.924202 0.279696 -0.192981
I12   I     I_    0.523081 0.075798 0.720310 -0.192190

loop_
_geom_bond_atom_site_label_1
_geom_bond_atom_site_label_2
_ccdc_geom_bond_type
C18   C21   S    
C18   C26   S    
C49   I1    S    
C42   N2    A    
Cu1   Cu2   S    
C29   C36   S    
C40   O10   S    
C30   C35   S    
C32   C36   S    
C35   C37   S    
C50   I2    S    
C33   C35   S    
Cu1   O4    S    
C21   I12   S    
C39   N1    A    
C29   C33   S    
C40   C48   A    
C23   O7    A    
Cu1   O8    S    
Cu2   O3    S    
C9    H9    S    
Cu1   O1    S    
C48   C51   A    
C2    O4    A    
C49   C51   A    
C50   C52   A    
C19   C27   T    
C51   I5    S    
C3    C13   A    
C24   O6    A    
C41   O11   S    
C41   C43   A    
C42   C44   A    
C1    O3    A    
Cu1   N4    S    
C44   C46   A    
Cu2   N3    S    
C45   C47   A    
C46   C48   A    
C1    C19   S    
C40   N2    A    
C12   H12   S    
C2    C20   S    
C18   I8    S    
C17   I7    S    
C4    C6    A    
C11   H11   S    
C5    C7    A    
C30   C34   S    
C43   C49   A    
C15   C26   S    
C6    C8    A    
Cu2   O7    S    
C20   C28   T    
C45   C46   A    
C34   H5    S    
C9    C11   A    
C31   I3    S    
C4    H8    S    
C42   O12   S    
C39   O9    S    
C31   C34   S    
C52   I6    S    
C43   C45   A    
C37   N3    T    
C10   C12   A    
C38   N4    T    
C8    C10   A    
C12   C14   A    
C16   I10   S    
C3    H7    S    
C22   I11   S    
C31   C35   S    
Cu1   O5    S    
C39   C47   A    
C44   C50   A    
C16   C25   S    
C7    C9    A    
C14   N1    S    
C21   C25   S    
C10   H10   S    
C16   C22   S    
C5    H1    S    
C6    H2    S    
C3    C5    A    
C1    O1    A    
C32   I4    S    
C33   H6    S    
C15   C17   S    
C47   C52   A    
Cu2   O6    S    
C25   C27   S    
Cu2   O2    S    
C26   C28   S    
C17   C22   S    
C17   C25   S    
C32   C33   S    
C23   O5    A    
C36   C38   S    
C41   N1    A    
C29   C31   S    
C13   N2    S    
C30   C32   S    
C11   C13   A    
C7    C23   S    
C8    C24   S    
C34   C36   S    
C4    C14   A    
C24   O8    A    
C15   I9    S    
C30   H4    S    
C15   C21   S    
C29   H3    S    
C16   C18   S    
C22   C26   S    
C2    O2    A    
