data_mof_unit_pretest_979.cif
_audit_creation_date              2012-12-10T19:11:31-0500
_audit_creation_method            fapswitch 2.2
_symmetry_space_group_name_H-M    P1
_symmetry_Int_Tables_number       1
_space_group_crystal_system       triclinic
_cell_length_a                    10.628458
_cell_length_b                    9.709693
_cell_length_c                    10.508841
_cell_angle_alpha                 90.417365
_cell_angle_beta                  89.655596
_cell_angle_gamma                 90.037132
_cell_volume                      1084.45399444

loop_
_atom_site_label
_atom_site_type_symbol
_atom_type_description
_atom_site_fract_x
_atom_site_fract_y
_atom_site_fract_z
_atom_type_partial_charge
C1    C     C_R   0.257670 0.499697 0.501436 0.831874
C2    C     C_3   0.929017 0.563406 0.377443 -0.406367
C3    C     C_3   0.370995 0.080964 0.482001 -0.233281
C4    C     C_3   0.370983 0.918610 0.482068 -0.233627
C5    C     C_3   0.577987 0.080523 0.391969 -0.237822
C6    C     C_3   0.577920 0.917993 0.391898 -0.226147
C7    C     C_3   0.550591 0.082047 0.617631 -0.229958
C8    C     C_3   0.550670 0.919786 0.617585 -0.236105
C9    C     C_R   0.500161 0.499465 0.257191 0.880773
C10   C     C_R   0.742598 0.499725 0.501065 0.834306
C11   C     C_R   0.499169 0.500579 0.742642 0.873886
C12   C     C_3   0.499056 0.498326 0.122394 0.018145
C13   C     C_3   0.391293 0.557140 0.043484 -0.217362
C14   C     C_3   0.507438 0.368528 0.038683 -0.171547
C15   C     C_3   0.399439 0.427357 0.957397 -0.172150
C16   C     C_3   0.498724 0.501835 0.877274 0.010725
C17   C     C_3   0.490125 0.632238 0.960220 -0.155437
C18   C     C_3   0.606903 0.442734 0.955436 -0.239589
C19   C     C_3   0.595515 0.570943 0.040169 0.144468
C20   C     C_3   0.071699 0.580888 0.619120 -0.408044
C21   C     C_3   0.071466 0.348370 0.509795 -0.401308
C22   C     C_3   0.927221 0.582203 0.618143 -0.407397
C23   C     C_3   0.928559 0.348417 0.511180 -0.398773
C24   C     C_3   0.073291 0.565721 0.378537 -0.409325
C25   C     C_3   0.121396 0.498668 0.502287 0.202733
C26   C     C_3   0.878962 0.498597 0.502056 0.198813
H1    H     H_    0.318766 0.368557 0.917978 0.120102
H2    H     H_    0.647861 0.121028 0.632787 0.139468
H3    H     H_    0.647995 0.881277 0.632570 0.139411
H4    H     H_    0.493511 0.119898 0.699716 0.149837
H5    H     H_    0.493747 0.882843 0.699656 0.143295
H6    H     H_    0.676208 0.119062 0.400128 0.140034
H7    H     H_    0.676116 0.879560 0.399844 0.144374
H8    H     H_    0.303775 0.602552 0.083900 0.123657
H9    H     H_    0.513802 0.261411 0.074339 0.130959
H10   H     H_    0.485079 0.739630 0.925032 0.124040
H11   H     H_    0.695196 0.398579 0.915567 0.119319
H12   H     H_    0.892846 0.670259 0.366618 0.171472
H13   H     H_    0.107119 0.688803 0.617202 0.167491
H14   H     H_    0.105392 0.286925 0.426468 0.167299
H15   H     H_    0.105550 0.533232 0.708676 0.149135
H16   H     H_    0.106218 0.297561 0.597552 0.161470
H17   H     H_    0.890386 0.537143 0.708119 0.146192
H18   H     H_    0.894077 0.299537 0.600432 0.163381
H19   H     H_    0.893619 0.690647 0.613716 0.169617
H20   H     H_    0.894174 0.285187 0.429580 0.166493
H21   H     H_    0.106678 0.674186 0.371982 0.167026
H22   H     H_    0.110433 0.509071 0.293793 0.147883
H23   H     H_    0.896397 0.501768 0.294339 0.146618
H24   H     H_    0.750388 0.689069 0.011677 0.167620
H25   H     H_    0.761151 0.580382 0.134156 0.158547
H26   H     H_    0.329363 0.118706 0.391848 0.139980
H27   H     H_    0.329281 0.879320 0.391968 0.140135
H28   H     H_    0.309136 0.119388 0.560282 0.140153
H29   H     H_    0.309160 0.881383 0.560411 0.140761
H30   H     H_    0.542482 0.117629 0.299007 0.143623
H31   H     H_    0.542269 0.879629 0.298896 0.159927
N1    N     N_3   0.499750 0.138610 0.497240 -0.028906
N2    N     N_3   0.499750 0.861390 0.497240 -0.031477
N3    N     N_3   0.701099 0.649867 0.089770 -0.476593
O1    O     O_R   0.314910 0.616040 0.499970 -0.636718
O2    O     O_R   0.314910 0.383960 0.499970 -0.637300
O3    O     O_R   0.500080 0.616020 0.313900 -0.615422
O4    O     O_R   0.500080 0.383980 0.313900 -0.636480
O5    O     O_R   0.685320 0.616040 0.499930 -0.631177
O6    O     O_R   0.685320 0.383960 0.499930 -0.636232
O7    O     O_R   0.500150 0.616060 0.686000 -0.636394
O8    O     O_R   0.500150 0.383940 0.686000 -0.629360
Zn1   Zn    Zn3+2 0.500150 0.654960 0.499940 0.900831
Zn2   Zn    Zn3+2 0.500150 0.345040 0.499940 0.894429

loop_
_geom_bond_atom_site_label_1
_geom_bond_atom_site_label_2
_ccdc_geom_bond_type
C3    H26   S    
C17   H10   S    
O4    Zn2   S    
C19   N3    S    
C9    O4    A    
C11   C16   S    
C2    H12   S    
C7    N1    S    
C15   H1    S    
C22   H17   S    
C6    H7    S    
C13   C17   S    
C5    H6    S    
H24   N3    S    
C1    O2    A    
C10   C26   S    
C10   O6    A    
C20   H15   S    
C3    C4    S    
C7    C8    S    
C2    C26   S    
C23   H20   S    
C9    O3    A    
C12   C13   S    
C1    C25   S    
C8    H5    S    
C6    H31   S    
O2    Zn2   S    
O6    Zn2   S    
C21   H14   S    
C5    N1    S    
N2    Zn1   S    
O5    Zn1   S    
C8    H3    S    
C6    N2    S    
C4    N2    S    
O8    Zn2   S    
C2    H23   S    
C18   H11   S    
C20   C22   S    
C13   C15   S    
C8    N2    S    
C2    C24   S    
C5    C6    S    
C4    H27   S    
C3    H28   S    
C10   O5    A    
C9    C12   S    
C23   H18   S    
C22   C26   S    
C21   H16   S    
C24   H22   S    
C3    N1    S    
O3    Zn1   S    
C12   C14   S    
C13   H8    S    
C22   H19   S    
C24   C25   S    
C12   C19   S    
C16   C18   S    
C18   C19   S    
C20   C25   S    
C23   C26   S    
O1    Zn1   S    
C4    H29   S    
C7    H4    S    
C20   H13   S    
C14   C18   S    
C11   O8    A    
N1    Zn2   S    
C21   C25   S    
H25   N3    S    
C5    H30   S    
C17   C19   S    
C14   C15   S    
C24   H21   S    
C21   C23   S    
C14   H9    S    
C7    H2    S    
C15   C16   S    
C11   O7    A    
C16   C17   S    
O7    Zn1   S    
C1    O1    A    
