data_mof_unit_pretest_1261.cif
_audit_creation_date              2012-12-11T14:01:12-0500
_audit_creation_method            fapswitch 2.2
_symmetry_space_group_name_H-M    P1
_symmetry_Int_Tables_number       1
_space_group_crystal_system       triclinic
_cell_length_a                    19.158805
_cell_length_b                    10.835
_cell_length_c                    18.857829
_cell_angle_alpha                 89.808746
_cell_angle_beta                  89.484883
_cell_angle_gamma                 90.157966
_cell_volume                      3914.41951342

loop_
_atom_site_label
_atom_site_type_symbol
_atom_type_description
_atom_site_fract_x
_atom_site_fract_y
_atom_site_fract_z
_atom_type_partial_charge
C1    C     C_R   0.272213 0.042859 0.853467 0.545077
C2    C     C_R   0.727805 0.043108 0.146580 0.545968
C3    C     C_R   0.772213 0.542859 0.853467 0.545079
C4    C     C_R   0.227805 0.543108 0.146580 0.545969
C5    C     C_R   0.537742 0.064790 0.060869 -0.085137
C6    C     C_R   0.462574 0.064339 0.938792 -0.086680
C7    C     C_R   0.037740 0.564791 0.060870 -0.085135
C8    C     C_R   0.962573 0.564339 0.938792 -0.086680
C9    C     C_R   0.019446 0.677427 0.031062 0.223433
C10   C     C_R   0.980102 0.677188 0.968613 0.223377
C11   C     C_R   0.519449 0.177426 0.031060 0.223435
C12   C     C_R   0.480103 0.177187 0.968612 0.223376
C13   C     C_2   0.250312 0.581181 0.921343 -0.100988
C14   C     C_2   0.749965 0.581234 0.078922 -0.101340
C15   C     C_2   0.750312 0.081181 0.921344 -0.100985
C16   C     C_2   0.249965 0.081235 0.078921 -0.101339
C17   C     C_2   0.251267 0.589749 0.077400 -0.128793
C18   C     C_2   0.748892 0.588707 0.922697 -0.129095
C19   C     C_2   0.751267 0.089749 0.077400 -0.128793
C20   C     C_2   0.248891 0.088708 0.922697 -0.129098
C21   C     C_2   0.300775 0.532579 0.037835 0.014785
C22   C     C_2   0.699740 0.530376 0.962646 0.015104
C23   C     C_2   0.800775 0.032580 0.037836 0.014786
C24   C     C_2   0.199740 0.030377 0.962646 0.015100
C25   C     C_2   0.306070 0.555717 0.961432 -0.153775
C26   C     C_2   0.694432 0.553313 0.039049 -0.155622
C27   C     C_2   0.806070 0.055718 0.961432 -0.153776
C28   C     C_2   0.194431 0.053316 0.039049 -0.155619
C29   C     C_2   0.517083 0.838755 0.586682 -0.095702
C30   C     C_2   0.544308 0.828438 0.433977 -0.109156
C31   C     C_2   0.017083 0.338755 0.586682 -0.095703
C32   C     C_2   0.044309 0.328439 0.433977 -0.109156
C33   C     C_2   0.567583 0.743712 0.479804 -0.169623
C34   C     C_2   0.543388 0.739620 0.553669 -0.147406
C35   C     C_2   0.067583 0.243712 0.479804 -0.169622
C36   C     C_2   0.043388 0.239620 0.553669 -0.147406
C37   C     C_2   0.247448 0.567526 0.581903 -0.036147
C38   C     C_2   0.751606 0.565998 0.418186 -0.034961
C39   C     C_2   0.747448 0.067526 0.581903 -0.036148
C40   C     C_2   0.251606 0.065998 0.418186 -0.034961
C41   C     C_2   0.237800 0.571226 0.427054 -0.114475
C42   C     C_2   0.763016 0.570479 0.572555 -0.111895
C43   C     C_2   0.737800 0.071226 0.427054 -0.114474
C44   C     C_2   0.263016 0.070479 0.572555 -0.111898
C45   C     C_R   0.442314 0.819074 0.862092 0.539357
C46   C     C_R   0.558478 0.819398 0.137988 0.542924
C47   C     C_R   0.942315 0.319074 0.862092 0.539358
C48   C     C_R   0.058478 0.319398 0.137988 0.542924
C49   C     C_2   0.183685 0.552648 0.471845 -0.158327
C50   C     C_2   0.815669 0.543255 0.527497 -0.152173
C51   C     C_2   0.683685 0.052646 0.471845 -0.158327
C52   C     C_2   0.315670 0.043258 0.527497 -0.152175
C53   C     C_2   0.186647 0.578198 0.547842 0.211853
C54   C     C_2   0.813023 0.570615 0.451424 0.214768
C55   C     C_2   0.686647 0.078198 0.547842 0.211853
C56   C     C_2   0.313023 0.070616 0.451424 0.214768
C57   C     C_R   0.261028 0.635994 0.851479 0.554763
C58   C     C_R   0.738985 0.636023 0.148569 0.559123
C59   C     C_R   0.761028 0.135994 0.851479 0.554768
C60   C     C_R   0.238985 0.136023 0.148569 0.559123
C61   C     C_R   0.274044 0.043569 0.646621 0.554575
C62   C     C_R   0.726034 0.043349 0.353288 0.551145
C63   C     C_R   0.774044 0.543569 0.646621 0.554575
C64   C     C_R   0.226034 0.543349 0.353288 0.551146
C65   C     C_R   0.472912 0.824625 0.649290 0.566381
C66   C     C_R   0.562916 0.819436 0.359739 0.564256
C67   C     C_R   0.972912 0.324625 0.649290 0.566381
C68   C     C_R   0.062916 0.319436 0.359739 0.564257
C69   C     C_R   0.260364 0.634367 0.647053 0.575140
C70   C     C_R   0.739460 0.634057 0.353053 0.567479
C71   C     C_R   0.760364 0.134367 0.647053 0.575140
C72   C     C_R   0.239460 0.134057 0.353053 0.567478
C73   C     C_R   0.532454 0.832222 0.065993 0.012058
C74   C     C_R   0.469428 0.831878 0.933633 0.013517
C75   C     C_R   0.032454 0.332222 0.065993 0.012059
C76   C     C_R   0.969429 0.331879 0.933633 0.013518
C77   C     C_R   0.518303 0.948431 0.032319 -0.039231
C78   C     C_R   0.482860 0.948222 0.967269 -0.038851
C79   C     C_R   0.018303 0.448432 0.032320 -0.039231
C80   C     C_R   0.982860 0.448222 0.967269 -0.038852
C81   C     C_R   0.485987 0.721378 0.967537 -0.126224
C82   C     C_R   0.517264 0.721572 0.031833 -0.125571
C83   C     C_R   0.985988 0.221379 0.967537 -0.126228
C84   C     C_R   0.017265 0.221573 0.031833 -0.125574
Cr1   Cr    Cr6+3 0.230530 0.836340 0.748870 1.103477
Cr2   Cr    Cr6+3 0.769470 0.836340 0.251130 1.104024
Cr3   Cr    Cr6+3 0.730530 0.336340 0.748870 1.103474
Cr4   Cr    Cr6+3 0.269470 0.336340 0.251130 1.104024
Cr5   Cr    Cr6+3 0.387420 0.989430 0.750820 1.049611
Cr6   Cr    Cr6+3 0.612580 0.989430 0.249180 1.052539
Cr7   Cr    Cr6+3 0.887420 0.489430 0.750820 1.049612
Cr8   Cr    Cr6+3 0.112580 0.489430 0.249180 1.052538
Cr9   Cr    Cr6+3 0.385640 0.677860 0.749230 1.057159
Cr10  Cr    Cr6+3 0.614360 0.677860 0.250770 1.057408
Cr11  Cr    Cr6+3 0.885640 0.177860 0.749230 1.057158
Cr12  Cr    Cr6+3 0.114360 0.177860 0.250770 1.057409
H1    H     H_    0.475493 0.632224 0.944002 0.157974
H2    H     H_    0.528389 0.632561 0.055419 0.156248
H3    H     H_    0.975495 0.132225 0.944002 0.157971
H4    H     H_    0.028390 0.132562 0.055418 0.156247
H5    H     H_    0.133112 0.525852 0.451349 0.131895
H6    H     H_    0.864719 0.507764 0.547777 0.133864
H7    H     H_    0.633113 0.025848 0.451350 0.131894
H8    H     H_    0.364719 0.007770 0.547778 0.133865
H9    H     H_    0.289496 0.597531 0.444655 0.098059
H10   H     H_    0.712960 0.605495 0.555142 0.081511
H11   H     H_    0.789496 0.097534 0.444655 0.098058
H12   H     H_    0.212960 0.105490 0.555142 0.081512
H13   H     H_    0.291968 0.523150 0.556716 0.060708
H14   H     H_    0.706290 0.524506 0.443987 0.049233
H15   H     H_    0.791968 0.023150 0.556716 0.060709
H16   H     H_    0.206291 0.024506 0.443987 0.049233
H17   H     H_    0.569505 0.075018 0.105626 0.220850
H18   H     H_    0.430789 0.074244 0.894026 0.221529
H19   H     H_    0.069503 0.575020 0.105627 0.220851
H20   H     H_    0.930789 0.574244 0.894026 0.221530
H21   H     H_    0.358102 0.554538 0.938159 0.151474
H22   H     H_    0.642540 0.549737 0.062555 0.151902
H23   H     H_    0.858102 0.054539 0.938159 0.151474
H24   H     H_    0.142540 0.049741 0.062555 0.151903
H25   H     H_    0.219039 0.660700 0.053504 0.147042
H26   H     H_    0.780983 0.660233 0.946260 0.145285
H27   H     H_    0.719039 0.160700 0.053504 0.147041
H28   H     H_    0.280982 0.160236 0.946259 0.145286
H29   H     H_    0.197840 0.578754 0.943600 0.122781
H30   H     H_    0.802412 0.580768 0.056579 0.125235
H31   H     H_    0.697840 0.078754 0.943600 0.122786
H32   H     H_    0.302412 0.080768 0.056578 0.125235
H33   H     H_    0.599390 0.667526 0.460889 0.134135
H34   H     H_    0.541760 0.649409 0.578967 0.163291
H35   H     H_    0.099390 0.167525 0.460889 0.134135
H36   H     H_    0.041760 0.149409 0.578967 0.163291
H37   H     H_    0.510858 0.904038 0.450272 0.105929
H38   H     H_    0.522286 0.930549 0.564170 0.106566
H39   H     H_    0.010859 0.404039 0.450272 0.105928
H40   H     H_    0.022286 0.430549 0.564170 0.106567
O1    O     O_R   0.215090 0.709860 0.828130 -0.486539
O2    O     O_R   0.784910 0.709860 0.171870 -0.483192
O3    O     O_R   0.715090 0.209860 0.828130 -0.486536
O4    O     O_R   0.284910 0.209860 0.171870 -0.483192
O5    O     O_R   0.445660 0.919250 0.676780 -0.491639
O6    O     O_R   0.554340 0.919250 0.323220 -0.478099
O7    O     O_R   0.945660 0.419250 0.676780 -0.491639
O8    O     O_R   0.054340 0.419250 0.323220 -0.478099
O9    O     O_R   0.456260 0.718170 0.670000 -0.501722
O10   O     O_R   0.543740 0.718170 0.330000 -0.475778
O11   O     O_R   0.956260 0.218170 0.670000 -0.501722
O12   O     O_R   0.043740 0.218170 0.330000 -0.475779
O13   O     O_R   0.320940 0.626760 0.674370 -0.517711
O14   O     O_R   0.679060 0.626760 0.325630 -0.541353
O15   O     O_R   0.820940 0.126760 0.674370 -0.517712
O16   O     O_R   0.179060 0.126760 0.325630 -0.541352
O17   O     O_3   0.334530 0.834540 0.749640 -0.291139
O18   O     O_3   0.665470 0.834540 0.250360 -0.316427
O19   O     O_3   0.834530 0.334540 0.749640 -0.291138
O20   O     O_3   0.165470 0.334540 0.250360 -0.316428
O21   O     O_R   0.236990 0.958390 0.823710 -0.457479
O22   O     O_R   0.763010 0.958390 0.176290 -0.455300
O23   O     O_R   0.736990 0.458390 0.823710 -0.457482
O24   O     O_R   0.263010 0.458390 0.176290 -0.455300
O25   O     O_R   0.332380 0.074750 0.830850 -0.534563
O26   O     O_R   0.667620 0.074750 0.169150 -0.534178
O27   O     O_R   0.832380 0.574750 0.830850 -0.534563
O28   O     O_R   0.167620 0.574750 0.169150 -0.534178
O29   O     O_R   0.445800 0.917770 0.825070 -0.517890
O30   O     O_R   0.554200 0.917770 0.174930 -0.508729
O31   O     O_R   0.945800 0.417770 0.825070 -0.517890
O32   O     O_R   0.054200 0.417770 0.174930 -0.508730
O33   O     O_R   0.456410 0.716580 0.829970 -0.488526
O34   O     O_R   0.543590 0.716580 0.170030 -0.478741
O35   O     O_R   0.956410 0.216580 0.829970 -0.488530
O36   O     O_R   0.043590 0.216580 0.170030 -0.478740
O37   O     O_R   0.321080 0.625290 0.822650 -0.514413
O38   O     O_R   0.678920 0.625290 0.177350 -0.514436
O39   O     O_R   0.821080 0.125290 0.822650 -0.514413
O40   O     O_R   0.178920 0.125290 0.177350 -0.514436
O41   O     O_R   0.214930 0.711450 0.668160 -0.435651
O42   O     O_R   0.785070 0.711450 0.331840 -0.434462
O43   O     O_R   0.714930 0.211450 0.668160 -0.435652
O44   O     O_R   0.285070 0.211450 0.331840 -0.434462
O45   O     O_R   0.236850 0.959870 0.675420 -0.486445
O46   O     O_R   0.763150 0.959870 0.324580 -0.485705
O47   O     O_R   0.736850 0.459870 0.675420 -0.486446
O48   O     O_R   0.263150 0.459870 0.324580 -0.485705
O49   O     O_R   0.332230 0.076350 0.670880 -0.505741
O50   O     O_R   0.667770 0.076350 0.329120 -0.513229
O51   O     O_R   0.832230 0.576350 0.670880 -0.505740
O52   O     O_R   0.167770 0.576350 0.329120 -0.513229
O53   O     O_3   0.127323 0.617665 0.583507 -0.662618
H41   H     H_    0.088948 0.626720 0.548956 0.313990
O54   O     O_3   0.873047 0.605139 0.414992 -0.651922
H42   H     H_    0.912511 0.605797 0.448666 0.316060
O55   O     O_3   0.627323 0.117664 0.583507 -0.662617
H43   H     H_    0.588948 0.126719 0.548956 0.313990
O56   O     O_3   0.373047 0.105140 0.414992 -0.651923
H44   H     H_    0.412511 0.105799 0.448666 0.316060
O57   O     O_3   0.041190 0.782788 0.065836 -0.680375
H45   H     H_    0.040888 0.854434 0.033502 0.342894
O58   O     O_3   0.957631 0.782253 0.933823 -0.680247
H46   H     H_    0.958515 0.854039 0.965755 0.343825
O59   O     O_3   0.541195 0.282788 0.065833 -0.680378
H47   H     H_    0.540894 0.354433 0.033498 0.342892
O60   O     O_3   0.457633 0.282253 0.933823 -0.680249
H48   H     H_    0.458516 0.354039 0.965755 0.343826
C85   C     C_2   0.352240 0.446208 0.067777 0.606642
O61   O     O_2   0.394399 0.482337 0.111429 -0.490158
O62   O     O_R   0.351490 0.323024 0.046598 -0.702975
H49   H     H_    0.386328 0.271269 0.073634 0.352223
C86   C     C_2   0.648531 0.443018 0.933058 0.606464
O63   O     O_2   0.606210 0.478349 0.889325 -0.495327
O64   O     O_R   0.649635 0.319873 0.954727 -0.703255
H50   H     H_    0.615003 0.267445 0.927829 0.350228
C87   C     C_2   0.852240 0.946209 0.067778 0.606642
O65   O     O_2   0.894400 0.982339 0.111429 -0.490158
O66   O     O_R   0.851491 0.823026 0.046599 -0.702976
H51   H     H_    0.886328 0.771271 0.073636 0.352225
C88   C     C_2   0.148533 0.943014 0.933059 0.606470
O67   O     O_2   0.106216 0.978337 0.889320 -0.495318
O68   O     O_R   0.149632 0.819875 0.954736 -0.703263
H52   H     H_    0.115004 0.767442 0.927838 0.350227

loop_
_geom_bond_atom_site_label_1
_geom_bond_atom_site_label_2
_ccdc_geom_bond_type
Cr10  O10   S    
O60   H48   S    
C38   C70   S    
C16   C28   D    
C37   C69   S    
O59   H47   S    
Cr9   O13   S    
C35   C36   S    
C70   O14   A    
C67   O7    A    
C10   O58   S    
C2    O26   A    
C81   C82   A    
C40   H16   S    
Cr12  O20   S    
C77   C78   A    
C31   C67   S    
Cr9   O33   S    
C50   C54   S    
C75   C79   A    
C41   H9    S    
Cr6   O26   S    
C83   C84   A    
Cr4   O20   S    
Cr7   O31   S    
C47   C76   S    
C5    C11   A    
C59   O39   A    
C36   H36   S    
C35   H35   S    
C11   O59   S    
Cr5   O5    S    
C75   C84   A    
Cr4   O48   S    
C87   O65   D    
C13   C57   S    
O57   H45   S    
C71   O43   A    
Cr12  O16   S    
C22   C86   S    
Cr2   O42   S    
C65   O5    A    
C3    C18   S    
C16   C60   S    
C12   O60   S    
C7    H19   S    
Cr11  O39   S    
C6    H18   S    
C21   C25   S    
Cr12  O36   S    
C69   O41   A    
C48   O36   A    
C15   C27   D    
C41   C49   D    
C71   O15   A    
C20   C24   D    
C72   O16   A    
C38   C54   D    
C76   C80   A    
C4    O28   A    
Cr9   O9    S    
C23   C27   S    
C38   H14   S    
C40   C72   S    
C9    C10   A    
C88   O68   S    
C37   H13   S    
C68   O12   A    
C3    O27   A    
C62   O50   A    
C37   C53   D    
C24   C88   S    
Cr8   O28   S    
C39   H15   S    
C29   H38   S    
C1    O25   A    
O58   H46   S    
C15   H31   S    
Cr6   O30   S    
C3    O23   A    
C82   H2    S    
C48   C75   S    
Cr7   O27   S    
C58   O38   A    
Cr1   O21   S    
Cr12  O12   S    
C76   C83   A    
Cr5   O25   S    
Cr9   O37   S    
C9    O57   S    
Cr4   O44   S    
Cr7   O7    S    
C44   H12   S    
C14   C58   S    
C39   C55   D    
C43   C62   S    
C63   O47   A    
C54   O54   S    
O62   H49   S    
C84   H4    S    
C32   C35   D    
C24   C28   S    
Cr11  O11   S    
C79   C80   A    
C86   O63   D    
C28   H24   S    
C51   H7    S    
O68   H52   S    
Cr2   O2    S    
C70   O42   A    
Cr1   O17   S    
Cr6   O50   S    
C51   C55   S    
C40   C56   D    
C88   O67   D    
C85   O61   D    
C29   C34   D    
C17   C21   D    
C46   O34   A    
C45   O33   A    
C45   C74   S    
C64   O48   A    
C19   C23   D    
O66   H51   S    
C18   H26   S    
Cr7   O19   S    
C86   O64   S    
C62   O46   A    
C56   O56   S    
C47   O31   A    
Cr8   O32   S    
Cr5   O17   S    
O64   H50   S    
C48   O32   A    
Cr1   O41   S    
C59   O3    A    
Cr10  O18   S    
C30   H37   S    
C19   H27   S    
C64   O52   A    
C61   O49   A    
C33   C34   S    
C57   O1    A    
Cr8   O20   S    
C43   H11   S    
C14   C26   D    
Cr4   O24   S    
Cr2   O22   S    
Cr5   O29   S    
C30   C66   S    
C60   O4    A    
C57   O37   A    
C4    C17   S    
C17   H25   S    
C21   C85   S    
C55   O55   S    
C42   C50   D    
C50   H6    S    
C63   O51   A    
C74   C78   A    
C60   O40   A    
C29   C65   S    
Cr2   O46   S    
Cr10  O14   S    
C72   O44   A    
C74   C81   A    
C5    C77   A    
C6    C12   A    
Cr1   O1    S    
C73   C82   A    
C66   O10   A    
C7    C79   A    
C23   C87   S    
C33   H33   S    
O54   H42   S    
C7    C9    A    
Cr4   O4    S    
Cr7   O51   S    
C52   H8    S    
C1    C20   S    
Cr1   O45   S    
C46   O30   A    
C30   C33   D    
C5    H17   S    
C2    C19   S    
C18   C22   D    
Cr5   O49   S    
Cr10  O38   S    
C26   H22   S    
Cr3   O3    S    
C31   H40   S    
C13   C25   D    
C25   H21   S    
C44   C52   D    
Cr12  O40   S    
C32   H39   S    
C47   O35   A    
C11   C12   A    
Cr8   O52   S    
C66   O6    A    
Cr3   O19   S    
C27   H23   S    
C44   C61   S    
Cr6   O6    S    
C61   O45   A    
C14   H30   S    
C32   C68   S    
C69   O13   A    
Cr9   O17   S    
Cr2   O18   S    
C87   O66   S    
C13   H29   S    
Cr10  O34   S    
Cr3   O47   S    
C58   O2    A    
Cr6   O18   S    
C4    O24   A    
C45   O29   A    
C43   C51   D    
C49   C53   S    
C65   O9    A    
C1    O21   A    
C81   H1    S    
Cr3   O23   S    
C68   O8    A    
Cr11  O19   S    
C16   H32   S    
O53   H41   S    
Cr8   O8    S    
C15   C59   S    
C20   H28   S    
C6    C78   A    
C8    H20   S    
Cr3   O43   S    
O56   H44   S    
C42   H10   S    
Cr11  O15   S    
C2    O22   A    
C34   H34   S    
C73   C77   A    
C8    C10   A    
O55   H43   S    
C22   C26   S    
C67   O11   A    
C8    C80   A    
C39   C71   S    
C31   C36   D    
C83   H3    S    
C41   C64   S    
Cr11  O35   S    
C85   O62   S    
C53   O53   S    
C42   C63   S    
C46   C73   S    
C52   C56   S    
C49   H5    S    
