data_mof_unit_pretest_238.cif
_audit_creation_date              2012-10-26T19:20:17-0400
_audit_creation_method            fapswitch 2.2
_symmetry_space_group_name_H-M    P1
_symmetry_Int_Tables_number       1
_space_group_crystal_system       triclinic
_cell_length_a                    15.853496
_cell_length_b                    11.008938
_cell_length_c                    9.681567
_cell_angle_alpha                 90.756785
_cell_angle_beta                  90.462057
_cell_angle_gamma                 90.760431
_cell_volume                      1689.37181639

loop_
_atom_site_label
_atom_site_type_symbol
_atom_type_description
_atom_site_fract_x
_atom_site_fract_y
_atom_site_fract_z
_atom_type_partial_charge
C1    C     C_R   0.497106 0.266444 0.498993 0.550862
C2    C     C_2   0.492121 0.867106 0.507525 0.276122
C3    C     C_2   0.516549 0.067384 0.400428 -0.122446
C4    C     C_R   0.339939 0.500433 0.499441 0.541349
C5    C     C_2   0.481836 0.138069 0.496731 -0.103520
C6    C     C_2   0.448949 0.432335 0.920391 0.485314
C7    C     C_2   0.451363 0.428714 0.076334 0.475550
C8    C     C_R   0.497405 0.734572 0.501146 0.564216
C9    C     C_R   0.660227 0.500899 0.500598 0.544817
C10   C     C_3   0.971317 0.393189 0.528809 -0.095273
C11   C     C_3   0.026287 0.428192 0.403005 -0.145697
C12   C     C_3   0.083636 0.505259 0.499540 0.007001
C13   C     C_1   0.250480 0.501903 0.498062 -0.016472
C14   C     C_1   0.750041 0.503329 0.502280 -0.006154
C15   C     C_3   0.029349 0.471326 0.623883 0.319891
C16   C     C_3   0.987119 0.767885 0.715633 -0.005282
C17   C     C_3   0.962640 0.834833 0.848228 -0.253149
C18   C     C_3   0.012059 0.954076 0.865538 -0.477178
C19   C     C_3   0.102573 0.516272 0.827588 0.012603
C20   C     C_3   0.159415 0.456555 0.934634 -0.237674
C21   C     C_3   0.207757 0.551196 0.021834 -0.466631
C22   C     C_3   0.454768 0.910556 0.168093 0.008224
C23   C     C_3   0.974923 0.583070 0.599769 0.292791
C24   C     C_3   0.370894 0.843452 0.194133 -0.272531
C25   C     C_3   0.306765 0.866871 0.079679 -0.491278
C26   C     C_3   0.408000 0.888937 0.705547 -0.010778
C27   C     C_3   0.327424 0.886835 0.614172 -0.292665
C28   C     C_3   0.248385 0.865973 0.700146 -0.479999
C29   C     C_3   0.917422 0.506433 0.504246 0.036070
C30   C     C_3   0.029906 0.619436 0.474549 -0.166392
C31   C     C_3   0.971107 0.541476 0.378299 -0.151615
C32   C     C_1   0.175068 0.503361 0.497619 -0.047221
C33   C     C_1   0.825668 0.505315 0.503799 -0.014066
C34   C     C_2   0.503580 0.934549 0.392194 0.244760
Cu1   Cu    Cu3+1 0.500020 0.500020 0.638630 1.024945
Cu2   Cu    Cu3+1 0.499980 0.499980 0.361370 1.025112
F1    F     F_    0.391321 0.359454 0.854391 -0.589614
F2    F     F_    0.399365 0.347617 0.138750 -0.591702
H1    H     H_    0.048540 0.364724 0.321454 0.126749
H2    H     H_    0.056505 0.753137 0.718365 0.103830
H3    H     H_    0.894012 0.854191 0.845499 0.185929
H4    H     H_    0.975709 0.776409 0.938500 0.162295
H5    H     H_    0.080768 0.936310 0.872627 0.145227
H6    H     H_    0.992277 0.001075 0.961900 0.155863
H7    H     H_    0.999688 0.014449 0.776804 0.160949
H8    H     H_    0.055583 0.572600 0.882728 0.168122
H9    H     H_    0.142755 0.575710 0.762260 0.117561
H10   H     H_    0.120327 0.399256 0.003669 0.171303
H11   H     H_    0.205323 0.397224 0.880964 0.229605
H12   H     H_    0.437929 0.105802 0.572566 0.164469
H13   H     H_    0.249316 0.607056 0.955273 0.146751
H14   H     H_    0.247622 0.504894 0.099333 0.202652
H15   H     H_    0.163141 0.611258 0.077213 0.130136
H16   H     H_    0.477648 0.883443 0.064123 0.160600
H17   H     H_    0.445036 0.010496 0.164820 0.156530
H18   H     H_    0.381837 0.744132 0.199542 0.193144
H19   H     H_    0.344210 0.874706 0.293903 0.139518
H20   H     H_    0.296771 0.965911 0.068183 0.172852
H21   H     H_    0.245577 0.822831 0.105308 0.144837
H22   H     H_    0.329226 0.827912 0.980601 0.130086
H23   H     H_    0.544863 0.550616 0.895482 0.146929
H24   H     H_    0.398799 0.957322 0.789301 0.166715
H25   H     H_    0.415055 0.801188 0.759052 0.164485
H26   H     H_    0.321473 0.974108 0.559047 0.159379
H27   H     H_    0.330432 0.811984 0.536431 0.132012
H28   H     H_    0.251495 0.777099 0.752852 0.137598
H29   H     H_    0.191873 0.865214 0.631600 0.139348
H30   H     H_    0.241706 0.939809 0.778417 0.159004
H31   H     H_    0.535839 0.563793 0.107364 0.155239
H32   H     H_    0.946583 0.300939 0.552023 0.119790
H33   H     H_    0.945675 0.569936 0.276748 0.127541
H34   H     H_    0.055760 0.710824 0.450201 0.089766
H35   H     H_    0.555824 0.108208 0.321506 0.151084
H36   H     H_    0.970857 0.825240 0.625649 0.141811
N1    N     N_2   0.499090 0.498660 0.846910 -0.361162
N2    N     N_2   0.499070 0.498630 0.153040 -0.359711
O1    O     O_R   0.500010 0.321960 0.617040 -0.442372
O2    O     O_3   0.060111 0.424682 0.749677 -0.562806
O3    O     O_3   0.517411 0.877633 0.265422 -0.568521
O4    O     O_3   0.483927 0.922846 0.636709 -0.606547
O5    O     O_R   0.499990 0.321920 0.382900 -0.452063
O6    O     O_R   0.379090 0.500010 0.617050 -0.455492
O7    O     O_R   0.379060 0.499970 0.382910 -0.470109
O8    O     O_R   0.500010 0.678080 0.617100 -0.512469
O9    O     O_R   0.499990 0.678040 0.382960 -0.483786
O10   O     O_R   0.620940 0.500030 0.617090 -0.494475
O11   O     O_R   0.620910 0.499990 0.382950 -0.497853
O12   O     O_3   0.942016 0.656710 0.706664 -0.564629

loop_
_geom_bond_atom_site_label_1
_geom_bond_atom_site_label_2
_ccdc_geom_bond_type
C1    O1    A    
C13   C32   T    
Cu1   Cu2   S    
C26   H25   S    
C14   C33   T    
C19   H8    S    
C6    N1    D    
C22   H16   S    
H23   N1    S    
Cu1   N1    S    
C26   C27   S    
C16   H36   S    
C23   C29   S    
C28   H30   S    
C22   O3    S    
C10   C15   S    
C30   C31   S    
C34   O3    S    
Cu1   O10   S    
C19   H9    S    
C15   O2    S    
Cu2   O7    S    
C1    O5    A    
C29   C33   S    
H31   N2    S    
C8    O9    A    
C4    C13   S    
C17   H4    S    
C22   H17   S    
Cu2   N2    S    
C19   C20   S    
C16   C17   S    
C25   H22   S    
C2    C34   D    
C31   H33   S    
C11   C31   S    
C12   C32   S    
Cu1   O6    S    
C6    C7    S    
Cu2   O11   S    
C23   C30   S    
C28   H29   S    
C24   C25   S    
C10   C11   S    
C24   H19   S    
C3    C34   S    
Cu1   O1    S    
C26   O4    S    
C19   O2    S    
C28   H28   S    
C9    C14   S    
C20   H11   S    
C27   H27   S    
C18   H6    S    
C9    O10   A    
C12   C15   S    
Cu2   O5    S    
C11   C12   S    
C17   C18   S    
C6    F1    S    
C11   H1    S    
C20   H10   S    
C16   H2    S    
C10   H32   S    
C23   O12   S    
C1    C5    S    
C5    H12   S    
C25   H20   S    
C18   H7    S    
C21   H13   S    
C12   C30   S    
C8    O8    A    
C2    C8    S    
C3    C5    D    
C30   H34   S    
Cu1   O8    S    
C7    N2    D    
Cu2   O9    S    
C24   H18   S    
C26   H24   S    
C29   C31   S    
C18   H5    S    
C9    O11   A    
C21   H15   S    
C10   C29   S    
C4    O7    A    
C15   C23   S    
C7    F2    S    
C22   C24   S    
C3    H35   S    
C17   H3    S    
C2    O4    S    
C27   H26   S    
C4    O6    A    
C20   C21   S    
C27   C28   S    
C16   O12   S    
C25   H21   S    
C21   H14   S    
