data_mof_unit_pretest_126.cif
_audit_creation_date              2012-12-10T19:07:01-0500
_audit_creation_method            fapswitch 2.2
_symmetry_space_group_name_H-M    P1
_symmetry_Int_Tables_number       1
_space_group_crystal_system       triclinic
_cell_length_a                    27.825184
_cell_length_b                    10.816522
_cell_length_c                    9.535912
_cell_angle_alpha                 90.07711
_cell_angle_beta                  89.769975
_cell_angle_gamma                 90.163692
_cell_volume                      2870.00239043

loop_
_atom_site_label
_atom_site_type_symbol
_atom_type_description
_atom_site_fract_x
_atom_site_fract_y
_atom_site_fract_z
_atom_type_partial_charge
C1    C     C_R   0.499036 0.262307 0.499899 0.804433
C2    C     C_R   0.278818 0.499493 0.631630 0.303859
C3    C     C_R   0.253625 0.501315 0.503537 0.300567
C4    C     C_R   0.102044 0.500722 0.501592 -0.044423
C5    C     C_R   0.127626 0.388563 0.504101 -0.021552
C6    C     C_R   0.102480 0.276841 0.506302 -0.148174
C7    C     C_R   0.127762 0.613044 0.498325 -0.021089
C8    C     C_R   0.354493 0.499814 0.501316 -0.093852
C9    C     C_R   0.645451 0.499406 0.500897 -0.038803
C10   C     C_R   0.974493 0.386295 0.512749 0.043326
C11   C     C_R   0.974621 0.614350 0.494991 0.043537
C12   C     C_R   0.407451 0.499919 0.500279 0.814455
C13   C     C_R   0.949320 0.500237 0.504309 0.066954
C14   C     C_R   0.947374 0.275904 0.526481 -0.204362
C15   C     C_R   0.897485 0.277110 0.527878 -0.145041
C16   C     C_R   0.872455 0.388192 0.516477 -0.019969
C17   C     C_R   0.898171 0.500058 0.505105 -0.043952
C18   C     C_R   0.872584 0.611738 0.494406 -0.019754
C19   C     C_R   0.822126 0.609546 0.495186 0.533453
C20   C     C_R   0.821992 0.389970 0.516168 0.534137
C21   C     C_R   0.720456 0.463003 0.623441 -0.097706
C22   C     C_R   0.670339 0.462997 0.621945 -0.221467
C23   C     C_R   0.499200 0.737730 0.499994 0.805666
C24   C     C_R   0.671621 0.535986 0.381736 -0.218412
C25   C     C_R   0.721713 0.535811 0.383281 -0.097414
C26   C     C_R   0.746344 0.499383 0.504096 0.350992
C27   C     C_R   0.025600 0.386264 0.507965 0.043585
C28   C     C_R   0.050903 0.500561 0.502401 0.066878
C29   C     C_R   0.025736 0.614700 0.497710 0.043546
C30   C     C_R   0.052588 0.275397 0.507795 -0.203723
C31   C     C_R   0.102756 0.724598 0.496460 -0.144805
C32   C     C_R   0.947616 0.724590 0.482561 -0.204285
C33   C     C_R   0.897730 0.723029 0.482663 -0.145211
C34   C     C_R   0.592531 0.499920 0.499982 0.801166
C35   C     C_R   0.052869 0.725730 0.496532 -0.204340
C36   C     C_R   0.493907 0.063837 0.625695 0.120843
C37   C     C_R   0.494150 0.129233 0.499671 -0.096254
C38   C     C_R   0.487651 0.064209 0.373356 -0.208552
C39   C     C_R   0.487802 0.935335 0.373418 -0.208730
C40   C     C_R   0.494446 0.870815 0.499798 -0.097590
C41   C     C_R   0.494134 0.936620 0.625741 0.137869
C42   C     C_3   0.527952 0.931063 0.746813 -0.475586
C43   C     C_3   0.527505 0.071395 0.747183 -0.454379
C44   C     C_R   0.522779 0.592027 0.073533 0.257280
C45   C     C_R   0.178075 0.390818 0.503974 0.536029
C46   C     C_R   0.473731 0.416155 0.074642 -0.078677
C47   C     C_R   0.473752 0.416098 0.925680 -0.082247
C48   C     C_R   0.522705 0.592211 0.925996 0.256843
C49   C     C_3   0.574870 0.623334 0.919402 -0.494337
C50   C     C_3   0.575016 0.622000 0.078205 -0.509709
C51   C     C_R   0.178206 0.611144 0.498084 0.523039
C52   C     C_R   0.278797 0.501193 0.376217 -0.138101
C53   C     C_R   0.328839 0.500244 0.374874 -0.217033
C54   C     C_R   0.329180 0.499758 0.629164 -0.219343
Cu1   Cu    Cu3+1 0.500000 0.499980 0.640670 0.943519
Cu2   Cu    Cu3+1 0.500000 0.500020 0.359330 0.945292
H1    H     H_    0.348490 0.501156 0.727548 0.167157
H2    H     H_    0.259400 0.501694 0.277980 0.148567
H3    H     H_    0.121699 0.812263 0.495341 0.187020
H4    H     H_    0.963723 0.814502 0.470738 0.135661
H5    H     H_    0.653536 0.566489 0.288156 0.147680
H6    H     H_    0.878899 0.810139 0.473040 0.187573
H7    H     H_    0.741459 0.564163 0.290611 0.144316
H8    H     H_    0.036863 0.816122 0.497370 0.134989
H9    H     H_    0.484822 0.112215 0.274128 0.160485
H10   H     H_    0.485054 0.886994 0.274205 0.164062
H11   H     H_    0.510900 0.889961 0.841589 0.197052
H12   H     H_    0.563452 0.891592 0.717406 0.197803
H13   H     H_    0.509964 0.111319 0.841842 0.195087
H14   H     H_    0.562774 0.113293 0.718836 0.204811
H15   H     H_    0.453209 0.346842 0.130684 0.136146
H16   H     H_    0.453261 0.346717 0.869917 0.138526
H17   H     H_    0.596943 0.548165 0.873168 0.217019
H18   H     H_    0.581556 0.716530 0.874695 0.193826
H19   H     H_    0.596518 0.544535 0.120724 0.215266
H20   H     H_    0.582122 0.714138 0.125668 0.198104
H21   H     H_    0.121315 0.189297 0.506748 0.186515
H22   H     H_    0.651128 0.433436 0.715011 0.148752
H23   H     H_    0.739221 0.434947 0.717381 0.144258
H24   H     H_    0.878560 0.189881 0.538181 0.187585
H25   H     H_    0.963404 0.186154 0.538158 0.135668
H26   H     H_    0.036451 0.184917 0.507113 0.135042
H27   H     H_    0.347388 0.500177 0.274812 0.167246
N1    N     N_R   0.202141 0.501078 0.501580 -0.472120
N2    N     N_R   0.797924 0.499644 0.505533 -0.468370
N3    N     N_R   0.500300 0.500930 0.147930 -0.183774
N4    N     N_R   0.500310 0.500890 0.852020 -0.184085
O1    O     O_R   0.500000 0.319640 0.618810 -0.583078
O2    O     O_2   0.797158 0.282864 0.524963 -0.534616
O3    O     O_2   0.203196 0.718243 0.495128 -0.529161
O4    O     O_2   0.797416 0.716464 0.486693 -0.534923
O5    O     O_R   0.500010 0.319680 0.381230 -0.586471
O6    O     O_R   0.430260 0.500000 0.618780 -0.586274
O7    O     O_R   0.430270 0.500040 0.381190 -0.583574
O8    O     O_R   0.499990 0.680320 0.618770 -0.576369
O9    O     O_R   0.500000 0.680360 0.381190 -0.585277
O10   O     O_R   0.569730 0.499960 0.618810 -0.585745
O11   O     O_R   0.569740 0.500000 0.381220 -0.579666
O12   O     O_2   0.202930 0.283879 0.506420 -0.539936
N5    N     N_2   0.254036 0.501487 0.762805 -0.429644
H28   H     H_    0.219030 0.532176 0.759206 0.262860
C55   C     C_3   0.259302 0.391130 0.846871 -0.661380
H29   H     H_    0.239972 0.403263 0.948054 0.227208
H30   H     H_    0.297726 0.373507 0.870334 0.223707
H31   H     H_    0.243787 0.310147 0.791090 0.256076

loop_
_geom_bond_atom_site_label_1
_geom_bond_atom_site_label_2
_ccdc_geom_bond_type
C10   C27   A    
Cu1   Cu2   S    
C24   H5    S    
C41   C42   S    
Cu1   O10   S    
Cu2   O11   S    
C21   C26   A    
Cu2   O7    S    
C28   C29   A    
C36   C37   A    
C51   O3    S    
C5    C6    A    
C9    C22   A    
C42   H11   S    
C23   C40   S    
C34   O10   A    
C23   O9    A    
C55   H31   S    
C18   C19   A    
C25   H7    S    
C31   H3    S    
Cu1   O1    S    
C33   H6    S    
C35   H8    S    
C16   C20   A    
C1    O1    A    
C2    N5    S    
C43   H13   S    
C21   C22   A    
C27   C30   A    
C42   H12   S    
C12   O7    A    
C36   C41   A    
C4    C7    A    
C44   N3    A    
C4    C28   A    
C7    C31   A    
C24   C25   A    
C22   H22   S    
Cu1   O8    S    
C45   O12   S    
C8    C54   A    
C39   C40   A    
C16   C17   A    
C6    H21   S    
C25   C26   A    
C5    C45   A    
C47   N4    A    
C30   H26   S    
C37   C38   A    
C50   H20   S    
Cu2   N3    S    
C15   H24   S    
C38   H9    S    
C8    C12   S    
C20   N2    A    
C21   H23   S    
N5    C55   S    
C17   C18   A    
C48   N4    A    
C55   H30   S    
C46   H15   S    
C52   H2    S    
C48   C49   S    
C6    C30   A    
C11   C32   A    
C1    O5    A    
C2    C54   A    
C9    C34   S    
C39   H10   S    
C31   C35   A    
C12   O6    A    
C45   N1    A    
C42   C43   S    
C32   H4    S    
C3    N1    S    
C52   C53   A    
C44   C50   S    
Cu2   O9    S    
C46   C47   A    
C40   C41   A    
C14   C15   A    
C4    C5    A    
C19   N2    A    
C10   C13   A    
C8    C53   A    
C3    C52   A    
C9    C24   A    
C1    C37   S    
C43   H14   S    
C20   O2    S    
C29   C35   A    
C13   C17   A    
C53   H27   S    
C32   C33   A    
C2    C3    A    
C7    C51   A    
C50   H19   S    
C11   C13   A    
C38   C39   A    
C26   N2    S    
C51   N1    A    
N5    H28   S    
C34   O11   A    
C23   O8    A    
C49   H17   S    
Cu1   N4    S    
C55   H29   S    
C18   C33   A    
C47   H16   S    
C19   O4    S    
C44   C48   A    
Cu2   O5    S    
C11   C29   A    
C49   C50   S    
C27   C28   A    
C49   H18   S    
C36   C43   S    
C14   H25   S    
Cu1   O6    S    
C15   C16   A    
C10   C14   A    
C46   N3    A    
C54   H1    S    
