data_mof_unit_pretest_735.cif
_audit_creation_date              2012-10-26T20:58:17-0400
_audit_creation_method            fapswitch 2.2
_symmetry_space_group_name_H-M    P1
_symmetry_Int_Tables_number       1
_space_group_crystal_system       triclinic
_cell_length_a                    10.623906
_cell_length_b                    14.763094
_cell_length_c                    14.682886
_cell_angle_alpha                 65.318741
_cell_angle_beta                  103.904338
_cell_angle_gamma                 102.906271
_cell_volume                      2011.34229661

loop_
_atom_site_label
_atom_site_type_symbol
_atom_type_description
_atom_site_fract_x
_atom_site_fract_y
_atom_site_fract_z
_atom_type_partial_charge
C1    C     C_R   0.478322 0.119239 0.311682 0.546913
C2    C     C_R   0.504774 0.533823 0.948838 0.049222
C3    C     C_R   0.505863 0.493333 0.876997 -0.120924
C4    C     C_R   0.491296 0.506567 0.122515 -0.120696
C5    C     C_R   0.497635 0.390761 0.903872 -0.110463
C6    C     C_R   0.499489 0.609136 0.095632 -0.110502
C7    C     C_R   0.710894 0.282244 0.677171 0.292018
C8    C     C_R   0.288917 0.717718 0.322909 0.291922
C9    C     C_R   0.689374 0.207519 0.637061 0.225328
C10   C     C_R   0.310574 0.792488 0.362968 0.225394
C11   C     C_R   0.515084 0.283382 0.512622 0.000802
C12   C     C_R   0.521675 0.880766 0.688312 0.546840
C13   C     C_R   0.484817 0.716558 0.487412 0.000746
C14   C     C_R   0.545631 0.369559 0.539602 -0.086152
C15   C     C_R   0.454080 0.630325 0.460514 -0.086128
C16   C     C_R   0.259480 0.000348 0.499964 0.553677
C17   C     C_R   0.740521 0.999652 0.500037 0.553664
C18   C     C_R   0.639315 0.364449 0.628075 0.086397
C19   C     C_R   0.360327 0.635421 0.372077 0.086351
C20   C     C_R   0.485630 0.459579 0.482554 -0.012517
C21   C     C_R   0.513965 0.540260 0.517613 -0.012575
C22   C     C_R   0.597725 0.527213 0.610700 -0.137655
C23   C     C_R   0.474497 0.289141 0.176819 -0.168119
C24   C     C_R   0.401683 0.472557 0.389554 -0.137538
C25   C     C_R   0.661115 0.441979 0.665317 0.266746
C26   C     C_R   0.338258 0.557774 0.334966 0.266522
C27   C     C_3   0.014596 0.009980 0.407732 -0.126179
C28   C     C_3   0.985406 0.990020 0.592269 -0.126148
C29   C     C_3   0.961338 0.086861 0.429677 -0.119578
C30   C     C_3   0.038664 0.913139 0.570325 -0.119552
C31   C     C_3   0.877289 0.999180 0.499848 0.039120
C32   C     C_3   0.122712 0.000820 0.500154 0.039127
C33   C     C_3   0.928245 0.922229 0.477883 -0.110089
C34   C     C_R   0.525224 0.710886 0.823169 -0.167847
C35   C     C_3   0.071757 0.077771 0.522119 -0.110085
C36   C     C_R   0.470537 0.185894 0.202754 -0.010424
C37   C     C_R   0.529101 0.814123 0.797209 -0.010549
C38   C     C_R   0.480309 0.220854 0.027609 -0.056334
C39   C     C_R   0.517840 0.779094 0.972084 -0.056386
C40   C     C_R   0.469604 0.151353 0.125877 0.227262
C41   C     C_R   0.529316 0.848634 0.873960 0.227316
C42   C     C_R   0.484407 0.360301 0.077621 0.022206
C43   C     C_R   0.514068 0.639658 0.922140 0.022291
C44   C     C_R   0.487546 0.324045 0.002964 0.004619
C45   C     C_R   0.510377 0.675889 0.996689 0.004392
C46   C     C_R   0.493195 0.466112 0.050827 0.049251
Cu1   Cu    Cu3+1 0.465750 0.918270 0.475680 0.946758
Cu2   Cu    Cu3+1 0.534250 0.081730 0.524320 0.946689
H1    H     H_    0.926470 0.157837 0.372143 0.128302
H2    H     H_    0.133088 0.141535 0.540201 0.133584
H3    H     H_    0.499185 0.363393 0.846182 0.140661
H4    H     H_    0.497336 0.636477 0.153206 0.141347
H5    H     H_    0.529628 0.688284 0.763508 0.122662
H6    H     H_    0.471409 0.311839 0.236707 0.123123
H7    H     H_    0.482154 0.193611 0.969886 0.157003
H8    H     H_    0.515533 0.806312 0.029722 0.157061
H9    H     H_    0.512616 0.538231 0.798496 0.097931
H10   H     H_    0.483519 0.461631 0.200832 0.097486
H11   H     H_    0.253354 0.933186 0.305014 0.259307
H12   H     H_    0.073533 0.842163 0.627859 0.128313
H13   H     H_    0.157683 0.837540 0.385811 0.257887
H14   H     H_    0.746605 0.066828 0.695094 0.259338
H15   H     H_    0.842253 0.162433 0.614241 0.257897
H16   H     H_    0.831482 0.210715 0.797743 0.345550
H17   H     H_    0.168530 0.789359 0.202254 0.345503
H18   H     H_    0.614826 0.984131 0.824405 0.334368
H19   H     H_    0.384334 0.015817 0.175585 0.334233
H20   H     H_    0.748015 0.493224 0.771721 0.314095
H21   H     H_    0.250753 0.506264 0.228852 0.313995
H22   H     H_    0.565283 0.723104 0.545936 0.132071
H23   H     H_    0.434682 0.276812 0.454071 0.132100
H24   H     H_    0.615045 0.582406 0.643916 0.069923
H25   H     H_    0.384158 0.417298 0.356408 0.069827
H26   H     H_    0.029842 0.018158 0.332319 0.121906
H27   H     H_    0.970160 0.981842 0.667682 0.121909
H28   H     H_    0.866914 0.858465 0.459800 0.133611
N1    N     N_R   0.585750 0.204560 0.560800 -0.239909
N2    N     N_R   0.414250 0.795440 0.439200 -0.239890
N3    N     N_3   0.213014 0.857948 0.328571 -0.646226
N4    N     N_3   0.786949 0.142068 0.671488 -0.646287
O1    O     O_R   0.454850 0.022100 0.338110 -0.495304
O2    O     O_3   0.191767 0.720394 0.240174 -0.614762
O3    O     O_3   0.535761 0.948644 0.855660 -0.669491
O4    O     O_3   0.463284 0.051355 0.144194 -0.669452
O5    O     O_3   0.743708 0.433128 0.756410 -0.626511
O6    O     O_3   0.255332 0.566478 0.244036 -0.626776
O7    O     O_R   0.545150 0.977900 0.661890 -0.495463
O8    O     O_R   0.512700 0.160150 0.379180 -0.510869
O9    O     O_R   0.487300 0.839850 0.620820 -0.510725
O10   O     O_R   0.287930 0.931000 0.479440 -0.517229
O11   O     O_R   0.712070 0.069000 0.520560 -0.517184
O12   O     O_R   0.345780 0.069050 0.520520 -0.497634
O13   O     O_R   0.654220 0.930950 0.479480 -0.497642
O14   O     O_3   0.808059 0.279629 0.759881 -0.614765

loop_
_geom_bond_atom_site_label_1
_geom_bond_atom_site_label_2
_ccdc_geom_bond_type
C30   C32   S    
C16   O10   A    
C6    C45   A    
C27   C29   S    
C34   C37   A    
C40   O4    S    
C17   O11   A    
C10   N2    A    
C39   C41   A    
C4    C46   A    
C27   C33   S    
C15   C19   A    
C23   C42   A    
C8    O2    S    
H14   N4    S    
C24   C26   A    
C11   C14   A    
C11   H23   S    
C24   H25   S    
C13   H22   S    
C1    O1    A    
C41   O3    S    
C42   C46   A    
C22   H24   S    
C12   C37   S    
C19   C26   A    
C14   C18   A    
C11   N1    A    
H18   O3    S    
C38   H7    S    
C39   H8    S    
C28   C35   S    
C22   C25   A    
C30   H12   S    
Cu2   O8    S    
C27   H26   S    
C30   C33   S    
C39   C45   A    
C1    O8    A    
H19   O4    S    
C21   C22   A    
H20   O5    S    
Cu1   O9    S    
C18   C25   A    
C42   C44   A    
C25   O5    S    
H15   N4    S    
C8    C19   A    
C32   C35   S    
C14   C20   A    
C12   O9    A    
C36   C40   A    
C4    C6    A    
H11   N3    S    
C29   H1    S    
Cu2   O11   S    
C2    C46   A    
C9    N4    S    
Cu2   N1    S    
C38   C44   A    
C33   H28   S    
Cu1   Cu2   S    
C2    C43   A    
C26   O6    S    
C7    C18   A    
C35   H2    S    
C31   C33   S    
Cu1   O13   S    
Cu2   O7    S    
C9    N1    A    
C43   C45   A    
C3    H9    S    
C5    C44   A    
C16   O12   A    
C13   C15   A    
C17   C31   S    
Cu1   O10   S    
C17   O13   A    
C23   H6    S    
C7    C9    A    
C7    O14   S    
C13   N2    A    
C12   O7    A    
C27   C32   S    
C28   C31   S    
C34   C43   A    
C3    C5    A    
C10   N3    S    
C16   C32   S    
C29   C35   S    
C28   C30   S    
C2    C3    A    
H16   O14   S    
C29   C31   S    
C38   C40   A    
H17   O2    S    
H13   N3    S    
Cu1   O1    S    
C37   C41   A    
C15   C21   A    
C20   C21   A    
C34   H5    S    
C8    C10   A    
C23   C36   A    
Cu2   O12   S    
C4    H10   S    
C5    H3    S    
Cu1   N2    S    
C6    H4    S    
C28   H27   S    
C20   C24   A    
H21   O6    S    
C1    C36   S    
