data_mof_unit_pretest_759.cif
_audit_creation_date              2012-12-10T17:09:32-0500
_audit_creation_method            fapswitch 2.2
_symmetry_space_group_name_H-M    P1
_symmetry_Int_Tables_number       1
_space_group_crystal_system       triclinic
_cell_length_a                    10.512817
_cell_length_b                    10.587553
_cell_length_c                    10.101507
_cell_angle_alpha                 90.501735
_cell_angle_beta                  92.679696
_cell_angle_gamma                 90.105753
_cell_volume                      1123.07291577

loop_
_atom_site_label
_atom_site_type_symbol
_atom_type_description
_atom_site_fract_x
_atom_site_fract_y
_atom_site_fract_z
_atom_type_partial_charge
C1    C     C_R   0.500430 0.262366 0.499457 0.918617
C2    C     C_2   0.586116 0.554053 0.078828 -0.003415
C3    C     C_R   0.257473 0.500515 0.497094 0.957429
C4    C     C_R   0.486056 0.736684 0.499632 0.929440
C5    C     C_R   0.742279 0.500207 0.502522 0.985625
C6    C     C_3   0.046130 0.409861 0.573185 0.537920
C7    C     C_3   0.953110 0.387662 0.452917 -0.414159
C8    C     C_3   0.877264 0.501107 0.505378 -0.246364
C9    C     C_3   0.968948 0.520795 0.627706 -0.334899
C10   C     C_3   0.043478 0.613157 0.542981 0.370718
C11   C     C_R   0.652517 0.675022 0.881727 0.183162
C12   C     C_3   0.951342 0.595197 0.422137 0.419052
C13   C     C_R   0.596137 0.790215 0.845474 -0.066787
C14   C     C_R   0.671309 0.896600 0.824586 -0.179339
C15   C     C_R   0.803490 0.889687 0.844142 -0.138424
C16   C     C_R   0.860612 0.775870 0.882731 -0.156917
C17   C     C_R   0.785580 0.668952 0.901173 -0.196576
C18   C     C_3   0.349529 0.357815 0.111036 -0.113789
C19   C     C_3   0.015565 0.245298 0.715408 -0.314937
C20   C     C_3   0.015838 0.823229 0.600022 -0.263830
C21   C     C_3   0.953541 0.747009 0.259032 -0.319308
C22   C     C_3   0.974095 0.412947 0.160259 -0.359155
C23   C     C_3   0.028128 0.483014 0.371840 0.418676
C24   C     C_R   0.373168 0.884941 0.260386 0.147507
C25   C     C_R   0.290781 0.780615 0.245090 -0.087699
C26   C     C_R   0.246388 0.740573 0.118886 -0.082067
C27   C     C_R   0.278701 0.807678 0.007034 -0.138716
C28   C     C_R   0.357247 0.913825 0.021068 -0.177751
C29   C     C_R   0.406207 0.950895 0.146321 -0.165857
C30   C     C_3   0.121963 0.502162 0.491856 -0.267031
C31   C     C_2   0.412772 0.935761 0.394643 0.042600
C32   C     C_2   0.449654 0.867060 0.501639 -0.357929
C33   C     C_2   0.412003 0.072392 0.411748 -0.192506
C34   C     C_2   0.495380 0.128956 0.496593 -0.324163
C35   C     C_2   0.573523 0.571979 0.931327 0.012186
H1    H     H_    0.910025 0.296300 0.419634 0.156065
H2    H     H_    0.861568 0.972560 0.829955 0.112556
H3    H     H_    0.962918 0.770727 0.899587 0.138429
H4    H     H_    0.830643 0.582631 0.935662 0.102152
H5    H     H_    0.314580 0.347709 0.211743 0.217122
H6    H     H_    0.428164 0.289616 0.095549 0.090656
H7    H     H_    0.269674 0.332017 0.040213 0.147184
H8    H     H_    0.945775 0.198851 0.644457 0.152336
H9    H     H_    0.965694 0.306110 0.786723 0.153633
H10   H     H_    0.064758 0.169619 0.773092 0.178091
H11   H     H_    0.917521 0.790209 0.617879 0.188081
H12   H     H_    0.562899 0.078825 0.561310 0.126534
H13   H     H_    0.014007 0.881450 0.509338 0.181097
H14   H     H_    0.047457 0.885401 0.684223 0.164269
H15   H     H_    0.899667 0.828697 0.217631 0.191632
H16   H     H_    0.970666 0.681940 0.175316 0.192068
H17   H     H_    0.043920 0.784107 0.304609 0.162422
H18   H     H_    0.881960 0.463634 0.167741 0.178730
H19   H     H_    0.962239 0.311338 0.183477 0.172787
H20   H     H_    0.001995 0.419170 0.055947 0.180586
H21   H     H_    0.259298 0.731636 0.331098 0.143536
H22   H     H_    0.185178 0.658651 0.107803 0.189268
H23   H     H_    0.467156 0.419132 0.890191 0.209903
H24   H     H_    0.242315 0.777908 0.909655 0.158667
H25   H     H_    0.380651 0.967475 0.934757 0.132168
H26   H     H_    0.467942 0.032880 0.154323 0.130733
H27   H     H_    0.669814 0.592539 0.131873 0.123488
H28   H     H_    0.940907 0.534792 0.731053 0.172299
H29   H     H_    0.455309 0.910575 0.599553 0.145260
H30   H     H_    0.348852 0.128093 0.346862 0.149517
H31   H     H_    0.493771 0.797596 0.834643 0.138385
H32   H     H_    0.626867 0.985004 0.796048 0.120127
N1    N     N_2   0.501360 0.501330 0.852150 -0.193834
N2    N     N_2   0.501400 0.501360 0.147810 0.079001
O1    O     O_R   0.499980 0.319060 0.613040 -0.619822
O2    O     O_3   0.107352 0.314360 0.648924 -0.579810
O3    O     O_3   0.104905 0.724769 0.589283 -0.619030
O4    O     O_3   0.879600 0.688609 0.353088 -0.611342
O5    O     O_3   0.071557 0.467160 0.242743 -0.602408
O6    O     O_R   0.500020 0.319100 0.386900 -0.645408
O7    O     O_R   0.313930 0.499950 0.613050 -0.566569
O8    O     O_R   0.313970 0.499990 0.386910 -0.614100
O9    O     O_R   0.499980 0.680900 0.613100 -0.622789
O10   O     O_R   0.500020 0.680940 0.386960 -0.593918
O11   O     O_R   0.686030 0.500010 0.613090 -0.633942
O12   O     O_R   0.686070 0.500050 0.386950 -0.611402
O13   O     O_3   0.386342 0.483026 0.086074 -0.538206
Zn1   Zn    Zn3+2 0.499970 0.499970 0.650990 0.964840
Zn2   Zn    Zn3+2 0.500030 0.500030 0.349010 0.987641

loop_
_geom_bond_atom_site_label_1
_geom_bond_atom_site_label_2
_ccdc_geom_bond_type
C2    C35   S    
C7    H1    S    
C19   O2    S    
C25   H21   S    
C6    C9    S    
C33   H30   S    
C7    C8    S    
C22   H19   S    
C12   C23   S    
C26   C27   A    
C28   C29   A    
C18   H7    S    
O10   Zn2   S    
O6    Zn2   S    
C15   C16   A    
C21   O4    S    
C17   H4    S    
C18   H5    S    
C24   C29   A    
C15   H2    S    
N2    O13   S    
O9    Zn1   S    
C8    C9    S    
C14   H32   S    
C31   C33   S    
C22   H18   S    
C2    N2    D    
C9    C10   S    
C13   C14   A    
O11   Zn1   S    
O7    Zn1   S    
C21   H15   S    
C19   H8    S    
C1    C34   S    
C6    C7    S    
C13   H31   S    
C28   H25   S    
C6    O2    S    
C29   H26   S    
C1    O6    A    
C23   C30   S    
C24   C25   A    
C32   H29   S    
C4    O10   A    
C18   H6    S    
C16   C17   A    
O8    Zn2   S    
C25   C26   A    
C3    C30   S    
C4    O9    A    
C20   H14   S    
C3    O7    A    
C5    O12   A    
C10   C30   S    
C31   C32   D    
C8    C12   S    
C33   C34   D    
C20   H13   S    
C5    O11   A    
O1    Zn1   S    
C4    C32   S    
C10   C12   S    
H23   N1    S    
C6    C30   S    
C22   O5    S    
C23   O5    S    
C3    O8    A    
C21   H16   S    
O12   Zn2   S    
C19   H9    S    
C11   C17   A    
C9    H28   S    
N1    Zn1   S    
C5    C8    S    
C19   H10   S    
C22   H20   S    
C1    O1    A    
C11   C35   S    
C24   C31   S    
N2    Zn2   S    
C27   H24   S    
C11   C13   A    
C35   N1    D    
C7    C23   S    
C18   O13   S    
C26   H22   S    
C27   C28   A    
C14   C15   A    
C20   O3    S    
C34   H12   S    
C12   O4    S    
C21   H17   S    
C20   H11   S    
C2    H27   S    
C16   H3    S    
C10   O3    S    
