data_mof_unit_pretest_1873.cif
_audit_creation_date              2012-12-10T16:46:24-0500
_audit_creation_method            fapswitch 2.2
_symmetry_space_group_name_H-M    P1
_symmetry_Int_Tables_number       1
_space_group_crystal_system       triclinic
_cell_length_a                    19.04611
_cell_length_b                    18.863864
_cell_length_c                    18.972388
_cell_angle_alpha                 109.16811
_cell_angle_beta                  110.18827
_cell_angle_gamma                 109.346266
_cell_volume                      5228.16092394

loop_
_atom_site_label
_atom_site_type_symbol
_atom_type_description
_atom_site_fract_x
_atom_site_fract_y
_atom_site_fract_z
_atom_type_partial_charge
C1    C     C_R   0.384694 0.382443 0.502187 0.836264
C2    C     C_3   0.807299 0.498967 0.806033 0.161064
C3    C     C_3   0.843907 0.542630 0.760335 -0.360625
C4    C     C_3   0.770070 0.549727 0.848037 -0.393303
C5    C     C_2   0.255321 0.179759 0.503202 -0.154110
C6    C     C_2   0.180615 0.177270 0.490673 -0.314464
C7    C     C_2   0.315816 0.240403 0.490844 -0.158809
C8    C     C_2   0.323150 0.318253 0.508862 -0.326096
C9    C     C_2   0.168017 0.484195 0.241396 -0.204912
C10   C     C_2   0.181952 0.508341 0.186278 -0.338539
C11   C     C_2   0.238986 0.495421 0.316737 0.028784
C12   C     C_R   0.617655 0.499296 0.619113 0.752071
C13   C     C_2   0.304862 0.487051 0.310698 -0.361610
C14   C     C_2   0.742552 0.749297 0.425604 -0.154547
C15   C     C_2   0.819229 0.810530 0.497184 -0.315090
C16   C     C_2   0.681904 0.676471 0.425745 -0.156084
C17   C     C_2   0.677433 0.687159 0.497167 -0.320567
C18   C     C_R   0.993074 0.381965 0.876032 0.847640
C19   C     C_R   0.875512 0.498764 0.873961 0.753237
C20   C     C_R   0.995852 0.618109 0.112713 0.846139
C21   C     C_R   0.113224 0.501847 0.114673 0.861189
C22   C     C_R   0.001055 0.119312 0.616687 0.848258
C23   C     C_R   0.615587 0.618018 0.498579 0.849722
C24   C     C_R   0.117099 0.115437 0.497660 0.844793
C25   C     C_R   0.999090 0.880922 0.383215 0.841437
C26   C     C_R   0.882860 0.880721 0.498521 0.846329
C27   C     C_2   0.991336 0.250327 0.673853 -0.157929
C28   C     C_2   0.007567 0.189787 0.685214 -0.312303
C29   C     C_2   0.002491 0.323153 0.745873 -0.163277
C30   C     C_2   0.986776 0.312767 0.806442 -0.316107
C31   C     C_2   0.009562 0.750476 0.322880 -0.159043
C32   C     C_2   0.992495 0.811342 0.313751 -0.311807
C33   C     C_2   0.995251 0.677556 0.248172 -0.156890
C34   C     C_R   0.378111 0.496353 0.380613 0.844019
C35   C     C_2   0.004424 0.687192 0.184349 -0.317384
C36   C     C_3   0.660421 0.405214 0.667797 -0.382060
C37   C     C_3   0.732920 0.404727 0.736340 -0.375999
C38   C     C_3   0.771838 0.541000 0.689223 -0.391733
C39   C     C_3   0.699985 0.551967 0.778704 -0.357245
C40   C     C_3   0.685819 0.499553 0.687504 0.161893
Cu1   Cu    Cu3+1 0.500730 0.439000 0.439690 0.935718
Cu2   Cu    Cu3+1 0.499270 0.561000 0.560310 0.951146
Cu3   Cu    Cu3+1 0.933160 0.439090 0.994150 0.936960
Cu4   Cu    Cu3+1 0.055180 0.561040 0.994050 0.936694
Cu5   Cu    Cu3+1 0.061740 0.000000 0.561740 0.943242
Cu6   Cu    Cu3+1 0.938260 0.000000 0.438260 0.944554
H1    H     H_    0.648940 0.365298 0.602565 0.178841
H2    H     H_    0.822601 0.617206 0.899378 0.153701
H3    H     H_    0.790563 0.608315 0.701733 0.150680
H4    H     H_    0.896039 0.611185 0.808302 0.177342
H5    H     H_    0.270219 0.133789 0.518049 0.160419
H6    H     H_    0.161187 0.216305 0.466233 0.148313
H7    H     H_    0.357700 0.222775 0.471475 0.160455
H8    H     H_    0.288267 0.339346 0.537520 0.148355
H9    H     H_    0.104187 0.460203 0.234204 0.169560
H10   H     H_    0.247043 0.540204 0.197750 0.156806
H11   H     H_    0.599198 0.374651 0.667472 0.150894
H12   H     H_    0.302254 0.466347 0.248801 0.149362
H13   H     H_    0.726034 0.749693 0.364966 0.161957
H14   H     H_    0.839744 0.804862 0.555102 0.151315
H15   H     H_    0.637509 0.615043 0.365397 0.161474
H16   H     H_    0.714968 0.750975 0.554696 0.152873
H17   H     H_    0.974233 0.249261 0.612499 0.159491
H18   H     H_    0.033818 0.196058 0.749065 0.153704
H19   H     H_    0.019033 0.384242 0.746228 0.157601
H20   H     H_    0.961028 0.249180 0.800780 0.154396
H21   H     H_    0.028986 0.750969 0.384095 0.160363
H22   H     H_    0.705355 0.370954 0.766622 0.180734
H23   H     H_    0.964039 0.805497 0.250258 0.153062
H24   H     H_    0.981430 0.616810 0.248044 0.158457
H25   H     H_    0.028056 0.750459 0.189176 0.151001
H26   H     H_    0.758236 0.367426 0.704499 0.152272
H27   H     H_    0.764126 0.503508 0.625248 0.173413
H28   H     H_    0.872655 0.508216 0.731017 0.156891
H29   H     H_    0.720298 0.620612 0.795595 0.174279
H30   H     H_    0.638480 0.524315 0.778684 0.163978
H31   H     H_    0.741614 0.518578 0.879538 0.170882
O1    O     O_R   0.411600 0.359460 0.449080 -0.582530
O2    O     O_R   0.046690 0.462500 0.906070 -0.581339
O3    O     O_R   0.852560 0.448570 0.904070 -0.593726
O4    O     O_R   0.955610 0.551560 0.903980 -0.598497
O5    O     O_R   0.941640 0.537630 0.082140 -0.581836
O6    O     O_R   0.044680 0.640620 0.082050 -0.587074
O7    O     O_R   0.032730 0.448570 0.084230 -0.584379
O8    O     O_R   0.135770 0.551560 0.084140 -0.586702
O9    O     O_R   0.051070 0.089000 0.640130 -0.587469
O10   O     O_R   0.946790 0.089000 0.535860 -0.580716
O11   O     O_R   0.141150 0.089030 0.552120 -0.580098
O12   O     O_R   0.410370 0.462480 0.550940 -0.584913
O13   O     O_R   0.036880 0.089030 0.447850 -0.591245
O14   O     O_R   0.053210 0.911000 0.464140 -0.584456
O15   O     O_R   0.948930 0.911000 0.359870 -0.591456
O16   O     O_R   0.963120 0.910970 0.552150 -0.591715
O17   O     O_R   0.858850 0.910970 0.447880 -0.579558
O18   O     O_R   0.590700 0.448490 0.539150 -0.596484
O19   O     O_R   0.589460 0.551510 0.641010 -0.596708
O20   O     O_R   0.589630 0.537520 0.449060 -0.580651
O21   O     O_R   0.588400 0.640540 0.550920 -0.586420
O22   O     O_R   0.410540 0.448490 0.358990 -0.589482
O23   O     O_R   0.409300 0.551510 0.460850 -0.564891
O24   O     O_R   0.943650 0.359510 0.906150 -0.587586
C41   C     C_R   0.230252 0.508825 0.394109 0.149215
C42   C     C_R   0.223707 0.580640 0.437074 -0.147531
C43   C     C_R   0.212645 0.592382 0.508389 -0.147853
C44   C     C_R   0.206958 0.532015 0.536577 -0.114813
C45   C     C_R   0.212157 0.459724 0.493394 -0.123105
C46   C     C_R   0.223712 0.447954 0.422329 -0.113117
H32   H     H_    0.227476 0.627593 0.415499 0.130778
H33   H     H_    0.208092 0.648082 0.541558 0.129431
H34   H     H_    0.198011 0.540980 0.591554 0.122778
H35   H     H_    0.206590 0.412548 0.514686 0.114273
H36   H     H_    0.226686 0.391157 0.388828 0.106384

loop_
_geom_bond_atom_site_label_1
_geom_bond_atom_site_label_2
_ccdc_geom_bond_type
C26   O17   A    
C44   H34   S    
Cu3   O7    S    
C20   O5    A    
C27   C29   S    
C1    C8    S    
Cu1   Cu2   S    
Cu4   O6    S    
Cu5   O16   S    
C7    C8    D    
C38   H3    S    
Cu1   O18   S    
Cu5   Cu6   S    
C31   H21   S    
C14   H13   S    
C17   C23   S    
Cu2   O19   S    
C36   C37   S    
Cu2   O21   S    
C5    C6    D    
Cu6   O15   S    
C45   C46   A    
C37   H22   S    
C36   H1    S    
C46   H36   S    
C3    H28   S    
C20   C35   S    
C3    C38   S    
C18   O2    A    
C34   O23   A    
Cu1   O22   S    
C12   O18   A    
C42   H32   S    
C9    H9    S    
C39   H29   S    
C10   H10   S    
C9    C10   D    
C25   C32   S    
C35   H25   S    
C22   C28   S    
C1    O1    A    
C41   C42   A    
C43   C44   A    
C3    H4    S    
C21   O7    A    
C45   H35   S    
C10   C21   S    
C21   O8    A    
C25   O14   A    
C36   C40   S    
Cu5   O11   S    
C36   H11   S    
C8    H8    S    
Cu1   O1    S    
C5    C7    S    
C16   C17   D    
C15   C26   S    
C13   H12   S    
Cu3   O3    S    
C22   O10   A    
C18   O24   A    
C12   C40   S    
C2    C4    S    
Cu3   Cu4   S    
Cu3   O24   S    
C29   C30   D    
Cu2   O23   S    
C17   H16   S    
C9    C11   S    
C31   C32   D    
Cu6   O17   S    
C4    C39   S    
C6    C24   S    
C31   C33   S    
C34   O22   A    
C41   C46   A    
C39   H30   S    
C24   O11   A    
C30   H20   S    
C27   H17   S    
C33   H24   S    
C29   H19   S    
C28   H18   S    
C23   O20   A    
Cu4   O4    S    
C18   C30   S    
C14   C16   S    
C37   H26   S    
C16   H15   S    
C7    H7    S    
Cu4   O8    S    
C39   C40   S    
Cu6   O10   S    
C4    H2    S    
C25   O15   A    
C1    O12   A    
C2    C19   S    
Cu4   O2    S    
C12   O19   A    
C24   O13   A    
C32   H23   S    
Cu6   O13   S    
C44   C45   A    
Cu2   O12   S    
C2    C3    S    
C4    H31   S    
C38   C40   S    
C11   C13   D    
C2    C37   S    
C43   H33   S    
C26   O16   A    
C33   C35   D    
Cu5   O9    S    
C11   C41   S    
Cu1   O20   S    
C22   O9    A    
C19   O3    A    
Cu5   O14   S    
C13   C34   S    
C23   O21   A    
C20   O6    A    
C42   C43   A    
Cu3   O5    S    
C14   C15   D    
C5    H5    S    
C6    H6    S    
C19   O4    A    
C15   H14   S    
C27   C28   D    
C38   H27   S    
