data_mof_unit_pretest_756.cif
_audit_creation_date              2013-03-05T15:56:51-0500
_audit_creation_method            fapswitch 2.2
_symmetry_space_group_name_H-M    P1
_symmetry_Int_Tables_number       1
_space_group_crystal_system       triclinic
_cell_length_a                    21.119531
_cell_length_b                    21.848011
_cell_length_c                    13.943895
_cell_angle_alpha                 89.411699
_cell_angle_beta                  88.957835
_cell_angle_gamma                 90.073727
_cell_volume                      6432.57809172

loop_
_atom_site_label
_atom_site_type_symbol
_atom_site_description
_atom_site_fract_x
_atom_site_fract_y
_atom_site_fract_z
_atom_type_partial_charge
O1    O     O_R   0.064880 0.435140 0.582280 -0.578502
O2    O     O_R   0.935120 0.564860 0.417720 -0.583590
O3    O     O_R   0.935120 0.564860 0.582280 -0.575998
O4    O     O_R   0.064880 0.435140 0.417720 -0.576202
O5    O     O_R   0.935120 0.435140 0.417720 -0.574672
O6    O     O_R   0.064880 0.564860 0.582280 -0.563937
O7    O     O_R   0.064880 0.564860 0.417720 -0.593318
O8    O     O_R   0.935120 0.435140 0.582280 -0.573209
O9    O     O_R   0.564880 0.935140 0.582280 -0.597324
O10   O     O_R   0.435120 0.064860 0.417720 -0.540221
O11   O     O_R   0.435120 0.064860 0.582280 -0.606304
O12   O     O_R   0.564880 0.935140 0.417720 -0.562698
O13   O     O_R   0.435120 0.935140 0.417720 -0.582528
O14   O     O_R   0.564880 0.064860 0.582280 -0.556403
O15   O     O_R   0.564880 0.064860 0.417720 -0.580284
O16   O     O_R   0.435120 0.935140 0.582280 -0.567940
C1    C     C_R   0.087529 0.415087 0.501932 0.813926
C2    C     C_R   0.914974 0.586347 0.500454 0.834154
C3    C     C_R   0.910944 0.417523 0.500502 0.772597
C4    C     C_R   0.084876 0.586888 0.499485 0.830467
C5    C     C_R   0.584845 0.913442 0.499594 0.796925
C6    C     C_R   0.415483 0.086158 0.499260 0.808300
C7    C     C_R   0.413423 0.915268 0.501549 0.784051
C8    C     C_R   0.584719 0.086291 0.499701 0.782988
Cu1   Cu    Cu3+1 0.000000 0.500000 0.597420 1.021015
Cu2   Cu    Cu3+1 0.000000 0.500000 0.402580 1.007258
Cu3   Cu    Cu3+1 0.500000 0.000000 0.597420 1.002155
Cu4   Cu    Cu3+1 0.500000 0.000000 0.402580 1.023469
C9    C     C_R   0.114695 0.695945 0.546850 -0.018166
C10   C     C_R   0.876680 0.309135 0.530433 0.002903
C11   C     C_R   0.882029 0.697859 0.495609 -0.015821
C12   C     C_R   0.143238 0.324711 0.586683 -0.015045
C13   C     C_R   0.614694 0.193654 0.543857 0.011035
C14   C     C_R   0.379159 0.807475 0.539365 -0.012123
C15   C     C_R   0.380810 0.190137 0.440501 0.010137
C16   C     C_R   0.621532 0.803565 0.477402 -0.203933
C17   C     C_R   0.130217 0.639733 0.500304 -0.169920
C18   C     C_R   0.861050 0.368759 0.501663 -0.185628
C19   C     C_R   0.865610 0.635080 0.504116 -0.182037
C20   C     C_R   0.143415 0.371685 0.513412 -0.205512
C21   C     C_R   0.631273 0.136999 0.501685 -0.140951
C22   C     C_R   0.363364 0.867421 0.508984 -0.173840
C23   C     C_R   0.369275 0.136515 0.496259 -0.172573
C24   C     C_R   0.634986 0.865360 0.499734 -0.149433
C25   C     C_R   0.193255 0.632648 0.465435 -0.102122
C26   C     C_R   0.797912 0.379847 0.474753 -0.116903
C27   C     C_R   0.801555 0.618856 0.521852 -0.049418
C28   C     C_R   0.202163 0.382942 0.464657 -0.050731
C29   C     C_R   0.694117 0.127319 0.470489 -0.110293
C30   C     C_R   0.299187 0.882242 0.493460 -0.109975
C31   C     C_R   0.310531 0.128780 0.542714 -0.076063
C32   C     C_R   0.697673 0.881506 0.522612 -0.042683
C33   C     C_R   0.240293 0.671845 0.501916 0.042816
C34   C     C_R   0.750452 0.336840 0.503072 0.049521
C35   C     C_R   0.754660 0.665006 0.534458 0.057209
C36   C     C_R   0.252792 0.339623 0.470684 0.052202
C37   C     C_R   0.741382 0.168819 0.497991 0.072243
C38   C     C_R   0.251311 0.839377 0.520662 0.076472
C39   C     C_R   0.273377 0.180289 0.564223 0.052458
C40   C     C_R   0.744431 0.835411 0.536074 0.070916
C41   C     C_R   0.221971 0.731876 0.523572 0.025696
C42   C     C_R   0.768947 0.275499 0.512926 0.043634
C43   C     C_R   0.772933 0.726931 0.529334 0.005324
C44   C     C_R   0.243431 0.285183 0.523255 0.031062
C45   C     C_R   0.722786 0.229376 0.516071 0.051842
C46   C     C_R   0.268515 0.777589 0.528562 0.047133
C47   C     C_R   0.286960 0.236223 0.515241 0.035803
C48   C     C_R   0.726775 0.773487 0.526729 0.068331
C49   C     C_R   0.157716 0.746098 0.536155 0.032712
C50   C     C_R   0.833793 0.260539 0.517120 0.025308
C51   C     C_R   0.837218 0.742742 0.524659 0.043001
C52   C     C_R   0.193822 0.281949 0.591186 0.046688
C53   C     C_R   0.658482 0.243597 0.537006 -0.026640
C54   C     C_R   0.332038 0.760990 0.542230 -0.048149
C55   C     C_R   0.341317 0.242206 0.454407 0.035457
C56   C     C_R   0.663419 0.757532 0.510298 -0.028653
C57   C     C_R   0.303768 0.654351 0.519586 -0.018788
C58   C     C_R   0.686527 0.352792 0.523242 -0.030495
C59   C     C_R   0.689976 0.651951 0.555478 -0.049890
C60   C     C_R   0.314684 0.350887 0.434113 -0.043436
C61   C     C_R   0.806268 0.152429 0.504119 -0.053499
C62   C     C_R   0.187029 0.855388 0.537897 -0.065899
C63   C     C_R   0.225974 0.179418 0.638122 -0.100356
C64   C     C_R   0.807526 0.848338 0.564009 -0.085121
C65   C     C_R   0.852758 0.198319 0.512748 -0.137749
C66   C     C_R   0.140261 0.808745 0.543998 -0.077698
C67   C     C_R   0.196415 0.234699 0.661742 -0.073536
C68   C     C_R   0.854521 0.802435 0.553537 -0.057058
C69   C     C_R   0.345287 0.698047 0.558634 -0.104310
C70   C     C_R   0.641789 0.306509 0.548960 -0.114010
C71   C     C_R   0.644022 0.696638 0.532367 -0.163773
C72   C     C_R   0.356799 0.301741 0.417743 -0.113591
C73   C     C_R   0.056338 0.502783 0.791670 0.164709
C74   C     C_R   0.946160 0.514111 0.204785 0.110685
C75   C     C_R   0.944055 0.497248 0.795263 0.127568
C76   C     C_R   0.053861 0.486914 0.202603 0.089482
C77   C     C_R   0.556587 0.997155 0.791535 0.138899
C78   C     C_R   0.445258 0.012208 0.206855 0.136035
C79   C     C_R   0.444873 0.005589 0.797599 0.139531
C80   C     C_R   0.554966 0.988927 0.203489 0.102950
N1    N     N_R   1.000000 0.500000 0.743810 -0.248579
N2    N     N_R   1.000000 0.500000 0.256190 -0.242583
N3    N     N_R   0.500000 1.000000 0.743810 -0.252279
N4    N     N_R   0.500000 0.000000 0.256190 -0.239339
C81   C     C_R   0.942895 0.504081 0.897321 -0.058709
C82   C     C_R   0.057143 0.494374 0.100163 -0.056679
C83   C     C_R   0.058214 0.496608 0.894204 -0.058397
C84   C     C_R   0.943234 0.505763 0.102820 -0.060308
C85   C     C_R   0.446874 0.018467 0.898166 -0.029306
C86   C     C_R   0.558273 0.995415 0.100911 -0.060450
C87   C     C_R   0.558185 0.992918 0.894669 -0.072272
C88   C     C_R   0.445870 0.020274 0.103724 -0.112278
C89   C     C_R   0.000471 0.499730 0.947189 0.065779
C90   C     C_R   0.000269 0.499588 0.049866 0.084578
C91   C     C_R   0.502548 0.006292 0.948148 0.060572
C92   C     C_R   0.502303 0.007565 0.051031 0.083528
C93   C     C_R   0.885821 0.513658 0.950812 -0.068224
C94   C     C_R   0.115473 0.494382 0.046745 -0.086313
C95   C     C_R   0.115840 0.490698 0.945557 -0.077211
C96   C     C_R   0.885305 0.508817 0.051956 -0.081169
C97   C     C_R   0.395565 0.045490 0.948991 -0.057226
C98   C     C_R   0.615772 0.987488 0.046334 -0.075052
C99   C     C_R   0.614258 0.979691 0.945769 -0.074757
C100  C     C_R   0.393091 0.042914 0.050971 -0.127535
C101  C     C_2   0.063079 0.699526 0.620716 0.942869
O17   O     O_2   0.013006 0.672618 0.610985 -0.532222
O18   O     O_R   0.073249 0.732838 0.704224 -0.737195
H1    H     H_    0.036231 0.730296 0.751401 0.378999
C102  C     C_2   0.931832 0.301212 0.589595 0.901942
O19   O     O_2   0.984027 0.311359 0.554608 -0.557280
O20   O     O_R   0.922751 0.288518 0.687233 -0.719857
H2    H     H_    0.958746 0.303388 0.727549 0.356333
C103  C     C_2   0.936466 0.717498 0.432754 0.950214
O21   O     O_2   0.982956 0.684991 0.421509 -0.553775
O22   O     O_R   0.931913 0.772120 0.380016 -0.710377
H3    H     H_    0.969345 0.778976 0.334601 0.384775
C104  C     C_2   0.089947 0.314497 0.655800 0.970378
O23   O     O_2   0.073958 0.354194 0.712361 -0.552977
O24   O     O_R   0.065072 0.255151 0.665527 -0.723552
H4    H     H_    0.043183 0.247494 0.729713 0.333714
C105  C     C_2   0.553383 0.197939 0.596267 0.832237
O25   O     O_2   0.505265 0.211178 0.553698 -0.545546
O26   O     O_R   0.550928 0.185428 0.694739 -0.710334
H5    H     H_    0.506441 0.188723 0.722768 0.357175
C106  C     C_2   0.446127 0.791493 0.550446 0.821349
O27   O     O_2   0.468107 0.750023 0.502629 -0.579135
O28   O     O_R   0.482894 0.821426 0.617878 -0.720224
H6    H     H_    0.527680 0.805216 0.620626 0.352603
C107  C     C_2   0.426325 0.187746 0.357696 0.947375
O29   O     O_2   0.481734 0.173883 0.369378 -0.530277
O30   O     O_R   0.405372 0.202814 0.265962 -0.709834
H7    H     H_    0.440339 0.200110 0.215395 0.355756
C108  C     C_2   0.576366 0.789025 0.398794 0.987406
O31   O     O_2   0.531851 0.822737 0.382161 -0.488816
O32   O     O_R   0.585629 0.738814 0.338474 -0.675228
H8    H     H_    0.628213 0.718195 0.344972 0.313070
C109  C     C_2   0.206149 0.597773 0.376638 0.442521
H9    H     H_    0.168733 0.573216 0.343155 0.079257
O33   O     O_2   0.257369 0.600591 0.334836 -0.493384
C110  C     C_2   0.784929 0.426913 0.401417 0.490473
H10   H     H_    0.819184 0.462143 0.386821 0.036882
O34   O     O_2   0.737560 0.424685 0.352706 -0.480186
C111  C     C_2   0.782841 0.554679 0.507161 0.384159
H11   H     H_    0.810450 0.517607 0.537177 0.027634
O35   O     O_2   0.737339 0.543081 0.457717 -0.520923
C112  C     C_2   0.211034 0.441640 0.413079 0.456694
H12   H     H_    0.189886 0.482589 0.442647 0.002611
O36   O     O_2   0.240256 0.444601 0.336775 -0.463062
C113  C     C_2   0.708362 0.079271 0.399635 0.489326
H13   H     H_    0.679500 0.039056 0.397886 0.033536
O37   O     O_2   0.750991 0.085647 0.340038 -0.478670
C114  C     C_2   0.284225 0.936738 0.433653 0.437795
H14   H     H_    0.317286 0.974257 0.427859 0.061898
O38   O     O_2   0.236897 0.938456 0.384677 -0.451597
C115  C     C_2   0.282293 0.066861 0.544090 0.492633
H15   H     H_    0.309843 0.027629 0.565236 0.013631
O39   O     O_2   0.228006 0.059264 0.517901 -0.480351
C116  C     C_2   0.716175 0.946141 0.509301 0.385040
H16   H     H_    0.688738 0.982289 0.542645 0.047360
O40   O     O_2   0.761088 0.959246 0.456636 -0.499511
C117  C     C_2   0.327405 0.591916 0.502085 1.018482
O41   O     O_2   0.294858 0.547302 0.522890 -0.601859
O42   O     O_R   0.387720 0.585155 0.460390 -0.668256
H17   H     H_    0.400442 0.541185 0.450364 0.368764
C118  C     C_2   0.668599 0.417927 0.532123 0.971720
O43   O     O_2   0.692442 0.449190 0.594010 -0.583454
O44   O     O_R   0.624857 0.443182 0.468950 -0.623251
H18   H     H_    0.616856 0.488184 0.480352 0.386609
C119  C     C_2   0.672231 0.597503 0.616106 0.972192
O45   O     O_2   0.621942 0.570916 0.605396 -0.545654
O46   O     O_R   0.713296 0.577584 0.687462 -0.764241
H19   H     H_    0.695991 0.541305 0.725557 0.385795
C120  C     C_2   0.343971 0.410900 0.453121 0.902773
O47   O     O_2   0.368088 0.441082 0.387813 -0.539197
O48   O     O_R   0.348484 0.429444 0.548407 -0.708183
H20   H     H_    0.378408 0.465086 0.556752 0.366199
C121  C     C_2   0.825141 0.087319 0.512969 0.897986
O49   O     O_2   0.801246 0.055403 0.576372 -0.554328
O50   O     O_R   0.870501 0.063029 0.449769 -0.680271
H21   H     H_    0.879526 0.018256 0.462979 0.394729
C122  C     C_2   0.169889 0.919497 0.562259 0.905089
O51   O     O_2   0.200164 0.946635 0.622535 -0.557477
O52   O     O_R   0.119545 0.948657 0.516795 -0.692082
H22   H     H_    0.112518 0.991895 0.540408 0.382412
C123  C     C_2   0.208541 0.123943 0.696014 0.884626
O53   O     O_2   0.152590 0.112014 0.710980 -0.526495
O54   O     O_R   0.254974 0.085610 0.733258 -0.761376
H23   H     H_    0.236300 0.048324 0.767241 0.397672
C124  C     C_2   0.821600 0.904698 0.619332 0.907477
O55   O     O_2   0.868385 0.935693 0.599914 -0.574088
O56   O     O_R   0.780253 0.922547 0.693236 -0.762217
H24   H     H_    0.794202 0.961724 0.724994 0.391954
C125  C     C_2   0.920603 0.180409 0.507847 0.499529
H25   H     H_    0.937997 0.143926 0.553684 0.099840
O57   O     O_2   0.956665 0.204299 0.449117 -0.448349
C126  C     C_2   0.073315 0.826796 0.545201 0.475366
H26   H     H_    0.055149 0.857464 0.599873 0.094531
O58   O     O_2   0.039068 0.809824 0.481335 -0.531727
C127  C     C_2   0.181032 0.246170 0.764937 0.409074
H27   H     H_    0.168148 0.208972 0.813524 0.124344
O59   O     O_2   0.185993 0.297380 0.797970 -0.473921
C128  C     C_2   0.918141 0.813145 0.592160 0.445729
H28   H     H_    0.943579 0.854857 0.574636 0.139782
O60   O     O_2   0.941155 0.776452 0.647904 -0.527030
C129  C     C_2   0.392363 0.679297 0.632417 0.519249
H29   H     H_    0.411935 0.713277 0.679667 0.102660
O61   O     O_2   0.407678 0.626028 0.645176 -0.469720
C130  C     C_2   0.580333 0.325038 0.593218 0.474483
H30   H     H_    0.566820 0.307725 0.663800 0.086208
O62   O     O_2   0.544777 0.360133 0.552160 -0.425818
C131  C     C_2   0.576527 0.681996 0.547045 0.498871
H31   H     H_    0.549699 0.662854 0.488913 0.158992
O63   O     O_2   0.551680 0.688191 0.626061 -0.484463
C132  C     C_2   0.420023 0.317173 0.375349 0.463965
H32   H     H_    0.423207 0.343856 0.309375 0.134578
O64   O     O_2   0.468510 0.303495 0.416548 -0.443410
C133  C     C_2   0.114311 0.518625 0.736634 0.459808
H33   H     H_    0.135286 0.486823 0.686399 0.101133
O65   O     O_2   0.139826 0.568140 0.748283 -0.515811
C134  C     C_2   0.895381 0.550372 0.249038 0.486435
H34   H     H_    0.861331 0.529428 0.297169 0.057368
O66   O     O_2   0.890375 0.604704 0.229210 -0.489835
C135  C     C_2   0.885795 0.480428 0.745095 0.463919
H35   H     H_    0.866859 0.509556 0.689635 0.086996
O67   O     O_2   0.857771 0.433223 0.766827 -0.496750
C136  C     C_2   0.107639 0.460194 0.249894 0.513220
H36   H     H_    0.131716 0.487164 0.301046 0.044998
O68   O     O_2   0.125045 0.408274 0.231322 -0.469458
C137  C     C_2   0.616141 0.005925 0.736479 0.476734
H37   H     H_    0.637506 0.968409 0.697791 0.078438
O69   O     O_2   0.644127 0.054780 0.739612 -0.486452
C138  C     C_2   0.384479 0.001762 0.257879 0.441305
H38   H     H_    0.366385 0.955432 0.264652 0.084351
O70   O     O_2   0.353510 0.044132 0.290320 -0.525447
C139  C     C_2   0.383175 0.990962 0.754524 0.461498
H39   H     H_    0.373985 0.000989 0.681015 0.105727
O71   O     O_2   0.341523 0.965489 0.802009 -0.517711
C140  C     C_2   0.607490 0.957685 0.249974 0.495295
H40   H     H_    0.638489 0.982414 0.295678 0.059559
O72   O     O_2   0.617231 0.903467 0.235168 -0.483412
C141  C     C_2   0.828444 0.537782 0.903162 0.893625
O73   O     O_2   0.778391 0.509596 0.908119 -0.505262
O74   O     O_R   0.832598 0.592910 0.851651 -0.735725
H41   H     H_    0.790579 0.605881 0.824180 0.375864
C142  C     C_2   0.176824 0.505546 0.094206 0.893076
O75   O     O_2   0.218115 0.466310 0.093378 -0.472355
O76   O     O_R   0.187088 0.561464 0.138931 -0.738813
H42   H     H_    0.231569 0.564864 0.164300 0.389811
C143  C     C_2   0.176940 0.476306 0.895918 0.895794
O77   O     O_2   0.221526 0.511988 0.899320 -0.502548
O78   O     O_R   0.182674 0.422300 0.843856 -0.690725
H43   H     H_    0.225852 0.418095 0.811627 0.369380
C144  C     C_2   0.823416 0.500444 0.102594 0.868156
O79   O     O_2   0.784248 0.541650 0.103203 -0.499251
O80   O     O_R   0.810387 0.444961 0.149469 -0.727707
H44   H     H_    0.765535 0.443215 0.176268 0.387305
C145  C     C_2   0.352619 0.087786 0.896158 0.902841
O81   O     O_2   0.296451 0.091329 0.918070 -0.526978
O82   O     O_R   0.377734 0.125102 0.822600 -0.759542
H45   H     H_    0.345431 0.154364 0.795064 0.356291
C146  C     C_2   0.678725 0.994029 0.091243 0.877253
O83   O     O_2   0.716354 0.951499 0.090630 -0.491882
O84   O     O_R   0.694212 0.049054 0.135299 -0.727561
H46   H     H_    0.738676 0.048644 0.161391 0.387789
C147  C     C_2   0.669431 0.950481 0.897222 0.883404
O85   O     O_2   0.720686 0.976577 0.892854 -0.516306
O86   O     O_R   0.661876 0.893026 0.855709 -0.733137
H47   H     H_    0.702623 0.876863 0.826140 0.374453
C148  C     C_2   0.338718 0.072395 0.099932 0.957471
O87   O     O_2   0.344062 0.124309 0.130583 -0.509400
O88   O     O_R   0.280929 0.041338 0.108143 -0.676162
H48   H     H_    0.247145 0.066311 0.142313 0.376882

loop_
_geom_bond_atom_site_label_1
_geom_bond_atom_site_label_2
_geom_bond_distance
_ccdc_geom_bond_type
C79   N3    1.379637 A    
O52   H22   1.013795 S    
C139  O71   1.221445 D    
C136  O68   1.221711 D    
C80   C86   1.436316 A    
C109  H9    1.071321 S    
C8    C21   1.481089 S    
C9    C101  1.488744 S    
O2    C2    1.313790 A    
C113  O37   1.220900 D    
C113  H13   1.069454 S    
C84   C96   1.426549 A    
C33   C57   1.419631 A    
O88   H48   1.013783 S    
C14   C22   1.414548 A    
C107  O29   1.222502 D    
C11   C103  1.492783 S    
Cu1   N1    2.041247 S    
C82   C90   1.406047 A    
C130  O62   1.219697 D    
C116  H16   1.083776 S    
C118  O43   1.221395 D    
C29   C37   1.408645 A    
O74   H41   1.012587 S    
C115  O39   1.221223 D    
C125  H25   1.085177 S    
O10   C6    1.294392 A    
C69   C129  1.498136 S    
C60   C120  1.477492 S    
C104  O24   1.402697 S    
C74   C84   1.437731 A    
C137  H37   1.080572 S    
C7    C22   1.487348 S    
C32   C40   1.424791 A    
O12   Cu4   1.984831 S    
C73   C83   1.435956 A    
O22   H3    1.013881 S    
C13   C53   1.430727 A    
C54   C69   1.420762 A    
C81   C89   1.414524 A    
C111  O35   1.220701 D    
C144  O79   1.223395 D    
C126  O58   1.217888 D    
C53   C70   1.430098 A    
C102  O19   1.216503 D    
C76   N2    1.381413 A    
C107  O30   1.397389 S    
C61   C121  1.482344 S    
C141  O73   1.223220 D    
C77   C87   1.441130 A    
C14   C106  1.467725 S    
C118  O44   1.398125 S    
O6    Cu1   1.976995 S    
C131  O63   1.220590 D    
C41   C49   1.400871 A    
C135  H35   1.079234 S    
C46   C54   1.405991 A    
C133  O65   1.221607 D    
C117  O41   1.221455 D    
C80   N4    1.385451 A    
C45   C53   1.419386 A    
O13   C7    1.316958 A    
O3    C2    1.307824 A    
C119  O46   1.398206 S    
C122  O51   1.222938 D    
C138  H38   1.084109 S    
O14   C8    1.300596 A    
C43   C51   1.400710 A    
C121  O50   1.398633 S    
C20   C28   1.423802 A    
C94   C95   1.413961 A    
C83   C89   1.416393 A    
C97   C100  1.422539 A    
C79   C139  1.480579 S    
C16   C56   1.418472 A    
C39   C47   1.420224 A    
C43   C48   1.410431 A    
C33   C41   1.402246 A    
C41   C46   1.403567 A    
C38   C46   1.402188 A    
O28   H6    1.011640 S    
C73   C133  1.472100 S    
C135  O67   1.221179 D    
C35   C43   1.407160 A    
C30   C114  1.484269 S    
C5    C24   1.492586 S    
C57   C117  1.474313 S    
O82   H45   1.013495 S    
C36   C44   1.402620 A    
O13   Cu4   1.976998 S    
C144  O80   1.395945 S    
C67   C127  1.493149 S    
O14   Cu3   1.976995 S    
C108  O32   1.400952 S    
C15   C23   1.417737 A    
C142  O75   1.223610 D    
C59   C71   1.416431 A    
C27   C111  1.473645 S    
C24   C32   1.412605 A    
O16   Cu3   1.985410 S    
C123  O54   1.394442 S    
O78   H43   1.013956 S    
C25   C33   1.415675 A    
O50   H21   1.012513 S    
C109  O33   1.220604 D    
C143  O77   1.223575 D    
C82   C94   1.427933 A    
C112  O36   1.221356 D    
O8    Cu1   1.985410 S    
C122  O52   1.398665 S    
C42   C50   1.410473 A    
C81   C93   1.422735 A    
C112  H12   1.082480 S    
C119  O45   1.222169 D    
C105  O25   1.219780 D    
C132  O64   1.219259 D    
C32   C116  1.473732 S    
C83   C95   1.428553 A    
C130  H30   1.083991 S    
C10   C50   1.410607 A    
C114  O38   1.221180 D    
C16   C108  1.502217 S    
C124  O55   1.221871 D    
O32   H8    1.011513 S    
C9    C49   1.427437 A    
C98   C99   1.415240 A    
C117  O42   1.399207 S    
C78   C138  1.472628 S    
C95   C143  1.488669 S    
C80   C140  1.461359 S    
C137  O69   1.220993 D    
O8    C3    1.318647 A    
C78   C88   1.446839 A    
C106  O28   1.397364 S    
C87   C99   1.421609 A    
O54   H23   1.013978 S    
C30   C38   1.421140 A    
C44   C47   1.415295 A    
C64   C68   1.418616 A    
C96   C144  1.484454 S    
C25   C109  1.481708 S    
C126  H26   1.085274 S    
C12   C52   1.421921 A    
C100  C148  1.477169 S    
Cu2   N2    2.041247 S    
C93   C96   1.413055 A    
C73   N1    1.376339 A    
C127  H27   1.083951 S    
C141  O74   1.397829 S    
C143  O78   1.395942 S    
C120  O48   1.397909 S    
C64   C124  1.492175 S    
C97   C145  1.493933 S    
C77   C137  1.472839 S    
C34   C42   1.402525 A    
C13   C105  1.478781 S    
Cu1   Cu2   2.716827 S    
C123  O53   1.223487 D    
C19   C27   1.414808 A    
O12   C5    1.308740 A    
C58   C70   1.421813 A    
O48   H20   1.011246 S    
C71   C131  1.470721 S    
C1    C20   1.524635 S    
C110  O34   1.220571 D    
C60   C72   1.412884 A    
C140  O72   1.221568 D    
C2    C19   1.491710 S    
O42   H17   1.008282 S    
C147  O85   1.223054 D    
C39   C63   1.423523 A    
C3    C18   1.497269 S    
C65   C125  1.486378 S    
C127  O59   1.219418 D    
C94   C142  1.486611 S    
C35   C59   1.419928 A    
C105  O26   1.397292 S    
Cu4   N4    2.041247 S    
C138  O70   1.220133 D    
C116  O40   1.220903 D    
O56   H24   1.013617 S    
C76   C136  1.444521 S    
O11   Cu3   1.984831 S    
C22   C30   1.413904 A    
O30   H7    1.013927 S    
C26   C110  1.472274 S    
C26   C34   1.420914 A    
C134  O66   1.221224 D    
C129  H29   1.084086 S    
C28   C112  1.473943 S    
O2    Cu2   1.982623 S    
C58   C118  1.478890 S    
C102  O20   1.396377 S    
C31   C115  1.477539 S    
C51   C68   1.418261 A    
O7    Cu2   1.985407 S    
C40   C48   1.410847 A    
C77   N3    1.379573 A    
C55   C72   1.428034 A    
C14   C54   1.420747 A    
O4    C1    1.345361 A    
C74   C134  1.465120 S    
O15   C8    1.315090 A    
C131  H31   1.084455 S    
O80   H44   1.012480 S    
C99   C147  1.485053 S    
O7    C4    1.318376 A    
O16   C7    1.301532 A    
C21   C29   1.406116 A    
C12   C20   1.440635 A    
C145  O82   1.399994 S    
O86   H47   1.012976 S    
C103  O21   1.221256 D    
C145  O81   1.222323 D    
C37   C61   1.420671 A    
C16   C24   1.418216 A    
C47   C55   1.420016 A    
C132  H32   1.085029 S    
C17   C25   1.418207 A    
C139  H39   1.067260 S    
O9    C5    1.313733 A    
C86   C92   1.406563 A    
C106  O27   1.217861 D    
C88   C92   1.417952 A    
C52   C67   1.420516 A    
C114  H14   1.077553 S    
O9    Cu3   1.982623 S    
C27   C35   1.424195 A    
C89   C90   1.431612 A    
C70   C130  1.485491 S    
O46   H19   1.013680 S    
C28   C36   1.431919 A    
C76   C82   1.436424 A    
C136  H36   1.065627 S    
C128  O60   1.218637 D    
C42   C45   1.401009 A    
C142  O76   1.395837 S    
C57   C69   1.415146 A    
C15   C55   1.424257 A    
C37   C45   1.404580 A    
C63   C67   1.399837 A    
C62   C122  1.488233 S    
O4    Cu2   1.984831 S    
O24   H4    1.012130 S    
O1    Cu1   1.982623 S    
C88   C100  1.432489 A    
O18   H1    1.013641 S    
O5    C3    1.307742 A    
C48   C56   1.405677 A    
C10   C102  1.449045 S    
O6    C4    1.308867 A    
C104  O23   1.222031 D    
Cu3   N3    2.041247 S    
O11   C6    1.317389 A    
O1    C1    1.291159 A    
C36   C60   1.414758 A    
O76   H42   1.012706 S    
C84   C90   1.408719 A    
C146  O84   1.396817 S    
O84   H46   1.013252 S    
C38   C62   1.419258 A    
C140  H40   1.071443 S    
C146  O83   1.223455 D    
C125  O57   1.220915 D    
C13   C21   1.417428 A    
C12   C104  1.483514 S    
C147  O86   1.397862 S    
C115  H15   1.078191 S    
C62   C66   1.419115 A    
O20   H2    1.009018 S    
C110  H10   1.071107 S    
C29   C113  1.476447 S    
C4    C17   1.499308 S    
C40   C64   1.423844 A    
C85   C97   1.416801 A    
O15   Cu4   1.985407 S    
C101  O17   1.219683 D    
C23   C31   1.398347 A    
C11   C19   1.417586 A    
C78   N4    1.380930 A    
C72   C132  1.487324 S    
C134  H34   1.073428 S    
C129  O61   1.220477 D    
C75   C81   1.432194 A    
O10   Cu4   1.982623 S    
C68   C128  1.475876 S    
C44   C52   1.400818 A    
C121  O49   1.221753 D    
C98   C146  1.487243 S    
C66   C126  1.468171 S    
C86   C98   1.432973 A    
C18   C26   1.412361 A    
C111  H11   1.083654 S    
C85   C91   1.402090 A    
C56   C71   1.420626 A    
O5    Cu2   1.976998 S    
C75   N1    1.372026 A    
O44   H18   1.011526 S    
O3    Cu1   1.984831 S    
C31   C39   1.404553 A    
C74   N2    1.388456 A    
C63   C123  1.491362 S    
C120  O47   1.222075 D    
C59   C119  1.495638 S    
C9    C17   1.430607 A    
Cu3   Cu4   2.716827 S    
C101  O18   1.399221 S    
C103  O22   1.399670 S    
C124  O56   1.397465 S    
C148  O87   1.221978 D    
C148  O88   1.397956 S    
C93   C141  1.487082 S    
C87   C91   1.412660 A    
C15   C107  1.490266 S    
C10   C18   1.400722 A    
C91   C92   1.435068 A    
C108  O31   1.219156 D    
C133  H33   1.081271 S    
C50   C65   1.419267 A    
C128  H28   1.080859 S    
C6    C23   1.472360 S    
C61   C65   1.409955 A    
C49   C66   1.422712 A    
O26   H5    1.013933 S    
C75   C135  1.474365 S    
C11   C51   1.420513 A    
C34   C58   1.418698 A    
C79   C85   1.434442 A    
