data_mof_unit_pretest_1385.cif
_audit_creation_date              2012-12-11T17:47:23-0500
_audit_creation_method            fapswitch 2.2
_symmetry_space_group_name_H-M    P1
_symmetry_Int_Tables_number       1
_space_group_crystal_system       triclinic
_cell_length_a                    14.960294
_cell_length_b                    14.998493
_cell_length_c                    15.173046
_cell_angle_alpha                 110.772228
_cell_angle_beta                  108.820079
_cell_angle_gamma                 108.563621
_cell_volume                      2628.24979021

loop_
_atom_site_label
_atom_site_type_symbol
_atom_type_description
_atom_site_fract_x
_atom_site_fract_y
_atom_site_fract_z
_atom_type_partial_charge
C1    C     C_R   0.908306 0.195407 0.993045 -0.150722
C2    C     C_R   0.027405 0.752629 0.939785 -0.133718
C3    C     C_R   0.312045 0.847748 0.318027 0.067402
C4    C     C_R   0.680507 0.231264 0.676457 0.055198
C5    C     C_R   0.325202 0.499727 0.039812 0.025833
C6    C     C_R   0.691311 0.499098 0.051446 0.039518
C7    C     C_R   0.029885 0.497959 0.321146 0.191944
C8    C     C_R   0.052430 0.498464 0.694909 0.159031
C9    C     C_R   0.940763 0.864198 0.843589 -0.300592
C10   C     C_R   0.834473 0.962819 0.921380 -0.239213
C11   C     C_R   0.077134 0.050808 0.689638 -0.233037
C12   C     C_R   0.860035 0.944430 0.212961 -0.237854
C13   C     C_R   0.998469 0.994388 0.709287 0.629427
C14   C     C_R   0.891138 0.948017 0.135955 0.641023
C15   C     C_R   0.669201 0.420256 0.275662 -0.124561
C16   C     C_R   0.381198 0.666946 0.876161 -0.138164
C17   C     C_R   0.779405 0.465952 0.345001 -0.157078
C18   C     C_R   0.293924 0.590970 0.771781 -0.161854
C19   C     C_R   0.831492 0.403605 0.328796 0.284373
C20   C     C_R   0.251645 0.626871 0.702866 0.223841
C21   C     C_R   0.773363 0.297997 0.237960 -0.132667
C22   C     C_R   0.302621 0.738670 0.737388 -0.101023
C23   C     C_R   0.304461 0.796056 0.217049 -0.143890
C24   C     C_R   0.687024 0.250817 0.776394 -0.120128
C25   C     C_R   0.664534 0.254780 0.165094 -0.163221
C26   C     C_R   0.390756 0.814183 0.841165 -0.151588
C27   C     C_R   0.611808 0.315006 0.185232 -0.072181
C28   C     C_R   0.428523 0.778631 0.911344 -0.105193
C29   C     C_R   0.948122 0.441922 0.508789 0.589818
C30   C     C_R   0.139318 0.545396 0.504649 0.570547
C31   C     C_R   0.050807 0.494901 0.599628 -0.215878
C32   C     C_R   0.036809 0.493025 0.414535 -0.219416
C33   C     C_R   0.146754 0.551642 0.600659 -0.227116
C34   C     C_R   0.940642 0.443166 0.416244 -0.231361
C35   C     C_R   0.030831 0.006138 0.812916 -0.085581
C36   C     C_R   0.814623 0.876383 0.025078 -0.078984
C37   C     C_R   0.218826 0.118006 0.868082 -0.125754
C38   C     C_R   0.676705 0.810747 0.071089 -0.124006
C39   C     C_R   0.111546 0.929121 0.457120 0.692204
C40   C     C_R   0.847574 0.115480 0.471407 0.709020
C41   C     C_R   0.202553 0.983950 0.450308 -0.320103
C42   C     C_R   0.767270 0.094991 0.501919 -0.318801
C43   C     C_R   0.303540 0.997556 0.513699 0.032640
C44   C     C_R   0.676971 0.107278 0.455851 0.019638
C45   C     C_R   0.224660 0.407621 0.968911 -0.152652
C46   C     C_R   0.784421 0.590822 0.087512 -0.167587
C47   C     C_R   0.317173 0.970570 0.594834 -0.150850
C48   C     C_R   0.658037 0.120070 0.365589 -0.081531
C49   C     C_R   0.229363 0.922776 0.607218 -0.147199
C50   C     C_R   0.729386 0.124574 0.325143 -0.111379
C51   C     C_R   0.126714 0.898163 0.536838 -0.326685
C52   C     C_R   0.826388 0.128645 0.380447 -0.285543
C53   C     C_R   0.484890 0.129907 0.569037 -0.267936
C54   C     C_R   0.498210 0.983279 0.406300 -0.257762
C55   C     C_R   0.584060 0.154502 0.570843 0.070551
C56   C     C_R   0.401108 0.954534 0.407941 0.066298
C57   C     C_R   0.588323 0.083017 0.482691 0.079046
C58   C     C_R   0.393579 0.029158 0.490680 0.078639
C59   C     C_R   0.186623 0.111788 0.768080 -0.198288
C60   C     C_R   0.752752 0.877604 0.180682 -0.192443
C61   C     C_R   0.844767 0.883617 0.943979 0.100115
C62   C     C_R   0.951576 0.959437 0.843350 0.113701
C63   C     C_R   0.141343 0.065722 0.890695 -0.219578
C64   C     C_R   0.707040 0.809038 0.993003 -0.241534
C65   C     C_R   0.904890 0.837084 0.909759 0.085273
C66   C     C_R   0.903535 0.014759 0.890563 0.089453
C67   C     C_R   0.049056 0.590779 0.314011 -0.102313
C68   C     C_R   0.001011 0.408383 0.699640 -0.113073
C69   C     C_3   0.491148 0.394434 0.010849 -0.161020
C70   C     C_3   0.532235 0.602549 0.104927 -0.175299
C71   C     C_3   0.432839 0.442423 0.954761 -0.157537
C72   C     C_3   0.591408 0.554921 0.161361 -0.142776
C73   C     C_3   0.425030 0.499708 0.055748 0.196798
C74   C     C_3   0.598230 0.497564 0.059971 0.207505
C75   C     C_3   0.481603 0.451699 0.112015 -0.157690
C76   C     C_3   0.540511 0.544953 0.003704 -0.165647
C77   C     C_R   0.314941 0.591790 0.059916 -0.124429
C78   C     C_R   0.695869 0.408218 0.996154 -0.125755
C79   C     C_R   0.969906 0.407416 0.219515 -0.162898
C80   C     C_R   0.086158 0.590613 0.788121 -0.167416
C81   C     C_R   0.215858 0.787147 0.310219 -0.097173
C82   C     C_R   0.783252 0.266458 0.691866 -0.155234
C83   C     C_R   0.998806 0.196995 0.902224 -0.117065
C84   C     C_R   0.931020 0.747276 0.026158 -0.074484
C85   C     C_R   0.938072 0.131552 0.928814 0.066973
C86   C     C_R   0.949241 0.778305 0.954569 0.065708
H1    H     H_    0.849914 0.168608 0.017918 0.085228
H2    H     H_    0.063748 0.766599 0.891937 0.095214
H3    H     H_    0.053587 0.045254 0.612121 0.205020
H4    H     H_    0.918796 0.994070 0.297746 0.188613
H5    H     H_    0.303579 0.164643 0.928751 0.117845
H6    H     H_    0.594046 0.760419 0.046846 0.118502
H7    H     H_    0.810987 0.247379 0.225745 0.081366
H8    H     H_    0.271087 0.767559 0.685357 0.119211
H9    H     H_    0.619994 0.172844 0.095652 0.102351
H10   H     H_    0.427801 0.900516 0.868181 0.108216
H11   H     H_    0.452375 0.413644 0.154989 0.102773
H12   H     H_    0.565643 0.579792 0.956844 0.122678
H13   H     H_    0.357431 0.828398 0.188802 0.091592
H14   H     H_    0.621303 0.231285 0.794011 0.090847
H15   H     H_    0.395218 0.983040 0.646016 0.127004
H16   H     H_    0.584399 0.120027 0.322618 0.113695
H17   H     H_    0.240221 0.902669 0.670222 0.132365
H18   H     H_    0.707865 0.122352 0.249344 0.125997
H19   H     H_    0.976769 0.822758 0.805666 0.124941
H20   H     H_    0.788011 0.996745 0.948141 0.119095
H21   H     H_    0.365974 0.396579 0.869913 0.108950
H22   H     H_    0.660134 0.602881 0.245335 0.097530
H23   H     H_    0.205991 0.323142 0.932573 0.125240
H24   H     H_    0.808900 0.674386 0.141572 0.123891
H25   H     H_    0.084824 0.672991 0.379524 0.107200
H26   H     H_    0.972366 0.324513 0.643468 0.129960
H27   H     H_    0.378208 0.675981 0.106147 0.089391
H28   H     H_    0.641394 0.324374 0.967904 0.090061
H29   H     H_    0.190836 0.801759 0.369628 0.115871
H30   H     H_    0.808521 0.277161 0.636453 0.148829
H31   H     H_    0.019551 0.173136 0.839697 0.121547
H32   H     H_    0.873563 0.749455 0.053116 0.109842
H33   H     H_    0.246510 0.153587 0.750928 0.141317
H34   H     H_    0.728546 0.877551 0.240643 0.141689
N1    N     N_R   0.947560 0.293820 0.002910 -0.039751
N2    N     N_R   0.052440 0.706180 0.997090 -0.044471
N3    N     N_R   0.208960 0.706170 0.152110 -0.039546
N4    N     N_R   0.791040 0.293830 0.847890 -0.040697
N5    N     N_R   0.154330 0.443160 0.946140 -0.039857
N6    N     N_R   0.845670 0.556840 0.053860 -0.042072
N7    N     N_R   0.002190 0.556820 0.208880 -0.053728
N8    N     N_R   0.997810 0.443180 0.791120 -0.057306
N9    N     N_R   0.210550 0.556810 0.002910 -0.036153
N10   N     N_R   0.789450 0.443190 0.997090 -0.039695
N11   N     N_R   0.945970 0.443180 0.152110 -0.042566
N12   N     N_R   0.054030 0.556820 0.847890 -0.047843
N13   N     N_R   0.151530 0.706170 0.208880 -0.044539
N14   N     N_R   0.848470 0.293830 0.791120 -0.040768
N15   N     N_R   0.004980 0.293810 0.946140 -0.044897
N16   N     N_R   0.995020 0.706190 0.053860 -0.045404
Ni1   Ni    Ni4+2 0.869690 0.369690 0.000000 0.211240
Ni2   Ni    Ni4+2 0.130310 0.630310 0.000000 0.213944
Ni3   Ni    Ni4+2 0.001390 0.369680 0.869810 0.223369
Ni4   Ni    Ni4+2 0.998610 0.630320 0.130190 0.233657
H35   H     H_    0.526194 0.279234 0.131844 0.094177
H36   H     H_    0.493716 0.838213 0.993151 0.108895
H37   H     H_    0.628059 0.465666 0.294229 0.103930
H38   H     H_    0.409993 0.639073 0.930295 0.118510
H39   H     H_    0.822500 0.547366 0.415096 0.084591
H40   H     H_    0.256112 0.505073 0.746660 0.109828
O1    O     O_3   0.853761 0.388273 0.509648 -0.614996
C87   C     C_3   0.826367 0.464080 0.565055 -0.236858
H41   H     H_    0.877703 0.550484 0.589699 0.099178
H42   H     H_    0.831293 0.461469 0.638540 0.164229
H43   H     H_    0.741084 0.438653 0.512088 0.163726
O2    O     O_3   0.231444 0.598067 0.500855 -0.614539
C88   C     C_3   0.271655 0.525228 0.473297 -0.236929
H44   H     H_    0.211518 0.450561 0.392445 0.125752
H45   H     H_    0.296035 0.502403 0.535911 0.129055
H46   H     H_    0.344813 0.566584 0.468952 0.173365
O3    O     O_3   0.890515 0.940869 0.631580 -0.608530
C89   C     C_3   0.846563 0.826762 0.587613 -0.318113
H47   H     H_    0.906349 0.797875 0.585356 0.103242
H48   H     H_    0.781049 0.785117 0.502898 0.169118
H49   H     H_    0.808776 0.800535 0.632288 0.174895
O4    O     O_3   0.997276 0.015240 0.167247 -0.611969
C90   C     C_3   0.021755 0.125388 0.219865 -0.280462
H50   H     H_    0.033786 0.152885 0.303059 0.124912
H51   H     H_    0.958535 0.139449 0.173153 0.121606
H52   H     H_    0.098831 0.176904 0.227055 0.178825
H53   H     H_    0.167035 0.073699 0.969801 0.150935
H54   H     H_    0.646690 0.756881 0.908025 0.151172
H55   H     H_    0.060757 0.856692 0.547296 0.126066
H56   H     H_    0.882674 0.139174 0.350026 0.112497
O5    O     O_3   0.011870 0.907465 0.382968 -0.628149
C91   C     C_3   0.922526 0.829019 0.375538 -0.312760
H57   H     H_    0.914881 0.864344 0.448538 0.193365
H58   H     H_    0.926824 0.752573 0.360104 0.131701
H59   H     H_    0.847520 0.806483 0.306594 0.177322
O6    O     O_3   0.941060 0.115385 0.529209 -0.617108
C92   C     C_3   0.033701 0.184583 0.532320 -0.345995
H60   H     H_    0.032307 0.257243 0.529401 0.127438
H61   H     H_    0.045289 0.137404 0.466156 0.178579
H62   H     H_    0.105927 0.216400 0.609736 0.172613
H63   H     H_    0.192262 0.005728 0.388235 0.167595
H64   H     H_    0.778486 0.076166 0.566036 0.182953
H65   H     H_    0.480927 0.184553 0.635552 0.130119
H66   H     H_    0.506069 0.926604 0.344996 0.130688
H67   H     H_    0.476073 0.309169 0.971705 0.095533
H68   H     H_    0.548320 0.687897 0.146683 0.099874
H69   H     H_    0.942326 0.323097 0.197373 0.094034
H70   H     H_    0.137561 0.674430 0.813720 0.112243

loop_
_geom_bond_atom_site_label_1
_geom_bond_atom_site_label_2
_ccdc_geom_bond_type
C16   C28   A    
C23   H13   S    
O5    C91   S    
C1    H1    S    
O3    C89   S    
C80   N12   A    
C71   H21   S    
C22   H8    S    
C3    C23   A    
C90   H50   S    
C87   H43   S    
C75   H11   S    
N16   Ni4   S    
C11   C59   A    
C66   C85   S    
C65   C86   S    
C47   C49   A    
C42   H64   S    
N15   Ni3   S    
C82   N14   A    
N3    Ni2   S    
N6    Ni4   S    
C10   C66   A    
C74   C76   S    
N3    N13   A    
C47   H15   S    
C12   H4    S    
C90   H51   S    
N8    Ni3   S    
C87   H42   S    
C13   C35   A    
C53   H65   S    
C14   C36   A    
C71   C76   S    
C4    C24   A    
C45   H23   S    
C6    C78   A    
N6    N10   A    
C9    H19   S    
C38   H6    S    
C24   N4    A    
C18   C20   A    
C68   H26   S    
C2    C86   A    
N1    Ni1   S    
C69   C71   S    
C39   O5    S    
C43   C58   S    
C27   H35   S    
C39   C51   A    
C30   O2    S    
C89   H48   S    
N9    Ni2   S    
C72   H22   S    
C45   N5    A    
C92   H61   S    
C3    C81   A    
C50   C52   A    
C31   C33   A    
C2    H2    S    
C88   H45   S    
C43   C47   A    
C68   N8    A    
C83   N15   A    
C89   H49   S    
C91   H59   S    
C53   C55   A    
C79   N11   A    
C1    C85   A    
C41   C43   A    
C41   H63   S    
C78   H28   S    
C42   C44   A    
C72   C75   S    
C77   H27   S    
N8    N12   A    
C13   O3    S    
C37   C63   A    
C91   H58   S    
C6    C74   S    
N7    N11   A    
C2    N2    A    
C26   H10   S    
C54   C56   A    
C37   H5    S    
O1    C87   S    
C9    C62   A    
N4    Ni1   S    
C51   H55   S    
C90   H52   S    
C87   H41   S    
N2    Ni2   S    
C72   C74   S    
C52   H56   S    
N14   Ni3   S    
C71   C73   S    
C62   C66   A    
C23   N3    A    
C49   C51   A    
C40   C52   A    
C5    C45   A    
C29   C34   A    
N5    Ni3   S    
C32   C34   A    
C14   O4    S    
C17   H39   S    
C49   H17   S    
N11   Ni1   S    
C67   N7    A    
C3    C56   S    
C11   H3    S    
C15   C27   A    
C44   C57   S    
C92   H62   S    
C48   H16   S    
C81   H29   S    
C70   C73   S    
C80   H70   S    
C69   C74   S    
C77   N9    A    
N1    N15   A    
C88   H46   S    
C81   N13   A    
C48   C50   A    
N2    N16   A    
C37   C59   A    
C79   H69   S    
C15   H37   S    
C20   C33   S    
C84   H32   S    
O6    C92   S    
C83   C85   A    
C20   C22   A    
C25   H9    S    
C46   H24   S    
C4    C55   S    
C70   C76   S    
C89   H47   S    
C64   H54   S    
C38   C60   A    
C10   H20   S    
C10   C61   A    
C28   H36   S    
N7    Ni4   S    
C73   C75   S    
C5    C77   A    
C36   C61   S    
C69   H67   S    
C91   H57   S    
C7    C79   A    
O4    C90   S    
N12   Ni2   S    
C67   H25   S    
C15   C17   A    
C21   C25   A    
C84   N16   A    
C59   H33   S    
C7    C32   S    
C6    C46   A    
C30   C33   A    
C16   H38   S    
C24   H14   S    
C8    C31   S    
C46   N6    A    
C12   C14   A    
C40   C42   A    
C18   H40   S    
C19   C34   S    
C29   O1    S    
C70   C72   S    
C53   C58   A    
C8    C68   A    
C25   C27   A    
C40   O6    S    
C26   C28   A    
N4    N14   A    
C83   H31   S    
C55   C57   A    
C78   N10   A    
C82   H30   S    
C29   C31   A    
C30   C32   A    
C11   C13   A    
C21   H7    S    
C63   H53   S    
C17   C19   A    
C56   C58   A    
C69   C75   S    
C35   C62   S    
C54   H66   S    
C61   C65   A    
C5    C73   S    
C9    C65   A    
C1    N1    A    
C70   H68   S    
C60   H34   S    
C7    C67   A    
C12   C60   A    
N5    N9    A    
C4    C82   A    
O2    C88   S    
C39   C41   A    
N13   Ni4   S    
C16   C18   A    
C92   H60   S    
C22   C26   A    
C8    C80   A    
C38   C64   A    
C84   C86   A    
C35   C63   A    
C88   H44   S    
C36   C64   A    
N10   Ni1   S    
C76   H12   S    
C50   H18   S    
C44   C48   A    
C19   C21   A    
C54   C57   A    
