data_mof_unit_pretest_726.cif
_audit_creation_date              2013-03-05T15:50:12-0500
_audit_creation_method            fapswitch 2.2
_symmetry_space_group_name_H-M    P1
_symmetry_Int_Tables_number       1
_space_group_crystal_system       triclinic
_cell_length_a                    18.384656
_cell_length_b                    25.856606
_cell_length_c                    18.307864
_cell_angle_alpha                 89.682586
_cell_angle_beta                  89.938132
_cell_angle_gamma                 89.8958
_cell_volume                      8702.76130994

loop_
_atom_site_label
_atom_site_type_symbol
_atom_site_description
_atom_site_fract_x
_atom_site_fract_y
_atom_site_fract_z
_atom_type_partial_charge
Zn1   Zn    Zn3+2 0.249990 0.293780 0.913250 1.117302
Zn2   Zn    Zn3+2 0.249990 0.706220 0.086750 1.144249
Zn3   Zn    Zn3+2 0.249990 0.706220 0.913250 1.109941
Zn4   Zn    Zn3+2 0.249990 0.293780 0.086750 1.089564
Zn5   Zn    Zn3+2 0.749990 0.793780 0.413250 1.132992
Zn6   Zn    Zn3+2 0.749990 0.206220 0.586750 1.070084
Zn7   Zn    Zn3+2 0.749990 0.206220 0.413250 1.045181
Zn8   Zn    Zn3+2 0.749990 0.793780 0.586750 1.077294
Zn9   Zn    Zn3+2 0.336760 0.206240 0.000000 1.175075
Zn10  Zn    Zn3+2 0.336760 0.793760 0.000000 1.185412
Zn11  Zn    Zn3+2 0.836760 0.706240 0.500000 1.139209
Zn12  Zn    Zn3+2 0.836760 0.293760 0.500000 1.093052
Zn13  Zn    Zn3+2 0.163250 0.206230 0.000000 1.007064
Zn14  Zn    Zn3+2 0.163250 0.793770 0.000000 1.005314
Zn15  Zn    Zn3+2 0.663250 0.706230 0.500000 0.983730
Zn16  Zn    Zn3+2 0.663250 0.293770 0.500000 0.970815
O1    O     O_3   0.249990 0.250010 0.000000 -0.523873
O2    O     O_3   0.249990 0.749990 0.000000 -0.533454
O3    O     O_3   0.749990 0.750010 0.500000 -0.534394
O4    O     O_3   0.749990 0.249990 0.500000 -0.529864
O5    O     O_R   0.335430 0.280650 0.146160 -0.629111
O6    O     O_R   0.335430 0.719350 0.853840 -0.586905
O7    O     O_R   0.335430 0.719350 0.146160 -0.581010
O8    O     O_R   0.335430 0.280650 0.853840 -0.556632
O9    O     O_R   0.835430 0.780650 0.646160 -0.595593
O10   O     O_R   0.835430 0.219350 0.353840 -0.625229
O11   O     O_R   0.835430 0.219350 0.646160 -0.610533
O12   O     O_R   0.835430 0.780650 0.353840 -0.569765
O13   O     O_R   0.164550 0.280640 0.853840 -0.627434
O14   O     O_R   0.164550 0.719360 0.146160 -0.607179
O15   O     O_R   0.164550 0.719360 0.853840 -0.638329
O16   O     O_R   0.164550 0.280640 0.146160 -0.609377
O17   O     O_R   0.664550 0.780640 0.353840 -0.577708
O18   O     O_R   0.664550 0.219360 0.646160 -0.577840
O19   O     O_R   0.664550 0.219360 0.353840 -0.632058
O20   O     O_R   0.664550 0.780640 0.646160 -0.626792
O21   O     O_R   0.396160 0.219380 0.914560 -0.585409
O22   O     O_R   0.396160 0.780620 0.085440 -0.568853
O23   O     O_R   0.396160 0.780620 0.914560 -0.574278
O24   O     O_R   0.396160 0.219380 0.085440 -0.549649
O25   O     O_R   0.896160 0.719380 0.414560 -0.575511
O26   O     O_R   0.896160 0.280620 0.585440 -0.618366
O27   O     O_R   0.896160 0.280620 0.414560 -0.628165
O28   O     O_R   0.896160 0.719380 0.585440 -0.599981
O29   O     O_R   0.103840 0.219370 0.085450 -0.660926
O30   O     O_R   0.103840 0.780630 0.914550 -0.637429
O31   O     O_R   0.103840 0.780630 0.085450 -0.654344
O32   O     O_R   0.103840 0.219370 0.914550 -0.660123
O33   O     O_R   0.603840 0.719370 0.585450 -0.641403
O34   O     O_R   0.603840 0.280630 0.414550 -0.649716
O35   O     O_R   0.603840 0.280630 0.585450 -0.648347
O36   O     O_R   0.603840 0.719370 0.414550 -0.650255
O37   O     O_R   0.310730 0.133160 0.000000 -0.592302
O38   O     O_R   0.310730 0.866840 0.000000 -0.550468
O39   O     O_R   0.810730 0.633160 0.500000 -0.585398
O40   O     O_R   0.810730 0.366840 0.500000 -0.543341
O41   O     O_R   0.249970 0.366860 0.060720 -0.604670
O42   O     O_R   0.249970 0.633140 0.939280 -0.607989
O43   O     O_R   0.249970 0.633140 0.060720 -0.560260
O44   O     O_R   0.249970 0.366860 0.939280 -0.611229
O45   O     O_R   0.749970 0.866860 0.560720 -0.612678
O46   O     O_R   0.749970 0.133140 0.439280 -0.580140
O47   O     O_R   0.749970 0.133140 0.560720 -0.645766
O48   O     O_R   0.749970 0.866860 0.439280 -0.612380
O49   O     O_R   0.189290 0.133150 0.000000 -0.651027
O50   O     O_R   0.189290 0.866850 0.000000 -0.658191
O51   O     O_R   0.689290 0.633150 0.500000 -0.647795
O52   O     O_R   0.689290 0.366850 0.500000 -0.662859
C1    C     C_R   0.392238 0.250389 0.138136 0.899092
C2    C     C_R   0.390583 0.749589 0.860553 0.971734
C3    C     C_R   0.390598 0.748773 0.139691 0.939784
C4    C     C_R   0.389787 0.250371 0.859942 0.936425
C5    C     C_R   0.889916 0.749863 0.640706 0.859657
C6    C     C_R   0.889696 0.250178 0.359466 0.863712
C7    C     C_R   0.885312 0.253841 0.644531 0.865907
C8    C     C_R   0.888567 0.749233 0.358512 0.966198
C9    C     C_R   0.112245 0.247966 0.856639 0.855058
C10   C     C_R   0.111340 0.750589 0.140891 0.770160
C11   C     C_R   0.110466 0.749989 0.860256 0.801937
C12   C     C_R   0.109921 0.250428 0.139662 0.859842
C13   C     C_R   0.609791 0.750762 0.360920 0.791088
C14   C     C_R   0.609984 0.249511 0.639688 0.766135
C15   C     C_R   0.608885 0.249333 0.361445 0.780914
C16   C     C_R   0.609918 0.750240 0.639163 0.752191
C17   C     C_R   0.250246 0.109428 0.000665 0.819291
C18   C     C_R   0.249526 0.890626 0.001133 0.846109
C19   C     C_R   0.749991 0.609373 0.499987 0.783703
C20   C     C_R   0.749870 0.390539 0.500785 0.800793
C21   C     C_R   0.249654 0.391223 0.999727 0.867285
C22   C     C_R   0.250171 0.608708 0.999795 0.895827
C23   C     C_R   0.751721 0.891238 0.499987 0.938521
C24   C     C_R   0.750544 0.108773 0.500118 0.901590
C25   C     C_3   0.175301 0.470035 0.031128 0.034910
C26   C     C_3   0.247165 0.529739 0.917551 0.040072
C27   C     C_3   0.178665 0.530348 0.037266 0.024361
C28   C     C_3   0.254612 0.469956 0.918108 0.049685
C29   C     C_3   0.803402 0.970278 0.563974 0.044481
C30   C     C_3   0.674764 0.029679 0.522521 0.048511
C31   C     C_3   0.807037 0.030736 0.559097 0.031316
C32   C     C_3   0.674261 0.969435 0.515817 0.038067
H1    H     H_    0.132818 0.461632 0.989370 0.079873
H2    H     H_    0.191449 0.538384 0.896579 0.090299
H3    H     H_    0.131580 0.545644 0.005300 0.077309
H4    H     H_    0.206630 0.454839 0.887657 0.101804
H5    H     H_    0.775658 0.960425 0.616402 0.114546
H6    H     H_    0.667762 0.038157 0.581831 0.093179
H7    H     H_    0.789147 0.045343 0.613467 0.120695
H8    H     H_    0.657992 0.954182 0.570591 0.103615
H9    H     H_    0.201981 0.904432 0.131414 0.170837
H10   H     H_    0.209530 0.095597 0.133044 0.174317
H11   H     H_    0.730159 0.404111 0.637367 0.142369
H12   H     H_    0.737361 0.595413 0.637244 0.112749
H13   H     H_    0.307436 0.459441 0.103177 0.246741
H14   H     H_    0.368464 0.539221 0.007155 0.243688
H15   H     H_    0.325974 0.546152 0.092203 0.259964
H16   H     H_    0.365838 0.451733 0.028370 0.232891
H17   H     H_    0.840544 0.960885 0.419455 0.255258
H18   H     H_    0.732968 0.040021 0.381814 0.260220
H19   H     H_    0.825038 0.047470 0.404948 0.261848
H20   H     H_    0.754270 0.953606 0.379039 0.236944
C33   C     C_3   0.313567 0.469823 0.044735 -0.372182
C34   C     C_3   0.318346 0.529011 0.037476 -0.305468
C35   C     C_3   0.782250 0.970820 0.426708 -0.340521
C36   C     C_3   0.773550 0.029752 0.424136 -0.299691
C37   C     C_3   0.248961 0.448776 0.998983 -0.148847
C38   C     C_3   0.249580 0.551046 0.998530 -0.163314
C39   C     C_3   0.753425 0.948926 0.500612 -0.170674
C40   C     C_3   0.751448 0.051166 0.500526 -0.178215
H21   H     H_    0.957436 0.095752 0.878282 0.159011
H22   H     H_    0.208298 0.821774 0.364417 0.183592
H23   H     H_    0.871314 0.761937 0.974432 0.168562
H24   H     H_    0.876119 0.182717 0.044399 0.173187
H25   H     H_    0.644570 0.599129 0.220237 0.160685
H26   H     H_    0.426471 0.124095 0.575537 0.198757
H27   H     H_    0.373273 0.201740 0.468824 0.154356
H28   H     H_    0.698800 0.646759 0.838365 0.163677
C41   C     C_R   0.112333 0.320962 0.726881 -0.168957
C42   C     C_R   0.977787 0.701017 0.112281 -0.193211
C43   C     C_R   0.145280 0.747830 0.704422 -0.119187
C44   C     C_R   0.133851 0.290034 0.291136 -0.172090
C45   C     C_R   0.497711 0.826023 0.362331 -0.200032
C46   C     C_R   0.624964 0.313360 0.763967 -0.149815
C47   C     C_R   0.639352 0.285195 0.217210 -0.236058
C48   C     C_R   0.471966 0.796430 0.612995 -0.201989
C49   C     C_R   0.102533 0.367677 0.690555 -0.242309
C50   C     C_R   0.912336 0.678425 0.094062 -0.263516
C51   C     C_R   0.161222 0.736539 0.631892 -0.234250
C52   C     C_R   0.138993 0.321465 0.352450 -0.258645
C53   C     C_R   0.445389 0.864408 0.364035 -0.185500
C54   C     C_R   0.633513 0.346969 0.821724 -0.190250
C55   C     C_R   0.662961 0.289758 0.145541 -0.264566
C56   C     C_R   0.408292 0.823783 0.600757 -0.215530
C57   C     C_R   0.396532 0.870085 0.306801 0.286306
C58   C     C_R   0.579427 0.352116 0.874382 0.328331
C59   C     C_R   0.624407 0.265746 0.089727 0.282772
C60   C     C_R   0.359852 0.833089 0.657780 0.267054
C61   C     C_R   0.032859 0.384877 0.673136 0.295188
C62   C     C_R   0.853270 0.681613 0.141027 0.312284
C63   C     C_R   0.108459 0.713598 0.587599 0.245606
C64   C     C_R   0.076306 0.343355 0.382794 0.270640
C65   C     C_R   0.398140 0.834868 0.247951 0.212762
C66   C     C_R   0.516396 0.320790 0.870537 0.251072
C67   C     C_R   0.555696 0.243236 0.105274 0.231866
C68   C     C_R   0.374825 0.812268 0.727823 0.213347
C69   C     C_R   0.973293 0.350715 0.681794 0.263215
C70   C     C_R   0.860922 0.706806 0.208968 0.228596
C71   C     C_R   0.038489 0.704185 0.617346 0.238230
C72   C     C_R   0.007705 0.330059 0.353346 0.260107
C73   C     C_R   0.447290 0.791288 0.248858 -0.081618
C74   C     C_R   0.506954 0.284903 0.811106 -0.074155
C75   C     C_R   0.524194 0.249570 0.176508 -0.074372
C76   C     C_R   0.435861 0.778454 0.738864 -0.065004
C77   C     C_R   0.985317 0.300163 0.711529 -0.076969
C78   C     C_R   0.929773 0.728240 0.230959 -0.090145
C79   C     C_R   0.017955 0.731664 0.681531 -0.053872
C80   C     C_R   0.004020 0.286629 0.305932 -0.066075
C81   C     C_R   0.052576 0.289254 0.745617 0.022179
C82   C     C_R   0.987484 0.726501 0.179765 0.074839
C83   C     C_R   0.073382 0.743386 0.730829 0.035313
C84   C     C_R   0.065013 0.275757 0.263342 0.054321
C85   C     C_R   0.499908 0.789421 0.305324 0.039892
C86   C     C_R   0.562077 0.282499 0.757019 0.052669
C87   C     C_R   0.571835 0.261993 0.233669 0.040340
C88   C     C_R   0.487214 0.774117 0.681954 0.051482
C89   C     C_R   0.444175 0.748471 0.198907 -0.126560
C90   C     C_R   0.444762 0.252049 0.802870 -0.114788
C91   C     C_R   0.448802 0.242600 0.194218 -0.104143
C92   C     C_R   0.447900 0.749980 0.805075 -0.138903
C93   C     C_R   0.931713 0.260971 0.710708 -0.063780
C94   C     C_R   0.943577 0.751328 0.300992 -0.127508
C95   C     C_R   0.946127 0.749861 0.698048 -0.101888
C96   C     C_R   0.944435 0.251590 0.301183 -0.097829
C97   C     C_R   0.491533 0.704346 0.208063 -0.046432
C98   C     C_R   0.435457 0.220131 0.739910 -0.065282
C99   C     C_R   0.428233 0.228924 0.266539 -0.050793
C100  C     C_R   0.513757 0.721005 0.816527 -0.089809
C101  C     C_R   0.933340 0.222081 0.765882 -0.038170
C102  C     C_R   0.011784 0.775166 0.317055 -0.030885
C103  C     C_R   0.930527 0.767640 0.770883 -0.043864
C104  C     C_R   0.939072 0.218794 0.238772 -0.043719
C105  C     C_R   0.000436 0.210502 0.799060 0.017996
C106  C     C_R   0.069113 0.769646 0.266421 0.031982
C107  C     C_R   0.981003 0.754647 0.825224 0.049014
C108  C     C_R   0.983587 0.230801 0.179366 0.029658
C109  C     C_R   0.550801 0.709074 0.256288 0.037559
C110  C     C_R   0.493217 0.216934 0.689061 0.040752
C111  C     C_R   0.479796 0.234909 0.323297 0.043170
C112  C     C_R   0.567271 0.722029 0.760816 0.061762
C113  C     C_R   0.057793 0.246985 0.795950 -0.112736
C114  C     C_R   0.055170 0.748606 0.196946 -0.059129
C115  C     C_R   0.054457 0.749201 0.804870 -0.088129
C116  C     C_R   0.052782 0.252216 0.194566 -0.106711
C117  C     C_R   0.553714 0.750699 0.305051 -0.050717
C118  C     C_R   0.554431 0.249214 0.696693 -0.045162
C119  C     C_R   0.551805 0.250515 0.305995 -0.075023
C120  C     C_R   0.553874 0.748958 0.695133 -0.050759
C121  C     C_R   0.482711 0.655192 0.172325 0.297919
C122  C     C_R   0.370228 0.191304 0.725151 0.290138
C123  C     C_R   0.359314 0.205929 0.283000 0.306094
C124  C     C_R   0.529299 0.691361 0.881524 0.285634
C125  C     C_R   0.869919 0.195673 0.791507 0.314710
C126  C     C_R   0.024953 0.804998 0.381802 0.311173
C127  C     C_R   0.868082 0.796794 0.793707 0.281945
C128  C     C_R   0.889995 0.176572 0.230587 0.316905
C129  C     C_R   0.537996 0.616844 0.175501 0.059324
C130  C     C_R   0.368208 0.155442 0.667263 0.049300
C131  C     C_R   0.338100 0.198474 0.356554 0.060148
C132  C     C_R   0.595763 0.663979 0.888799 0.128776
C133  C     C_R   0.877537 0.149801 0.834198 0.028715
C134  C     C_R   0.096391 0.820828 0.399708 0.064063
C135  C     C_R   0.844870 0.793117 0.867791 0.038006
C136  C     C_R   0.863679 0.165061 0.159515 0.033557
C137  C     C_R   0.947994 0.131894 0.849949 -0.177175
C138  C     C_R   0.153253 0.809786 0.351949 -0.137486
C139  C     C_R   0.888078 0.766044 0.917940 -0.204920
C140  C     C_R   0.895882 0.189573 0.099237 -0.204518
C141  C     C_R   0.600486 0.626635 0.216141 -0.115339
C142  C     C_R   0.427896 0.150774 0.620942 -0.185413
C143  C     C_R   0.387898 0.208582 0.412246 -0.197755
C144  C     C_R   0.647228 0.666793 0.833265 -0.251651
C145  C     C_R   0.008232 0.162273 0.834151 -0.150577
C146  C     C_R   0.139678 0.785985 0.285768 -0.148458
C147  C     C_R   0.957111 0.749571 0.898039 -0.161547
C148  C     C_R   0.957472 0.220024 0.108574 -0.136435
C149  C     C_R   0.605352 0.670712 0.257730 -0.095409
C150  C     C_R   0.488592 0.181752 0.630396 -0.172316
C151  C     C_R   0.458315 0.224476 0.395955 -0.152264
C152  C     C_R   0.633354 0.694847 0.770463 -0.219515
H29   H     H_    0.167680 0.310184 0.738194 0.251062
H30   H     H_    0.021306 0.697268 0.072828 0.145025
H31   H     H_    0.188803 0.762047 0.738222 0.223990
H32   H     H_    0.184125 0.275414 0.269000 0.214929
H33   H     H_    0.535621 0.824798 0.407497 0.164106
H34   H     H_    0.668649 0.312240 0.724338 0.177280
H35   H     H_    0.674597 0.299782 0.259707 0.157250
H36   H     H_    0.508967 0.792937 0.567287 0.160525
H37   H     H_    0.149285 0.392142 0.680488 0.223473
H38   H     H_    0.907220 0.659158 0.041929 0.195165
H39   H     H_    0.215689 0.743403 0.611494 0.205918
H40   H     H_    0.192114 0.330057 0.374773 0.203157
H41   H     H_    0.444559 0.891197 0.409286 0.237202
H42   H     H_    0.682226 0.370370 0.824062 0.210398
H43   H     H_    0.715624 0.306882 0.134681 0.206785
H44   H     H_    0.398275 0.839674 0.546820 0.205120
H45   H     H_    0.061191 0.147350 0.849192 0.179543
H46   H     H_    0.185656 0.779967 0.250259 0.199862
H47   H     H_    0.991510 0.732945 0.939980 0.143880
H48   H     H_    0.982330 0.236394 0.060193 0.178718
H49   H     H_    0.652182 0.673677 0.292691 0.196145
H50   H     H_    0.532236 0.177442 0.591168 0.159550
H51   H     H_    0.495305 0.228677 0.441353 0.162006
H52   H     H_    0.675541 0.694591 0.729211 0.136044
H53   H     H_    0.170228 0.047603 0.240571 0.153563
H54   H     H_    0.166647 0.952143 0.240018 0.154454
H55   H     H_    0.722762 0.547395 0.751070 0.137835
H56   H     H_    0.718942 0.451891 0.751103 0.154009
C153  C     C_R   0.296126 0.053152 0.874275 -0.132858
C154  C     C_R   0.271176 0.947486 0.868830 -0.067568
C155  C     C_R   0.756042 0.553617 0.365542 -0.125852
C156  C     C_R   0.759419 0.446088 0.366100 -0.071946
C157  C     C_R   0.309004 0.026259 0.809768 -0.159118
C158  C     C_R   0.294252 0.973711 0.806354 -0.041076
C159  C     C_R   0.760623 0.526870 0.299813 -0.127886
C160  C     C_R   0.762553 0.473144 0.300114 -0.087556
C161  C     C_R   0.263704 0.973266 0.936125 0.029837
C162  C     C_R   0.270935 0.027198 0.937719 0.065319
C163  C     C_R   0.754632 0.472678 0.433473 0.067316
C164  C     C_R   0.753746 0.527038 0.433200 0.063803
C165  C     C_R   0.247183 0.946384 0.001088 -0.139616
C166  C     C_R   0.251084 0.053809 0.001777 -0.136350
C167  C     C_R   0.749246 0.446131 0.500724 -0.102197
C168  C     C_R   0.749548 0.553626 0.500258 -0.112886
C169  C     C_R   0.227109 0.972806 0.065343 0.065113
C170  C     C_R   0.228483 0.027261 0.065501 0.060740
C171  C     C_R   0.741419 0.472598 0.567562 0.073546
C172  C     C_R   0.742629 0.527025 0.567430 0.075446
C173  C     C_R   0.204641 0.946147 0.129241 -0.062048
C174  C     C_R   0.208290 0.053834 0.129914 -0.097960
C175  C     C_R   0.732307 0.445903 0.634743 -0.056617
C176  C     C_R   0.736262 0.553609 0.634644 -0.104644
C177  C     C_R   0.183966 0.973071 0.191663 -0.057389
C178  C     C_R   0.186025 0.026787 0.192037 -0.114171
C179  C     C_R   0.725709 0.472815 0.700194 -0.074795
C180  C     C_R   0.727875 0.526557 0.700176 -0.110643
H57   H     H_    0.306665 0.094088 0.874055 0.188476
H58   H     H_    0.257839 0.907127 0.864157 0.198839
H59   H     H_    0.753281 0.595151 0.363046 0.179286
H60   H     H_    0.760115 0.404285 0.363653 0.136593
H61   H     H_    0.329384 0.046294 0.762074 0.149055
H62   H     H_    0.301279 0.953154 0.755486 0.200086
H63   H     H_    0.762410 0.547897 0.248538 0.176257
H64   H     H_    0.765907 0.452334 0.249069 0.165192
N1    N     N_R   0.150760 0.444186 0.098780 0.266879
O53   O     O_R   0.087500 0.421700 0.100110 -0.362024
O54   O     O_R   0.191694 0.441167 0.156547 -0.294003
N2    N     N_R   0.297629 0.554444 0.865318 0.287852
O55   O     O_R   0.273735 0.568679 0.801399 -0.315658
O56   O     O_R   0.364873 0.564181 0.882032 -0.320913
N3    N     N_R   0.168949 0.549350 0.112413 0.281790
O57   O     O_R   0.110969 0.575858 0.128690 -0.342597
O58   O     O_R   0.217621 0.541631 0.162821 -0.273452
N4    N     N_R   0.319843 0.451847 0.878817 0.292974
O59   O     O_R   0.312228 0.426486 0.818098 -0.311225
O60   O     O_R   0.385109 0.463645 0.900346 -0.309792
N5    N     N_R   0.876329 0.946931 0.569238 0.280594
O61   O     O_R   0.916845 0.957360 0.625482 -0.296743
O62   O     O_R   0.900971 0.915007 0.520588 -0.329373
N6    N     N_R   0.613363 0.055285 0.485233 0.253685
O63   O     O_R   0.560172 0.073943 0.523982 -0.412102
O64   O     O_R   0.612681 0.062713 0.414929 -0.332495
N7    N     N_R   0.881054 0.050803 0.546564 0.256205
O65   O     O_R   0.908823 0.083425 0.592621 -0.369208
O66   O     O_R   0.920988 0.034777 0.492449 -0.352175
N8    N     N_R   0.620167 0.949946 0.463541 0.255516
O67   O     O_R   0.566752 0.921460 0.487207 -0.422391
O68   O     O_R   0.624658 0.959847 0.393962 -0.332518
N9    N     N_R   0.413594 0.639115 0.145692 0.175021
O69   O     O_R   0.365740 0.621121 0.191647 -0.343515
O70   O     O_R   0.404821 0.631159 0.076369 -0.409984
N10   N     N_R   0.302549 0.204201 0.759294 0.170500
O71   O     O_R   0.276560 0.175719 0.811864 -0.511704
O72   O     O_R   0.261899 0.239934 0.730239 -0.421776
N11   N     N_R   0.317893 0.181286 0.226480 0.158446
O73   O     O_R   0.251490 0.195461 0.212390 -0.492510
O74   O     O_R   0.346155 0.142802 0.190718 -0.380166
N12   N     N_R   0.478100 0.687482 0.939808 0.151999
O75   O     O_R   0.489336 0.712434 0.000236 -0.425163
O76   O     O_R   0.427123 0.652862 0.936712 -0.357238
N13   N     N_R   0.799781 0.220341 0.785409 0.206980
O77   O     O_R   0.793573 0.269792 0.796595 -0.351252
O78   O     O_R   0.741823 0.193801 0.770010 -0.376475
N14   N     N_R   0.965871 0.825593 0.423573 0.164379
O79   O     O_R   0.924089 0.860832 0.394704 -0.396000
O80   O     O_R   0.954599 0.810232 0.490416 -0.406074
N15   N     N_R   0.845185 0.840949 0.751301 0.218353
O81   O     O_R   0.893544 0.868832 0.717364 -0.318601
O82   O     O_R   0.776598 0.851861 0.742594 -0.390555
N16   N     N_R   0.882625 0.139299 0.289111 0.213439
O83   O     O_R   0.936257 0.131797 0.334342 -0.395285
O84   O     O_R   0.822097 0.114562 0.300097 -0.421247
C181  C     C_3   0.810515 0.122115 0.864093 -0.318713
C182  C     C_3   0.824958 0.078006 0.918920 -0.432773
C183  C     C_3   0.753827 0.056518 0.949593 -0.794735
H65   H     H_    0.722663 0.087422 0.977715 0.278963
H66   H     H_    0.720107 0.040310 0.904943 0.275719
H67   H     H_    0.765837 0.025260 0.989653 0.249027
H68   H     H_    0.854496 0.045994 0.891437 0.245855
H69   H     H_    0.858308 0.092514 0.965076 0.223753
H70   H     H_    0.776055 0.151217 0.892350 0.262591
H71   H     H_    0.779423 0.106089 0.817392 0.238540
C184  C     C_3   0.112926 0.851847 0.467646 -0.367118
C185  C     C_3   0.097943 0.909605 0.454882 -0.347311
C186  C     C_3   0.110575 0.940758 0.524246 -0.652082
H72   H     H_    0.073161 0.927554 0.568273 0.298160
H73   H     H_    0.167717 0.936321 0.542905 0.286118
H74   H     H_    0.099970 0.982372 0.513027 0.250894
H75   H     H_    0.134530 0.924409 0.411105 0.230233
H76   H     H_    0.040859 0.915656 0.437008 0.286536
H77   H     H_    0.080999 0.837080 0.514794 0.252750
H78   H     H_    0.171068 0.846836 0.483081 0.224624
C187  C     C_3   0.778754 0.821456 0.896793 -0.376300
C188  C     C_3   0.708567 0.792527 0.878305 -0.344358
C189  C     C_3   0.641714 0.822411 0.904021 -0.742805
H79   H     H_    0.638878 0.860650 0.876216 0.269936
H80   H     H_    0.591766 0.800412 0.890746 0.257035
H81   H     H_    0.643748 0.828141 0.964069 0.268182
H82   H     H_    0.704491 0.786468 0.818484 0.263413
H83   H     H_    0.709308 0.754063 0.905694 0.231488
H84   H     H_    0.782120 0.824970 0.957255 0.200803
H85   H     H_    0.777310 0.861783 0.875770 0.242039
C190  C     C_3   0.802179 0.127509 0.146042 -0.387707
C191  C     C_3   0.729226 0.150989 0.169934 -0.331462
C192  C     C_3   0.667903 0.111519 0.165949 -0.686979
H86   H     H_    0.660844 0.097988 0.108926 0.265684
H87   H     H_    0.679905 0.077903 0.202038 0.269633
H88   H     H_    0.616396 0.129695 0.184540 0.275613
H89   H     H_    0.732302 0.165974 0.226561 0.269296
H90   H     H_    0.716059 0.184068 0.133493 0.238222
H91   H     H_    0.798335 0.118313 0.086941 0.196526
H92   H     H_    0.813149 0.090067 0.173831 0.241988
C193  C     C_3   0.526116 0.564668 0.138848 -0.363651
C194  C     C_3   0.587325 0.524611 0.148851 -0.472837
C195  C     C_3   0.569165 0.474367 0.109851 -0.694150
H93   H     H_    0.518523 0.457194 0.132476 0.259462
H94   H     H_    0.561790 0.482138 0.050744 0.296741
H95   H     H_    0.614383 0.446266 0.117036 0.269199
H96   H     H_    0.638955 0.539964 0.125737 0.256863
H97   H     H_    0.594999 0.515927 0.207899 0.239587
H98   H     H_    0.475143 0.547476 0.160832 0.238287
H99   H     H_    0.518373 0.571465 0.079522 0.226613
C196  C     C_3   0.301136 0.123362 0.652156 -0.396106
C197  C     C_3   0.252534 0.149389 0.594823 -0.345333
C198  C     C_3   0.176808 0.125301 0.593922 -0.785830
H100  H     H_    0.180245 0.083841 0.578658 0.264827
H101  H     H_    0.150733 0.128710 0.648470 0.277438
H102  H     H_    0.142185 0.146052 0.553657 0.249969
H103  H     H_    0.246828 0.191350 0.606197 0.268324
H104  H     H_    0.278105 0.144942 0.540331 0.208470
H105  H     H_    0.317370 0.084340 0.632632 0.200832
H106  H     H_    0.269856 0.116936 0.703214 0.243009
C199  C     C_3   0.264403 0.176604 0.376779 -0.425323
C200  C     C_3   0.264174 0.117344 0.372254 -0.282682
C201  C     C_3   0.188062 0.095613 0.384776 -0.826174
H107  H     H_    0.167464 0.106848 0.439277 0.268441
H108  H     H_    0.150074 0.110407 0.342358 0.271763
H109  H     H_    0.189736 0.052734 0.381904 0.262166
H110  H     H_    0.283367 0.104531 0.317747 0.275480
H111  H     H_    0.301653 0.101100 0.414152 0.233575
H112  H     H_    0.249508 0.188483 0.433048 0.187714
H113  H     H_    0.221549 0.193447 0.341335 0.241149
C202  C     C_3   0.613340 0.630531 0.954952 -0.352785
C203  C     C_3   0.618751 0.572841 0.935663 -0.441729
C204  C     C_3   0.546618 0.550944 0.908412 -0.596431
H114  H     H_    0.503695 0.555331 0.950587 0.274059
H115  H     H_    0.529220 0.570914 0.857492 0.275696
H116  H     H_    0.553343 0.509225 0.896288 0.272927
H117  H     H_    0.661366 0.566549 0.893562 0.231855
H118  H     H_    0.635554 0.550983 0.985249 0.248894
H119  H     H_    0.666334 0.643271 0.977762 0.225862
H120  H     H_    0.573195 0.635032 0.999587 0.248490
N17   N     N_R   0.345071 0.911984 0.309193 0.219998
O85   O     O_R   0.336226 0.942140 0.252823 -0.315225
O86   O     O_R   0.315233 0.924870 0.370988 -0.401805
N18   N     N_R   0.588245 0.390514 0.930482 0.221466
O87   O     O_R   0.532163 0.415037 0.956400 -0.360320
O88   O     O_R   0.652923 0.406207 0.948741 -0.375640
N19   N     N_R   0.659659 0.259487 0.020251 0.228044
O89   O     O_R   0.695244 0.298080 0.991750 -0.328842
O90   O     O_R   0.671540 0.213284 0.995000 -0.366379
N20   N     N_R   0.298420 0.866591 0.644887 0.196516
O91   O     O_R   0.237436 0.859627 0.679579 -0.386201
O92   O     O_R   0.300855 0.901180 0.593020 -0.404682
N21   N     N_R   0.023266 0.437682 0.650159 0.261698
O93   O     O_R   0.071415 0.459492 0.607977 -0.249258
O94   O     O_R   0.975284 0.466698 0.682539 -0.298683
N22   N     N_R   0.785727 0.658242 0.119445 0.200983
O95   O     O_R   0.786185 0.614517 0.084577 -0.424413
O96   O     O_R   0.725054 0.683948 0.123981 -0.368145
N23   N     N_R   0.126446 0.699815 0.513765 0.243341
O97   O     O_R   0.077530 0.703426 0.462670 -0.334135
O98   O     O_R   0.193750 0.691253 0.495256 -0.337536
N24   N     N_R   0.082730 0.376295 0.445275 0.250507
O99   O     O_R   0.038376 0.370381 0.500105 -0.328129
O100  O     O_R   0.139893 0.405311 0.453320 -0.297362
N25   N     N_R   0.351311 0.845477 0.187611 0.190912
O101  O     O_R   0.283198 0.832402 0.191086 -0.510189
O102  O     O_R   0.372347 0.878417 0.137993 -0.327496
N26   N     N_R   0.462614 0.327085 0.926463 0.187674
O103  O     O_R   0.478042 0.314279 0.993440 -0.411273
O104  O     O_R   0.408121 0.358017 0.914625 -0.331623
N27   N     N_R   0.528919 0.204216 0.056766 0.241974
O105  O     O_R   0.526669 0.212228 0.986623 -0.305166
O106  O     O_R   0.514691 0.158175 0.082041 -0.352019
N28   N     N_R   0.339678 0.835418 0.789038 0.171641
O107  O     O_R   0.376814 0.866609 0.830130 -0.415255
O108  O     O_R   0.275602 0.819925 0.809835 -0.464442
N29   N     N_R   0.900818 0.369014 0.667245 0.210362
O109  O     O_R   0.847981 0.358305 0.712137 -0.412094
O110  O     O_R   0.888485 0.399847 0.612334 -0.309911
N30   N     N_R   0.797842 0.710567 0.253697 0.185558
O111  O     O_R   0.749328 0.745946 0.239868 -0.346001
O112  O     O_R   0.785179 0.675363 0.302884 -0.512421
N31   N     N_R   0.001621 0.656254 0.600360 0.250517
O113  O     O_R   0.018782 0.629342 0.543039 -0.244733
O114  O     O_R   0.958721 0.635107 0.648639 -0.361435
N32   N     N_R   0.946898 0.365736 0.357324 0.240367
O115  O     O_R   0.950131 0.407368 0.396744 -0.268668
O116  O     O_R   0.893409 0.361657 0.311157 -0.432606

loop_
_geom_bond_atom_site_label_1
_geom_bond_atom_site_label_2
_geom_bond_distance
_ccdc_geom_bond_type
C187  H85   1.109776 S    
C156  H60   1.082130 S    
N4    O60   1.300706 A    
N23   O97   1.301174 A    
C48   C88   1.413321 A    
C41   H29   1.074591 S    
C32   C39   1.573160 S    
C129  C141  1.393757 A    
C27   N3    1.474015 S    
O46   C24   1.276670 A    
N30   O111  1.300530 A    
N9    O69   1.301475 A    
C78   C94   1.440288 A    
C182  H69   1.111843 S    
C177  C178  1.389563 A    
C94   C102  1.429851 A    
O26   C7    1.296649 A    
C198  H100  1.111015 S    
C23   C39   1.492115 S    
C75   C87   1.404351 A    
C195  H94   1.107946 S    
C147  H47   1.081998 S    
C170  C174  1.416939 A    
C109  C149  1.409454 A    
O30   C11   1.280109 A    
N24   O100  1.301334 A    
C24   C40   1.489572 S    
C185  C186  1.525807 S    
C174  C178  1.393325 A    
C68   N28   1.426987 S    
C53   C57   1.387863 A    
Zn12  O26   1.936812 S    
C29   C31   1.566841 S    
C56   C60   1.393145 A    
C155  C159  1.393658 A    
C43   C83   1.411636 A    
C193  H98   1.111972 S    
C110  C118  1.409870 A    
C47   C55   1.386067 A    
C198  H101  1.111148 S    
H26   C142  1.083527 S    
C52   H40   1.082974 S    
O11   C7    1.280576 A    
C53   H41   1.082885 S    
O34   C15   1.271602 A    
C201  H109  1.110606 S    
C61   N21   1.437053 S    
C87   C119  1.404296 A    
C70   C78   1.441399 A    
H16   C33   1.109645 S    
C49   H37   1.083172 S    
C181  H71   1.111452 S    
C184  H77   1.109716 S    
N10   O71   1.299763 A    
C201  H108  1.110882 S    
Zn1   O44   1.951325 S    
C25   H1    1.115979 S    
Zn2   O43   1.951326 S    
C21   C37   1.488154 S    
H23   C139  1.083579 S    
C54   C58   1.390947 A    
C165  C169  1.412038 A    
Zn5   O48   1.951325 S    
C57   C65   1.414764 A    
N2    O55   1.301399 A    
Zn6   O47   1.951326 S    
C167  C171  1.412428 A    
N19   O90   1.301370 A    
Zn7   O46   1.946206 S    
O16   C12   1.279532 A    
C49   C61   1.391938 A    
C155  H59   1.075751 S    
C179  C180  1.390219 A    
C30   N6    1.473966 S    
Zn16  O4    1.953939 S    
C204  H116  1.109174 S    
N14   O79   1.300999 A    
C108  C116  1.416808 A    
Zn1   O13   1.943077 S    
C19   C168  1.441447 S    
C22   C38   1.491314 S    
C141  C149  1.377239 A    
H18   C36   1.107126 S    
C26   C28   1.551576 S    
H24   C140  1.083688 S    
C139  C147  1.386964 A    
Zn4   O16   1.939067 S    
C194  H97   1.111983 S    
C203  C204  1.528197 S    
C46   C86   1.412228 A    
H28   C144  1.083459 S    
C187  C188  1.531789 S    
C145  H45   1.082000 S    
N8    O67   1.301060 A    
C189  H79   1.110753 S    
C29   N5    1.472413 S    
Zn6   O4    1.945077 S    
C93   C101  1.421640 A    
C110  C150  1.414074 A    
H55   C180  1.082842 S    
Zn16  O34   1.940799 S    
C150  H50   1.082280 S    
C111  C151  1.411909 A    
C31   C40   1.570818 S    
C136  C190  1.513025 S    
C192  H86   1.110694 S    
C30   H6    1.116192 S    
Zn10  O22   1.936812 S    
C31   N7    1.474489 S    
C157  C158  1.387770 A    
C156  C163  1.418020 A    
N29   O110  1.299456 A    
O25   C8    1.288167 A    
Zn13  O29   1.938199 S    
N28   O107  1.300908 A    
Zn10  O2    1.957600 S    
H10   C174  1.081961 S    
C44   C84   1.414930 A    
C63   C71   1.417307 A    
C134  C138  1.392342 A    
O29   C12   1.285254 A    
C45   C85   1.413251 A    
Zn15  O33   1.938199 S    
N32   O115  1.300805 A    
N17   O86   1.301536 A    
C26   H2    1.116110 S    
O37   C17   1.271052 A    
O48   C23   1.281213 A    
C65   N25   1.426417 S    
C122  C130  1.412629 A    
N20   O92   1.301619 A    
N3    O58   1.300500 A    
C199  C200  1.534967 S    
C154  C161  1.410500 A    
C71   N31   1.449071 S    
Zn16  O35   1.935856 S    
C99   C123  1.431664 A    
C193  C194  1.538407 S    
C35   C36   1.532333 S    
C97   C121  1.442211 A    
C17   C166  1.438210 S    
N23   O98   1.301474 A    
C191  H89   1.110308 S    
Zn7   O10   1.939024 S    
C59   N19   1.436738 S    
O33   C16   1.275096 A    
N2    O56   1.299292 A    
C197  C198  1.526341 S    
C132  C144  1.389819 A    
C101  C125  1.429681 A    
N27   O106  1.301723 A    
C52   C64   1.398884 A    
C135  C187  1.515262 S    
N1    O54   1.300570 A    
C182  C183  1.527015 S    
C199  H112  1.110486 S    
C106  C146  1.411240 A    
C161  C165  1.407392 A    
C136  C140  1.400811 A    
C82   C114  1.406953 A    
N5    O62   1.298385 A    
C35   C39   1.556611 S    
C13   C117  1.453054 S    
C202  C203  1.537822 S    
N22   O95   1.301442 A    
C25   N1    1.474809 S    
C102  C106  1.410455 A    
C188  H83   1.111378 S    
C1    C91   1.474927 S    
C2    C92   1.462776 S    
C12   C116  1.453987 S    
C65   C73   1.443139 A    
C96   C104  1.430263 A    
C197  H104  1.108860 S    
C200  H110  1.110192 S    
C25   C27   1.565491 S    
C47   H35   1.082901 S    
C74   C86   1.417623 A    
C107  C115  1.407518 A    
O28   C5    1.290891 A    
H25   C141  1.079683 S    
C3    C89   1.465535 S    
C105  C113  1.417025 A    
C27   H3    1.116033 S    
C192  H88   1.110345 S    
C32   H8    1.116249 S    
Zn8   O3    1.955289 S    
C97   C109  1.409066 A    
C185  H75   1.112517 S    
C168  C172  1.411466 A    
C8    C94   1.460123 S    
H53   C178  1.080620 S    
C61   C69   1.416419 A    
O38   C18   1.281557 A    
C130  C196  1.513953 S    
C121  N9    1.425038 S    
C134  C184  1.515077 S    
C59   C67   1.419705 A    
C129  C193  1.526254 S    
C194  H96   1.111880 S    
O5    C1    1.312462 A    
N18   O87   1.300064 A    
O32   C9    1.298481 A    
C100  C112  1.416530 A    
C112  C152  1.413207 A    
C33   C37   1.555018 S    
C169  C170  1.408298 A    
N12   O76   1.298686 A    
N31   O113  1.300617 A    
C125  N13   1.441709 S    
C104  C108  1.394386 A    
Zn15  O51   1.948458 S    
C28   N4    1.474691 S    
C69   N29   1.437801 S    
Zn11  O28   1.940546 S    
Zn12  O40   1.948416 S    
N16   O84   1.299443 A    
C138  C146  1.385127 A    
N15   O82   1.301409 A    
C55   C59   1.393634 A    
N11   O74   1.301300 A    
C200  C201  1.525457 S    
C183  H67   1.110413 S    
C50   H38   1.083346 S    
C70   N30   1.422466 S    
O8    C4    1.272997 A    
C71   C79   1.426720 A    
C194  C195  1.523632 S    
C187  H84   1.112945 S    
C72   C80   1.424902 A    
C32   N8    1.472457 S    
C166  C170  1.412797 A    
C90   C98   1.431959 A    
H9    C173  1.080316 S    
N6    O63   1.301101 A    
C42   H30   1.081886 S    
N30   O112  1.298038 A    
O50   C18   1.267845 A    
C62   N22   1.438645 S    
C50   C62   1.386987 A    
C196  H106  1.108852 S    
Zn1   O1    1.945079 S    
C46   H34   1.082188 S    
Zn13  O1    1.957296 S    
Zn2   O14   1.940177 S    
C189  H81   1.110779 S    
C29   H5    1.114931 S    
C48   C56   1.384392 A    
C27   C38   1.576528 S    
C175  C179  1.394060 A    
C188  H82   1.109842 S    
C42   C50   1.380576 A    
C190  H91   1.111478 S    
N25   O102  1.300794 A    
C26   N2    1.475362 S    
O9    C5    1.282512 A    
C146  H46   1.077402 S    
O39   C19   1.275832 A    
O36   C13   1.275199 A    
H56   C179  1.082253 S    
C68   C76   1.435079 A    
C80   C84   1.394185 A    
O13   C9    1.281967 A    
N26   O103  1.299842 A    
C126  C134  1.415733 A    
Zn1   O8    1.940134 S    
Zn2   O7    1.943033 S    
C173  C177  1.393569 A    
Zn3   O6    1.939024 S    
C135  C139  1.398709 A    
O18   C14   1.274586 A    
O31   C10   1.282102 A    
C11   C115  1.446202 S    
O6    C2    1.287935 A    
Zn4   O41   1.946205 S    
C121  C129  1.419647 A    
C122  N10   1.431506 S    
C188  C189  1.525987 S    
C63   N23   1.437882 S    
C44   H32   1.077509 S    
C153  H57   1.076382 S    
Zn14  O30   1.940799 S    
C64   C72   1.415837 A    
Zn15  O3    1.957296 S    
C48   H36   1.081906 S    
Zn11  O3    1.954242 S    
H12   C176  1.082432 S    
O41   C21   1.279044 A    
C164  C168  1.412365 A    
C41   C49   1.387208 A    
C7    C93   1.494947 S    
N10   O72   1.299234 A    
C186  H73   1.110571 S    
C159  H63   1.082700 S    
C88   C120  1.406875 A    
C184  C185  1.534796 S    
C124  C132  1.417132 A    
C143  C151  1.390529 A    
Zn8   O20   1.939067 S    
N21   O94   1.301470 A    
N9    O70   1.297122 A    
C204  H115  1.110266 S    
N14   O80   1.301026 A    
C183  H65   1.110898 S    
C67   C75   1.436456 A    
C78   C82   1.415740 A    
H20   C35   1.109265 S    
C55   H43   1.083118 S    
C36   C40   1.560180 S    
C56   H44   1.083274 S    
C132  C202  1.519022 S    
C30   C40   1.567642 S    
N4    O59   1.301571 A    
C109  C117  1.403273 A    
C18   C165  1.442253 S    
C103  C107  1.400349 A    
Zn8   O9    1.939926 S    
C57   N17   1.437832 S    
O15   C11   1.275767 A    
C108  C148  1.412003 A    
C127  C135  1.424156 A    
C182  H68   1.111566 S    
N13   O77   1.300836 A    
C162  C166  1.410362 A    
C72   N32   1.450132 S    
N19   O89   1.300727 A    
O7    C3    1.273993 A    
C195  H95   1.110536 S    
C171  C172  1.407497 A    
O19   C15   1.290466 A    
N24   O99   1.301130 A    
O44   C21   1.276423 A    
H22   C138  1.083829 S    
Zn9   O24   1.940546 S    
Zn6   O18   1.940177 S    
Zn10  O23   1.937949 S    
C67   N27   1.435846 S    
C47   C87   1.411159 A    
C203  H118  1.110509 S    
N27   O105  1.300336 A    
N29   O109  1.300956 A    
C151  H51   1.080534 S    
N28   O108  1.300862 A    
C163  C164  1.405593 A    
C152  H52   1.082001 S    
C131  C143  1.397108 A    
C74   C90   1.434241 A    
C111  C119  1.419645 A    
C66   N26   1.432341 S    
Zn15  O36   1.937066 S    
Zn9   O1    1.954242 S    
N32   O116  1.302188 A    
O42   C22   1.272322 A    
C73   C85   1.417126 A    
C33   C34   1.538100 S    
C54   H42   1.082737 S    
Zn4   O1    1.955289 S    
N31   O114  1.302701 A    
C198  H102  1.109885 S    
H11   C175  1.082202 S    
C186  H74   1.111251 S    
C103  C127  1.435309 A    
C76   C92   1.431964 A    
O12   C8    1.272032 A    
H54   C177  1.082876 S    
Zn11  O39   1.950103 S    
C62   C70   1.414551 A    
C181  C182  1.538035 S    
C153  C157  1.393625 A    
O51   C19   1.273123 A    
C191  C192  1.524166 S    
C58   C66   1.417070 A    
C171  C175  1.416977 A    
Zn5   O3    1.945079 S    
C31   H7    1.115648 S    
C45   H33   1.082305 S    
C46   C54   1.381677 A    
N7    O65   1.301342 A    
N1    O53   1.301340 A    
C169  C173  1.416112 A    
N5    O61   1.301266 A    
C25   C37   1.575291 S    
O40   C20   1.274833 A    
N3    O57   1.301442 A    
Zn3   O42   1.946206 S    
C172  C176  1.417454 A    
C157  H61   1.079885 S    
C99   C111  1.416623 A    
N22   O96   1.300247 A    
Zn7   O4    1.955291 S    
O21   C4    1.283259 A    
C125  C133  1.423624 A    
C196  C197  1.531354 S    
C144  C152  1.379840 A    
C123  C131  1.413826 A    
C58   N18   1.441920 S    
C176  C180  1.393974 A    
C60   N20   1.440981 S    
N11   O73   1.299702 A    
C200  H111  1.111793 S    
C130  C142  1.391588 A    
C15   C119  1.461021 S    
Zn2   O2    1.945077 S    
C20   C167  1.437429 S    
Zn14  O2    1.953939 S    
C195  H93   1.110948 S    
C29   C39   1.582993 S    
C51   C63   1.399832 A    
C44   C52   1.392876 A    
C160  H64   1.082593 S    
C45   C53   1.381353 A    
C190  C191  1.535397 S    
C98   C122  1.439742 A    
Zn13  O49   1.948458 S    
H19   C36   1.108328 S    
C192  H87   1.110853 S    
C43   C51   1.391946 A    
C161  C162  1.401528 A    
C185  H76   1.110183 S    
Zn12  O4    1.957600 S    
C51   H39   1.082955 S    
C102  C126  1.438790 A    
C95   C103  1.441237 A    
Zn12  O27   1.937949 S    
C128  C136  1.421927 A    
C79   C95   1.433548 A    
N8    O68   1.300490 A    
C80   C96   1.425850 A    
C107  C147  1.408652 A    
C181  H70   1.112244 S    
C69   C77   1.430054 A    
C83   C115  1.407903 A    
C105  C145  1.406782 A    
Zn3   O2    1.955291 S    
N18   O88   1.301693 A    
C81   C113  1.428817 A    
C191  H90   1.108399 S    
C41   C81   1.412826 A    
C84   C116  1.419919 A    
C14   C118  1.459440 S    
N15   O81   1.300930 A    
Zn5   O17   1.943077 S    
C66   C74   1.444711 A    
O47   C24   1.278950 A    
C101  C105  1.406566 A    
Zn16  O52   1.950146 S    
C128  N16   1.443571 S    
C9    C113  1.496700 S    
Zn8   O45   1.946205 S    
C154  H58   1.076293 S    
O27   C6    1.288594 A    
N20   O91   1.300292 A    
C112  C120  1.407928 A    
H15   C34   1.106992 S    
C133  C137  1.404476 A    
C183  H66   1.110851 S    
C142  C150  1.386337 A    
N16   O83   1.301865 A    
C106  C114  1.410085 A    
C158  H62   1.082350 S    
C100  C124  1.440483 A    
C26   C38   1.585173 S    
C203  H117  1.110875 S    
C98   C110  1.414044 A    
C127  N15   1.439650 S    
O24   C1    1.259757 A    
C64   N24   1.435027 S    
C104  C128  1.426216 A    
N6    O64   1.300389 A    
C201  H107  1.106976 S    
C79   C83   1.396764 A    
C196  H105  1.112453 S    
C199  H113  1.108228 S    
H21   C137  1.080171 S    
C148  H48   1.080837 S    
O43   C22   1.284912 A    
O14   C10   1.270739 A    
C34   C38   1.557589 S    
Zn3   O15   1.939969 S    
C189  H80   1.108956 S    
Zn5   O12   1.940134 S    
C76   C88   1.410043 A    
Zn6   O11   1.943033 S    
C77   C81   1.412981 A    
C4    C90   1.453444 S    
Zn9   O21   1.935605 S    
N25   O101  1.299058 A    
Zn14  O50   1.950146 S    
H13   C33   1.107347 S    
C124  N12   1.425371 S    
N7    O66   1.301580 A    
O35   C14   1.279561 A    
C92   C100  1.437604 A    
C5    C95   1.473920 S    
C6    C96   1.466302 S    
C137  C145  1.388191 A    
N26   O104  1.298434 A    
C197  H103  1.110661 S    
C202  H119  1.111611 S    
C133  C181  1.525673 S    
O52   C20   1.272170 A    
C163  C167  1.409794 A    
C193  H99   1.108597 S    
C42   C82   1.415033 A    
C159  C160  1.389520 A    
C10   C114  1.455860 S    
O22   C3    1.290753 A    
C190  H92   1.109431 S    
C123  N11   1.437854 S    
C184  H78   1.113090 S    
C91   C99   1.419631 A    
Zn7   O19   1.939969 S    
C43   H31   1.078402 S    
C156  C160  1.393830 A    
C89   C97   1.443069 A    
C131  C199  1.513940 S    
Zn13  O32   1.937066 S    
C85   C117  1.406223 A    
O49   C17   1.276586 A    
Zn14  O31   1.935856 S    
C153  C162  1.416088 A    
C30   C32   1.563264 S    
C75   C91   1.434600 A    
C149  H49   1.076463 S    
C155  C164  1.413847 A    
C140  C148  1.391568 A    
C28   H4    1.116444 S    
H17   C35   1.109627 S    
C73   C89   1.441106 A    
C186  H72   1.111750 S    
C126  N14   1.431372 S    
Zn4   O5    1.939926 S    
N17   O85   1.300175 A    
N12   O75   1.300666 A    
O20   C16   1.283487 A    
C77   C93   1.414978 A    
O10   C6    1.282713 A    
O23   C2    1.281115 A    
H27   C143  1.083528 S    
C28   C37   1.579203 S    
Zn11  O25   1.935605 S    
N21   O93   1.301374 A    
Zn10  O38   1.948416 S    
H14   C34   1.106791 S    
O45   C23   1.275501 A    
Zn9   O37   1.950103 S    
C60   C68   1.415108 A    
N13   O78   1.300473 A    
C204  H114  1.109551 S    
C154  C158  1.392654 A    
C86   C118  1.411222 A    
O17   C13   1.276143 A    
C16   C120  1.452658 S    
C202  H120  1.106995 S    
