data_mof_unit_pretest_748.cif
_audit_creation_date              2012-12-11T17:38:24-0500
_audit_creation_method            fapswitch 2.2
_symmetry_space_group_name_H-M    P1
_symmetry_Int_Tables_number       1
_space_group_crystal_system       triclinic
_cell_length_a                    25.069463
_cell_length_b                    7.180946
_cell_length_c                    22.38554
_cell_angle_alpha                 90.00023
_cell_angle_beta                  96.319511
_cell_angle_gamma                 89.999751
_cell_volume                      4005.41241347

loop_
_atom_site_label
_atom_site_type_symbol
_atom_type_description
_atom_site_fract_x
_atom_site_fract_y
_atom_site_fract_z
_atom_type_partial_charge
O1    O     O_R   0.551910 0.505710 0.449140 -0.541203
O2    O     O_R   0.448090 0.005710 0.550860 -0.541194
O3    O     O_R   0.442510 0.174130 0.436530 -0.536324
O4    O     O_R   0.557490 0.674130 0.563470 -0.536317
C1    C     C_R   0.423779 0.342987 0.421807 0.707665
C2    C     C_R   0.576223 0.842986 0.578191 0.707699
O5    O     O_R   0.551150 0.175880 0.442070 -0.535986
O6    O     O_R   0.448850 0.675880 0.557930 -0.535987
O7    O     O_R   0.557510 0.007410 0.556440 -0.525524
O8    O     O_R   0.442490 0.507410 0.443560 -0.525571
C3    C     C_R   0.568898 0.344269 0.429318 0.729846
C4    C     C_R   0.431099 0.844269 0.570680 0.729809
O9    O     O_3   0.501960 0.339800 0.537520 -0.375646
O10   O     O_3   0.498040 0.839800 0.462480 -0.375682
V1    V     V_3+5 0.499640 0.064240 0.493040 1.506351
V2    V     V_3+5 0.500360 0.564240 0.506960 1.506330
C5    C     C_R   0.137585 0.017060 0.783269 0.245131
C6    C     C_R   0.862380 0.517241 0.216707 0.314498
C7    C     C_R   0.105370 0.063016 0.829882 0.296313
C8    C     C_R   0.894598 0.563164 0.170091 0.327275
C9    C     C_R   0.106800 0.942805 0.881156 -0.251891
C10   C     C_R   0.893195 0.442839 0.118843 -0.263377
C11   C     C_R   0.145793 0.801624 0.887973 -0.204622
C12   C     C_R   0.854208 0.301638 0.112032 -0.206699
C13   C     C_R   0.184055 0.780215 0.847316 0.422202
C14   C     C_R   0.815931 0.280287 0.152673 0.420999
C15   C     C_R   0.180673 0.890159 0.794911 -0.203263
C16   C     C_R   0.819297 0.390290 0.205066 -0.222625
C17   C     C_1   0.222604 0.879398 0.754464 0.294695
C18   C     C_1   0.777348 0.379549 0.245491 0.297650
C19   C     C_1   0.258145 0.874694 0.721672 0.182704
C20   C     C_1   0.741807 0.374828 0.278279 0.184042
C21   C     C_R   0.310337 0.019224 0.643903 0.426562
C22   C     C_R   0.689631 0.519290 0.356072 0.427911
C23   C     C_R   0.353194 0.009492 0.608463 -0.214213
C24   C     C_R   0.646788 0.509519 0.391526 -0.214420
H1    H     H_    0.359345 0.122504 0.577986 0.160998
H2    H     H_    0.640639 0.622518 0.422010 0.161111
C25   C     C_R   0.387275 0.853623 0.610556 -0.107933
C26   C     C_R   0.612714 0.353635 0.389437 -0.108081
C27   C     C_R   0.377926 0.706465 0.649504 -0.093125
C28   C     C_R   0.622057 0.206498 0.350478 -0.093024
H3    H     H_    0.403369 0.584210 0.652238 0.147374
H4    H     H_    0.596616 0.084235 0.347746 0.147404
C29   C     C_R   0.335809 0.716012 0.685787 -0.059218
C30   C     C_R   0.664160 0.216087 0.314178 -0.059409
C31   C     C_R   0.301450 0.870817 0.683230 -0.042007
C32   C     C_R   0.698510 0.370912 0.316731 -0.043014
C33   C     C_3   0.776798 0.709481 0.788354 0.224661
C34   C     C_3   0.223216 0.209469 0.211632 0.222876
C35   C     C_3   0.744558 0.041121 0.802998 0.209187
C36   C     C_3   0.255455 0.541107 0.196988 0.209014
C37   C     C_3   0.692678 0.981506 0.760796 0.129528
C38   C     C_3   0.307336 0.481488 0.239188 0.129894
H5    H     H_    0.753511 0.184314 0.789010 0.102223
H6    H     H_    0.246503 0.684302 0.210976 0.102193
H7    H     H_    0.673074 0.110313 0.743095 0.127287
H8    H     H_    0.326943 0.610292 0.256886 0.127144
C39   C     C_1   0.622308 0.843579 0.623442 -0.044629
C40   C     C_1   0.377700 0.343578 0.376548 -0.044807
C41   C     C_3   0.793718 0.918495 0.789533 -0.174255
C42   C     C_3   0.206295 0.418484 0.210452 -0.175785
C43   C     C_3   0.730515 0.673508 0.735735 -0.434189
C44   C     C_3   0.269497 0.173498 0.264252 -0.433747
C45   C     C_3   0.709300 0.860338 0.706624 -0.168039
C46   C     C_3   0.290714 0.360329 0.293361 -0.167957
C47   C     C_3   0.757985 0.945452 0.674897 0.612473
C48   C     C_3   0.242028 0.445451 0.325087 0.610552
C49   C     C_3   0.807728 0.966525 0.724695 -0.451593
C50   C     C_3   0.192286 0.466517 0.275290 -0.448433
C51   C     C_1   0.661296 0.842305 0.660946 0.207269
C52   C     C_1   0.338715 0.342301 0.339040 0.207365
C53   C     C_1   0.840896 0.946611 0.835899 0.262424
C54   C     C_1   0.159116 0.446604 0.164088 0.263937
C55   C     C_1   0.878918 0.951745 0.874665 0.036556
C56   C     C_1   0.121090 0.451744 0.125326 0.040022
O11   O     O_R   0.057480 0.291690 0.056480 -0.533598
O12   O     O_R   0.942520 0.791690 0.943520 -0.533931
O13   O     O_R   0.948840 0.619880 0.057940 -0.497096
O14   O     O_R   0.051160 0.119880 0.942060 -0.495083
C57   C     C_R   0.932784 0.451887 0.073041 0.776015
C58   C     C_R   0.067214 0.951880 0.926958 0.771036
O15   O     O_R   0.057480 0.621520 0.063480 -0.520137
O16   O     O_R   0.942520 0.121520 0.936520 -0.519839
O17   O     O_R   0.051910 0.789880 0.949130 -0.541695
O18   O     O_R   0.948090 0.289880 0.050870 -0.540348
C59   C     C_R   0.075960 0.454177 0.078839 0.699457
C60   C     C_R   0.924042 0.954177 0.921158 0.696732
O19   O     O_3   0.998020 0.455790 0.962510 -0.351873
O20   O     O_3   0.001980 0.955790 0.037490 -0.351479
V3    V     V_3+5 0.000370 0.731410 0.006960 1.757139
V4    V     V_3+5 0.999630 0.231410 0.993040 1.759547
S1    S     S_3+6 0.118332 0.086712 0.707582 0.213103
O21   O     O_2   0.145454 0.267066 0.695411 -0.190169
O22   O     O_2   0.134423 0.941708 0.664553 -0.257619
O23   O     O_3   0.051391 0.114269 0.695039 -0.379525
H9    H     H_    0.036255 0.992917 0.705788 0.367985
S2    S     S_3+6 0.881517 0.587583 0.292315 0.184854
O24   O     O_2   0.854261 0.767901 0.304320 -0.223667
O25   O     O_2   0.865551 0.441836 0.335167 -0.261950
O26   O     O_3   0.948516 0.614300 0.304395 -0.411437
H10   H     H_    0.955328 0.665536 0.345612 0.419979
H11   H     H_    0.759734 0.679384 0.830944 0.205202
H12   H     H_    0.240280 0.179369 0.169043 0.205377
S3    S     S_3+6 0.737902 0.074148 0.882709 0.135283
O27   O     O_2   0.783379 0.192701 0.910472 -0.298827
O28   O     O_2   0.686638 0.174376 0.890689 -0.217946
O29   O     O_3   0.740233 0.870728 0.920080 -0.454941
H13   H     H_    0.731726 0.902720 0.961003 0.421316
S4    S     S_3+6 0.262111 0.574129 0.117276 0.135120
O30   O     O_2   0.216635 0.692681 0.089512 -0.299010
O31   O     O_2   0.313375 0.674352 0.109296 -0.217849
O32   O     O_3   0.259779 0.370705 0.079907 -0.454966
H14   H     H_    0.268318 0.402675 0.038995 0.421459
S5    S     S_3+6 0.638563 0.872778 0.797665 0.115862
O33   O     O_2   0.601057 0.764177 0.753675 -0.345595
O34   O     O_2   0.660050 0.741168 0.846542 -0.225760
O35   O     O_3   0.601784 0.037907 0.827157 -0.391432
H15   H     H_    0.585842 0.111712 0.792286 0.350936
S6    S     S_3+6 0.361448 0.372748 0.202319 0.115827
O36   O     O_2   0.398952 0.264141 0.246310 -0.345674
O37   O     O_2   0.339962 0.241140 0.153442 -0.225720
O38   O     O_3   0.398230 0.537867 0.172829 -0.391454
H16   H     H_    0.414210 0.611563 0.207708 0.350920
H17   H     H_    0.840921 0.874334 0.714777 0.273579
H18   H     H_    0.159094 0.374323 0.285208 0.275410
H19   H     H_    0.827454 0.100602 0.723291 0.227280
H20   H     H_    0.172559 0.600594 0.276694 0.227600
S7    S     S_3+6 0.778654 0.796195 0.614245 0.142223
O39   O     O_2   0.818290 0.649950 0.637508 -0.235865
O40   O     O_2   0.730923 0.701587 0.580678 -0.333729
O41   O     O_3   0.808666 0.926178 0.565010 -0.390199
H21   H     H_    0.812477 0.842394 0.530577 0.413865
S8    S     S_3+6 0.221362 0.296200 0.385743 0.143519
O42   O     O_2   0.181721 0.149971 0.362484 -0.235362
O43   O     O_2   0.269093 0.201569 0.419302 -0.333524
O44   O     O_3   0.191361 0.426191 0.434985 -0.389438
H22   H     H_    0.187559 0.342414 0.469421 0.415597
S9    S     S_3+6 0.834154 0.551452 0.788703 0.071419
O45   O     O_2   0.887185 0.649266 0.789166 -0.281738
O46   O     O_2   0.836712 0.429510 0.843355 -0.305044
O47   O     O_3   0.828303 0.418455 0.728032 -0.403914
H23   H     H_    0.792940 0.361622 0.729669 0.346855
S10   S     S_3+6 0.165860 0.051439 0.211283 0.073436
O48   O     O_2   0.112827 0.149249 0.210811 -0.276501
O49   O     O_2   0.163306 0.929479 0.156635 -0.305350
O50   O     O_3   0.171707 0.918463 0.271958 -0.404021
H24   H     H_    0.207069 0.861616 0.270320 0.346722
H25   H     H_    0.744552 0.589652 0.700104 0.261443
H26   H     H_    0.255460 0.089649 0.299885 0.261537
S11   S     S_3+6 0.067885 0.276355 0.826736 0.115118
O51   O     O_2   0.009193 0.232081 0.825654 -0.284923
O52   O     O_2   0.085359 0.389330 0.882002 -0.342649
O53   O     O_3   0.076067 0.412507 0.767334 -0.392439
H27   H     H_    0.107828 0.490793 0.780096 0.374482
S12   S     S_3+6 0.931957 0.776788 0.173124 0.130856
O54   O     O_2   0.990677 0.732918 0.174246 -0.271146
O55   O     O_2   0.914424 0.889355 0.117786 -0.346362
O56   O     O_3   0.923685 0.913232 0.232432 -0.400825
H28   H     H_    0.891840 0.991077 0.219636 0.376935
S13   S     S_3+6 0.738709 0.162392 0.635400 0.046637
O57   O     O_2   0.788026 0.264124 0.620915 -0.197480
O58   O     O_2   0.705896 0.116473 0.576839 -0.304684
O59   O     O_3   0.701531 0.304164 0.673441 -0.589864
H29   H     H_    0.679148 0.376672 0.642447 0.370792
S14   S     S_3+6 0.261303 0.662399 0.364578 0.046650
O60   O     O_2   0.211987 0.764118 0.379070 -0.197676
O61   O     O_2   0.294125 0.616498 0.423135 -0.304671
O62   O     O_3   0.298469 0.804157 0.326520 -0.589852
H30   H     H_    0.321061 0.876005 0.357508 0.370641
H31   H     H_    0.147530 0.711014 0.926807 0.216011
H32   H     H_    0.852482 0.210997 0.073208 0.217144
S15   S     S_3+6 0.233754 0.605485 0.860899 0.066563
O63   O     O_2   0.230184 0.512617 0.920508 -0.294129
O64   O     O_2   0.225620 0.462422 0.811729 -0.301665
O65   O     O_3   0.294798 0.702302 0.860529 -0.480442
H33   H     H_    0.319736 0.595821 0.859045 0.386163
S16   S     S_3+6 0.766215 0.105624 0.139072 0.066224
O66   O     O_2   0.769850 0.012518 0.079513 -0.294908
O67   O     O_2   0.774254 0.962728 0.188299 -0.302177
O68   O     O_3   0.705178 0.202610 0.139300 -0.480262
H34   H     H_    0.680206 0.096213 0.140735 0.386183
S17   S     S_3+6 0.267841 0.216034 0.636310 0.092521
O69   O     O_2   0.213910 0.157991 0.606131 -0.229113
O70   O     O_2   0.261186 0.293562 0.697367 -0.279565
O71   O     O_3   0.293343 0.382770 0.594885 -0.493624
H35   H     H_    0.282217 0.347982 0.552515 0.378375
S18   S     S_3+6 0.732112 0.716136 0.363648 0.090159
O72   O     O_2   0.786080 0.658100 0.393731 -0.234721
O73   O     O_2   0.738675 0.793798 0.302585 -0.278593
O74   O     O_3   0.706652 0.882752 0.405155 -0.493594
H36   H     H_    0.717812 0.847839 0.447507 0.378298
H37   H     H_    0.329890 0.601420 0.715836 0.190900
H38   H     H_    0.670073 0.101519 0.284118 0.191099
H39   H     H_    0.697909 0.590744 0.752556 0.236931
H40   H     H_    0.302104 0.090730 0.247431 0.236968

loop_
_geom_bond_atom_site_label_1
_geom_bond_atom_site_label_2
_ccdc_geom_bond_type
C46   C48   S    
C43   C45   S    
O11   V4    S    
C34   H12   S    
S1    O21   D    
C33   C43   S    
C38   S6    S    
C15   C17   S    
C20   C32   S    
O62   H30   S    
O15   C59   A    
O50   H24   S    
O1    C3    A    
O2    C4    A    
S8    O44   S    
S13   O57   D    
O17   V3    S    
O38   H16   S    
C25   C27   A    
O68   H34   S    
O5    C3    A    
S3    O28   D    
O26   H10   S    
C54   C56   T    
S18   O74   S    
S12   O54   D    
C7    C9    A    
C12   C14   A    
O32   H14   S    
S17   O70   D    
S9    O47   S    
C40   C52   T    
C50   H20   S    
S5    O33   D    
C34   C44   S    
O29   H13   S    
C42   C50   S    
S18   O73   D    
C28   C30   A    
S11   O53   S    
O35   H15   S    
C43   H25   S    
C21   C23   A    
S4    O30   D    
S12   O55   D    
C46   C52   S    
C43   H39   S    
S6    O37   D    
O41   H21   S    
S5    O34   D    
C35   C41   S    
C21   S17   S    
C7    S11   S    
S11   O51   D    
O10   V2    S    
C37   C45   S    
C35   H5    S    
C57   O18   A    
S6    O38   S    
C35   S3    S    
S7    O41   S    
C50   H18   S    
O5    V1    S    
O44   H22   S    
C49   H17   S    
S1    O22   D    
C19   C31   S    
S14   O61   D    
C27   H3    S    
O59   H29   S    
C47   S7    S    
C28   H4    S    
C2    O7    A    
S10   O50   S    
O4    V2    S    
S13   O58   D    
C36   C38   S    
C30   H38   S    
C37   S5    S    
C29   C31   A    
C9    C11   A    
C29   H37   S    
S3    O29   S    
C30   C32   A    
C33   C41   S    
O74   H36   S    
C5    C15   A    
C10   C57   S    
S16   O66   D    
C24   C26   A    
C6    S2    S    
C6    C16   A    
O14   C58   A    
S17   O71   S    
O13   C57   A    
C37   H7    S    
S8    O43   D    
C45   C47   S    
C45   C51   S    
C36   C42   S    
C44   H26   S    
S18   O72   D    
C34   S10   S    
C44   C46   S    
O14   V4    S    
C23   C25   A    
S17   O69   D    
C47   S13   S    
O56   H28   S    
S4    O32   S    
O9    V1    S    
C36   S4    S    
O6    C4    A    
S5    O35   S    
O23   H9    S    
C11   H31   S    
O1    V2    S    
O19   V4    S    
C22   S18   S    
O2    V1    S    
C56   C59   S    
O11   C59   A    
O53   H27   S    
S15   O64   D    
S10   O49   D    
O65   H33   S    
C8    C10   A    
S1    O23   S    
S2    O25   D    
C33   S9    S    
S14   O60   D    
C21   C31   A    
C10   C12   A    
O4    C2    A    
C5    S1    S    
C53   C55   T    
C24   H2    S    
S2    O26   S    
S13   O59   S    
O3    V1    S    
S6    O36   D    
S7    O39   D    
C38   H8    S    
S15   O65   S    
C41   C49   S    
O12   C60   A    
C8    S12   S    
C1    C40   S    
C23   H1    S    
O10   V1    S    
O13   V3    S    
C2    C39   S    
S12   O56   S    
O16   C60   A    
S10   O48   D    
O3    C1    A    
C33   H11   S    
S16   O67   D    
S9    O45   D    
S8    O42   D    
C38   C46   S    
O12   V3    S    
C13   C15   A    
C58   O17   A    
O15   V3    S    
S3    O27   D    
C14   S16   S    
C14   C16   A    
C41   C53   S    
C4    C25   S    
C48   S8    S    
O7    V1    S    
C16   C18   S    
C17   C19   T    
O8    V2    S    
C18   C20   T    
S9    O46   D    
O20   V3    S    
C34   C42   S    
C44   H40   S    
C26   C28   A    
C5    C7    A    
C22   C24   A    
C6    C8    A    
S11   O52   D    
C3    C26   S    
C12   H32   S    
S4    O31   D    
S16   O68   S    
C47   C49   S    
S15   O63   D    
C13   S15   S    
C55   C60   S    
C1    O8    A    
C11   C13   A    
C22   C32   A    
C9    C58   S    
C49   H19   S    
S14   O62   S    
O6    V2    S    
S2    O24   D    
O9    V2    S    
C48   C50   S    
C27   C29   A    
O47   H23   S    
C42   C54   S    
O18   V4    S    
O16   V4    S    
C35   C37   S    
O71   H35   S    
C36   H6    S    
C39   C51   T    
S7    O40   D    
C48   S14   S    
