data_mof_unit_pretest_1454.cif
_audit_creation_date              2012-12-10T19:33:09-0500
_audit_creation_method            fapswitch 2.2
_symmetry_space_group_name_H-M    P1
_symmetry_Int_Tables_number       1
_space_group_crystal_system       triclinic
_cell_length_a                    8.722139
_cell_length_b                    15.884607
_cell_length_c                    17.055383
_cell_angle_alpha                 96.29414
_cell_angle_beta                  92.427342
_cell_angle_gamma                 84.656125
_cell_volume                      2337.29918199

loop_
_atom_site_label
_atom_site_type_symbol
_atom_type_description
_atom_site_fract_x
_atom_site_fract_y
_atom_site_fract_z
_atom_type_partial_charge
C1    C     C_R   0.501851 0.489522 0.348679 0.850872
C2    C     C_R   0.503864 0.510049 0.651351 0.843407
C3    C     C_R   0.407663 0.743327 0.459314 -0.081905
C4    C     C_R   0.592251 0.256780 0.540792 -0.083272
C5    C     C_R   0.384326 0.830474 0.450349 0.301604
C6    C     C_R   0.615243 0.169710 0.550110 0.298006
C7    C     C_R   0.479207 0.887402 0.492411 0.221842
C8    C     C_R   0.520636 0.112683 0.507969 0.219027
C9    C     C_R   0.594557 0.853643 0.543577 -0.311823
C10   C     C_R   0.405384 0.146345 0.456685 -0.306943
C11   C     C_R   0.613334 0.765537 0.552216 0.550343
C12   C     C_R   0.386491 0.234428 0.447979 0.553447
C13   C     C_R   0.205631 0.521702 0.500434 0.893838
C14   C     C_R   0.794367 0.478282 0.499467 0.885687
C15   C     C_2   0.040682 0.533377 0.498935 -0.294507
C16   C     C_2   0.959307 0.466543 0.500760 -0.293240
C17   C     C_R   0.516885 0.483274 0.263069 -0.106798
C18   C     C_R   0.519779 0.514093 0.737318 -0.094451
C19   C     C_R   0.593958 0.543877 0.230315 -0.260958
C20   C     C_R   0.586617 0.443111 0.772194 -0.259191
C21   C     C_R   0.616805 0.537820 0.149164 0.414911
C22   C     C_R   0.610057 0.445972 0.854012 0.412466
C23   C     C_R   0.550581 0.471660 0.099205 0.273297
C24   C     C_R   0.555156 0.521126 0.902108 0.270338
C25   C     C_R   0.477904 0.410230 0.133121 -0.197173
C26   C     C_R   0.492870 0.592306 0.866139 -0.197017
C27   C     C_R   0.462105 0.415325 0.214266 -0.165211
C28   C     C_R   0.476091 0.589295 0.784521 -0.161337
Cu1   Cu    Cu3+1 0.492520 0.415770 0.496210 1.042174
Cu2   Cu    Cu3+1 0.507480 0.584230 0.503790 1.041289
H1    H     H_    0.985941 0.597119 0.495438 0.226630
H2    H     H_    0.014026 0.402752 0.504126 0.226551
H3    H     H_    0.625217 0.386014 0.734993 0.210115
H4    H     H_    0.641050 0.594662 0.268799 0.211546
H5    H     H_    0.430810 0.358486 0.095883 0.204886
H6    H     H_    0.454420 0.650349 0.902063 0.203101
H7    H     H_    0.404852 0.366914 0.238560 0.224374
H8    H     H_    0.426428 0.645212 0.758411 0.194764
H9    H     H_    0.664841 0.299485 0.574990 0.206335
H10   H     H_    0.335194 0.700666 0.424969 0.213831
N1    N     N_2   0.552028 0.462570 0.015593 -0.136291
N2    N     N_2   0.558136 0.530020 0.985780 -0.134906
N3    N     N_R   0.518730 0.710760 0.509500 -0.262049
N4    N     N_R   0.481270 0.289240 0.490500 -0.258491
N5    N     N_2   0.454970 0.976365 0.481115 -0.119940
N6    N     N_2   0.545072 0.023718 0.519249 -0.123558
O1    O     O_R   0.493000 0.421040 0.382520 -0.532923
O2    O     O_R   0.507000 0.578960 0.617480 -0.532383
O3    O     O_R   0.505640 0.563310 0.388930 -0.607046
O4    O     O_R   0.494360 0.436690 0.611070 -0.608236
O5    O     O_R   0.269980 0.445280 0.497530 -0.530608
O6    O     O_R   0.730020 0.554720 0.502470 -0.535476
O7    O     O_R   0.282610 0.587550 0.503940 -0.592981
O8    O     O_R   0.717390 0.412450 0.496060 -0.593959
S1    S     S_3+6 0.716388 0.356887 0.890846 0.067599
O9    O     O_2   0.606584 0.302806 0.923138 -0.255278
O10   O     O_2   0.804385 0.304397 0.825932 -0.222036
O11   O     O_3   0.841951 0.389664 0.962781 -0.468911
H11   H     H_    0.881985 0.337493 0.986565 0.385470
S2    S     S_3+6 0.736571 0.610307 0.115802 0.063142
O12   O     O_2   0.637137 0.679780 0.080306 -0.249995
O13   O     O_2   0.831430 0.649340 0.183535 -0.244658
O14   O     O_3   0.855978 0.559531 0.047616 -0.469434
H12   H     H_    0.905164 0.605182 0.025670 0.385658
S3    S     S_3+6 0.763617 0.132797 0.615074 0.073712
O15   O     O_2   0.875970 0.071091 0.568842 -0.228112
O16   O     O_2   0.846640 0.205344 0.655137 -0.244285
O17   O     O_3   0.686000 0.082604 0.683503 -0.471976
H13   H     H_    0.775177 0.056897 0.713207 0.398359
S4    S     S_3+6 0.235407 0.867583 0.385774 0.072180
O18   O     O_2   0.305902 0.902988 0.318912 -0.229198
O19   O     O_2   0.140012 0.796832 0.353312 -0.251170
O20   O     O_3   0.122209 0.945241 0.435442 -0.464931
H14   H     H_    0.049282 0.967677 0.395029 0.395503
H15   H     H_    0.670870 0.895447 0.576807 0.249520
H16   H     H_    0.329166 0.104498 0.423435 0.249891
S5    S     S_3+6 0.766056 0.733389 0.617289 0.034242
O21   O     O_2   0.763492 0.644719 0.638937 -0.274912
O22   O     O_2   0.915569 0.741100 0.579133 -0.295562
O23   O     O_3   0.756284 0.800952 0.700428 -0.514566
H17   H     H_    0.853075 0.786981 0.730670 0.388755
S6    S     S_3+6 0.233576 0.266470 0.382987 0.024735
O24   O     O_2   0.084186 0.256454 0.420274 -0.292849
O25   O     O_2   0.233499 0.355913 0.363030 -0.294888
O26   O     O_3   0.246200 0.200502 0.298912 -0.516560
H18   H     H_    0.150619 0.215188 0.267976 0.388547

loop_
_geom_bond_atom_site_label_1
_geom_bond_atom_site_label_2
_ccdc_geom_bond_type
S1    O9    D    
C2    C18   S    
C24   N2    S    
N1    N2    D    
O26   H18   S    
C3    N3    A    
C5    S4    S    
Cu1   O1    S    
S2    O14   S    
C7    N5    S    
C22   C24   A    
Cu2   O2    S    
C19   C21   A    
C24   C26   A    
Cu1   O8    S    
C15   C16   D    
S2    O13   D    
O20   H14   S    
C2    O4    A    
C13   O5    A    
C10   H16   S    
C6    S3    S    
C14   O6    A    
O17   H13   S    
S3    O16   D    
C11   N3    A    
S4    O18   D    
C11   S5    S    
S5    O21   D    
C13   O7    A    
Cu1   O4    S    
S5    O22   D    
C21   C23   A    
Cu2   O7    S    
C17   C27   A    
C18   C28   A    
C21   S2    S    
C4    C6    A    
C5    C7    A    
C1    O1    A    
C6    C8    A    
C4    N4    A    
C2    O2    A    
O11   H11   S    
N5    N6    D    
S2    O12   D    
Cu1   Cu2   S    
C4    H9    S    
C28   H8    S    
S3    O17   S    
S4    O20   S    
C12   S6    S    
C9    C11   A    
C10   C12   A    
C25   H5    S    
C20   H3    S    
C26   H6    S    
C14   O8    A    
Cu2   O3    S    
C20   C22   A    
C3    H10   S    
S6    O24   D    
S6    O25   D    
S1    O10   D    
Cu1   N4    S    
C14   C16   S    
Cu2   N3    S    
C16   H2    S    
Cu1   O5    S    
S5    O23   S    
C7    C9    A    
Cu2   O6    S    
C1    C17   S    
O23   H17   S    
C3    C5    A    
C19   H4    S    
C15   H1    S    
C22   S1    S    
C25   C27   A    
S6    O26   S    
C26   C28   A    
C23   N1    S    
C13   C15   S    
C12   N4    A    
C27   H7    S    
C17   C19   A    
C18   C20   A    
C23   C25   A    
C8    N6    S    
O14   H12   S    
C8    C10   A    
S3    O15   D    
S1    O11   S    
S4    O19   D    
C9    H15   S    
C1    O3    A    
