data_mof_unit_pretest_1457.cif
_audit_creation_date              2012-12-10T20:26:24-0500
_audit_creation_method            fapswitch 2.2
_symmetry_space_group_name_H-M    P1
_symmetry_Int_Tables_number       1
_space_group_crystal_system       triclinic
_cell_length_a                    10.743698
_cell_length_b                    10.682051
_cell_length_c                    9.868449
_cell_angle_alpha                 89.88355
_cell_angle_beta                  89.959427
_cell_angle_gamma                 90.149142
_cell_volume                      1132.54342037

loop_
_atom_site_label
_atom_site_type_symbol
_atom_type_description
_atom_site_fract_x
_atom_site_fract_y
_atom_site_fract_z
_atom_type_partial_charge
C1    C     C_R   0.497945 0.260114 0.500351 0.870842
C2    C     C_R   0.485061 0.128408 0.502996 -0.069671
C3    C     C_R   0.434832 0.064710 0.391544 -0.230604
C4    C     C_R   0.435675 0.935127 0.390768 -0.257206
C5    C     C_R   0.486412 0.871308 0.501736 -0.085235
C6    C     C_R   0.519291 0.935820 0.618528 0.023992
C7    C     C_3   0.634897 0.930196 0.703588 0.342662
C8    C     C_3   0.632432 0.073523 0.705935 -0.591309
C9    C     C_R   0.408270 0.439551 0.071254 0.124522
C10   C     C_R   0.581439 0.573225 0.072383 0.513914
C11   C     C_R   0.582791 0.570471 0.927390 -0.255236
C12   C     C_R   0.262628 0.497498 0.499859 0.924670
C13   C     C_R   0.407625 0.440424 0.928925 0.205825
C14   C     C_3   0.375862 0.304746 0.922646 -0.482812
C15   C     C_3   0.378406 0.303376 0.076477 -0.505539
C16   C     C_R   0.498438 0.739791 0.499939 0.916997
C17   C     C_R   0.737355 0.502537 0.499914 0.949317
C18   C     C_2   0.933156 0.499738 0.385411 -0.159662
C19   C     C_2   0.868847 0.513993 0.500038 -0.339737
C20   C     C_2   0.067063 0.507381 0.385901 -0.170284
C21   C     C_2   0.131090 0.486323 0.499551 -0.333254
C22   C     C_R   0.517690 0.063532 0.620006 0.039155
H1    H     H_    0.887495 0.483680 0.288735 0.196811
H2    H     H_    0.709190 0.124416 0.654525 0.186777
H3    H     H_    0.651837 0.623315 0.871625 0.181522
H4    H     H_    0.281487 0.288558 0.879952 0.197866
H5    H     H_    0.450811 0.247877 0.876241 0.215647
H6    H     H_    0.285832 0.284883 0.122835 0.201570
H7    H     H_    0.456357 0.247012 0.118124 0.210121
H8    H     H_    0.911397 0.538634 0.595922 0.160293
H9    H     H_    0.113049 0.529146 0.290553 0.175138
H10   H     H_    0.088338 0.457222 0.594034 0.147938
H11   H     H_    0.400117 0.114319 0.303799 0.160841
H12   H     H_    0.402097 0.885682 0.302218 0.161293
H13   H     H_    0.614344 0.888934 0.804630 0.099250
H14   H     H_    0.611174 0.110687 0.808322 0.177344
N1    N     N_R   0.499170 0.499140 0.142800 -0.150085
N2    N     N_R   0.499170 0.499180 0.857150 -0.128930
O1    O     O_R   0.500020 0.316790 0.614690 -0.613931
O2    O     O_R   0.500000 0.316760 0.385350 -0.631487
O3    O     O_R   0.319080 0.500020 0.614640 -0.621485
O4    O     O_R   0.319070 0.499980 0.385300 -0.621447
O5    O     O_R   0.500000 0.683240 0.614650 -0.613746
O6    O     O_R   0.499980 0.683210 0.385310 -0.622125
O7    O     O_R   0.680930 0.500020 0.614700 -0.614663
O8    O     O_R   0.680920 0.499980 0.385360 -0.576237
Zn1   Zn    Zn3+2 0.500010 0.500020 0.653130 0.953154
Zn2   Zn    Zn3+2 0.499990 0.499980 0.346870 0.967911
O9    O     O_3   0.669574 0.640964 0.143775 -0.587979
C23   C     C_3   0.662720 0.770323 0.112366 0.088378
H15   H     H_    0.647525 0.822312 0.208248 0.179079
H16   H     H_    0.584710 0.797146 0.043536 0.095592
C24   C     C_3   0.785652 0.814366 0.051629 -0.872708
H17   H     H_    0.802693 0.767609 0.953096 0.262417
H18   H     H_    0.782831 0.917153 0.034868 0.216620
H19   H     H_    0.863449 0.792164 0.121597 0.263478
O10   O     O_3   0.737410 0.867697 0.641141 -0.597932
C25   C     C_3   0.790723 0.930806 0.528761 0.108971
H20   H     H_    0.858827 0.001609 0.565109 0.150642
H21   H     H_    0.720326 0.976718 0.463014 0.148080
C26   C     C_3   0.860772 0.836946 0.442137 -0.826339
H22   H     H_    0.795124 0.765759 0.401953 0.271143
H23   H     H_    0.906000 0.885916 0.355776 0.204140
H24   H     H_    0.933564 0.789702 0.503410 0.265733

loop_
_geom_bond_atom_site_label_1
_geom_bond_atom_site_label_2
_ccdc_geom_bond_type
C2    C22   A    
C11   N2    A    
C8    C22   S    
C6    C7    S    
C8    H2    S    
C14   H5    S    
C26   H24   S    
C16   O6    A    
C23   H16   S    
C11   H3    S    
C20   C21   D    
C25   C26   S    
C9    N1    A    
C2    C3    A    
N2    Zn1   S    
C7    C8    S    
O4    Zn2   S    
C13   C14   S    
C14   H4    S    
N1    Zn2   S    
C10   O9    S    
C16   O5    A    
O10   C25   S    
C12   O3    A    
C12   O4    A    
C7    H13   S    
C10   N1    A    
C5    C6    A    
C17   C19   S    
C17   O7    A    
C15   H7    S    
C25   H21   S    
C18   C20   S    
C24   H18   S    
O3    Zn1   S    
C26   H22   S    
O9    C23   S    
C4    H12   S    
C24   H19   S    
C23   C24   S    
O8    Zn2   S    
C10   C11   A    
C1    O1    A    
C15   H6    S    
C18   H1    S    
C6    C22   A    
C21   H10   S    
O6    Zn2   S    
C17   O8    A    
O1    Zn1   S    
C1    C2    S    
C8    H14   S    
O7    Zn1   S    
O2    Zn2   S    
C3    H11   S    
C14   C15   S    
C18   C19   D    
C5    C16   S    
C9    C13   A    
C1    O2    A    
C23   H15   S    
C25   H20   S    
C24   H17   S    
C19   H8    S    
O5    Zn1   S    
C12   C21   S    
C7    O10   S    
C26   H23   S    
C13   N2    A    
C3    C4    A    
C9    C15   S    
C4    C5    A    
C20   H9    S    
