data_mof_unit_pretest_133.cif
_audit_creation_date              2012-12-11T16:31:25-0500
_audit_creation_method            fapswitch 2.2
_symmetry_space_group_name_H-M    P1
_symmetry_Int_Tables_number       1
_space_group_crystal_system       triclinic
_cell_length_a                    6.938209
_cell_length_b                    18.249361
_cell_length_c                    20.247011
_cell_angle_alpha                 68.579559
_cell_angle_beta                  90.660435
_cell_angle_gamma                 90.668474
_cell_volume                      2386.31700198

loop_
_atom_site_label
_atom_site_type_symbol
_atom_type_description
_atom_site_fract_x
_atom_site_fract_y
_atom_site_fract_z
_atom_type_partial_charge
O1    O     O_R   0.488990 0.443920 0.942160 -0.533976
O2    O     O_R   0.823840 0.406530 0.087600 -0.539972
O3    O     O_R   0.999650 0.556080 0.057840 -0.528149
C1    C     C_R   0.655176 0.383318 0.115060 0.691010
O4    O     O_R   0.818390 0.434590 0.944530 -0.546582
O5    O     O_R   0.994160 0.584350 0.913750 -0.537647
C2    C     C_R   0.649268 0.421920 0.922902 0.721460
O6    O     O_R   0.494480 0.415650 0.086250 -0.537899
O7    O     O_3   0.662600 0.549100 0.990070 -0.361588
V1    V     V_3+5 0.935320 0.490890 0.001840 1.445312
O8    O     O_R   0.324240 0.593470 0.912400 -0.539168
C3    C     C_R   0.154933 0.616204 0.885236 0.692460
O9    O     O_R   0.329690 0.565410 0.055470 -0.543345
C4    C     C_R   0.162109 0.580166 0.075484 0.721152
V2    V     V_3+5 0.435990 0.509110 0.998160 1.448990
O10   O     O_3   0.158840 0.450900 0.009930 -0.370295
C5    C     C_3   0.958927 0.699401 0.245458 -0.311535
C6    C     C_3   0.318792 0.705106 0.247652 -0.444032
C7    C     C_3   0.305710 0.751728 0.298146 -0.275262
H1    H     H_    0.933073 0.713394 0.347990 0.187618
H2    H     H_    0.966065 0.636535 0.281429 0.155665
H3    H     H_    0.452895 0.722478 0.215875 0.187270
H4    H     H_    0.330056 0.641108 0.279800 0.168662
H5    H     H_    0.294982 0.709217 0.353813 0.191836
H6    H     H_    0.440435 0.785729 0.295949 0.201922
C8    C     C_1   0.110504 0.886508 0.368964 -0.018651
C9    C     C_3   0.140137 0.720678 0.197527 0.089085
C10   C     C_3   0.946304 0.751749 0.291033 -0.409561
C11   C     C_3   0.126669 0.806122 0.280121 0.063875
C12   C     C_3   0.127970 0.861258 0.199758 0.255995
C13   C     C_3   0.141758 0.811047 0.151117 0.276752
C14   C     C_1   0.117158 0.851006 0.328579 0.064802
C15   C     C_1   0.149861 0.670111 0.153906 0.028921
C16   C     C_1   0.155991 0.628837 0.118428 -0.136626
H7    H     H_    0.281565 0.824014 0.122610 0.125168
H8    H     H_    0.988590 0.893218 0.189011 0.140834
H9    H     H_    0.825691 0.704927 0.213306 0.203835
H10   H     H_    0.813332 0.787848 0.276398 0.192091
H11   H     H_    0.862469 0.515450 0.718113 0.138417
C17   C     C_R   0.222775 0.776695 0.870463 -0.168523
C18   C     C_R   0.224594 0.853652 0.867874 -0.055018
C19   C     C_R   0.186941 0.914870 0.804337 0.203607
C20   C     C_R   0.161243 0.900342 0.741762 -0.184365
C21   C     C_R   0.157589 0.822353 0.742475 0.029660
C22   C     C_R   0.179880 0.759499 0.809157 0.065367
C23   C     C_R   0.120828 0.806765 0.679181 -0.156172
C24   C     C_R   0.079481 0.726048 0.685856 -0.046129
C25   C     C_R   0.075359 0.665892 0.755500 0.030441
C26   C     C_R   0.142778 0.681446 0.815122 -0.133218
C27   C     C_R   0.034444 0.699767 0.628507 0.420607
C28   C     C_R   0.940723 0.627413 0.641527 -0.115193
C29   C     C_R   0.924787 0.572905 0.709230 -0.198093
C30   C     C_R   0.002920 0.589669 0.764941 -0.153973
H12   H     H_    0.244299 0.730865 0.921935 0.127278
H13   H     H_    0.246638 0.865336 0.916157 0.193962
H14   H     H_    0.133451 0.950559 0.693825 0.124255
H15   H     H_    0.894452 0.609786 0.598152 0.161480
H16   H     H_    0.000369 0.541813 0.815689 0.132227
H17   H     H_    0.424476 0.471132 0.301956 0.114312
C31   C     C_R   0.761654 0.225022 0.127549 -0.159856
C32   C     C_R   0.813035 0.149913 0.131500 -0.076149
C33   C     C_R   0.801664 0.086604 0.195578 -0.042667
C34   C     C_R   0.738665 0.097863 0.256239 -0.179107
C35   C     C_R   0.687139 0.173548 0.254213 0.063009
C36   C     C_R   0.699064 0.238616 0.188366 0.069597
C37   C     C_R   0.620780 0.184612 0.316018 -0.170234
C38   C     C_R   0.566528 0.260995 0.311697 0.064413
C39   C     C_R   0.578321 0.326054 0.245858 0.069400
C40   C     C_R   0.644760 0.315059 0.184022 -0.177980
C41   C     C_R   0.504106 0.274512 0.372575 -0.128873
C42   C     C_R   0.452501 0.349537 0.368678 -0.090984
C43   C     C_R   0.463576 0.412852 0.304591 -0.123935
C44   C     C_R   0.526635 0.401681 0.243894 -0.147287
H18   H     H_    0.770193 0.271965 0.076150 0.110343
H19   H     H_    0.860728 0.140706 0.084417 0.156732
H20   H     H_    0.840346 0.028277 0.198218 0.174711
H21   H     H_    0.729169 0.046332 0.304389 0.116769
H22   H     H_    0.495865 0.227594 0.423996 0.106773
H23   H     H_    0.404886 0.358660 0.415813 0.139346
H24   H     H_    0.535840 0.453232 0.195756 0.109274
O11   O     O_R   0.770890 0.084490 0.414040 -0.548948
O12   O     O_R   0.445980 0.065450 0.555510 -0.544653
O13   O     O_R   0.270670 0.915620 0.586180 -0.520582
C45   C     C_R   0.615695 0.081128 0.574916 0.707947
O14   O     O_R   0.441480 0.093500 0.412450 -0.548864
O15   O     O_R   0.266140 0.943870 0.442100 -0.516242
C46   C     C_R   0.610196 0.116485 0.384972 0.671560
O16   O     O_R   0.775410 0.056240 0.558120 -0.537315
O17   O     O_3   0.602660 0.950990 0.510100 -0.345108
V3    V     V_3+5 0.329740 0.009100 0.498130 1.520333
O18   O     O_R   0.936120 0.934420 0.444240 -0.525122
C47   C     C_R   0.103151 0.927748 0.418232 0.832674
O19   O     O_R   0.940610 0.906370 0.587310 -0.540138
C48   C     C_R   0.110177 0.877076 0.610234 0.817601
V4    V     V_3+5 0.829110 0.990690 0.501470 1.525845
O20   O     O_3   0.106080 0.049010 0.489880 -0.388534
C49   C     C_3   0.691597 0.308550 0.656454 0.046369
C50   C     C_3   0.438340 0.218405 0.731592 -0.366661
C51   C     C_3   0.436401 0.268214 0.779420 -0.330276
H25   H     H_    0.604331 0.407051 0.687370 0.148015
H26   H     H_    0.577201 0.334694 0.615922 0.140861
H27   H     H_    0.402469 0.156874 0.764506 0.205248
H28   H     H_    0.325946 0.239897 0.689489 0.187577
H29   H     H_    0.332022 0.317217 0.757430 0.161247
H30   H     H_    0.385919 0.231008 0.833399 0.173552
C52   C     C_1   0.641160 0.380154 0.874296 -0.179924
C53   C     C_3   0.639220 0.220411 0.698252 0.187884
C54   C     C_3   0.700848 0.355163 0.707758 -0.340909
C55   C     C_3   0.639945 0.301804 0.783962 0.224508
C56   C     C_3   0.783198 0.232343 0.810922 -0.310266
C57   C     C_3   0.785855 0.186035 0.760048 -0.288092
C58   C     C_1   0.639634 0.345654 0.833131 -0.075628
C59   C     C_1   0.633950 0.172014 0.652559 -0.002497
C60   C     C_1   0.626878 0.130782 0.616987 -0.126642
H31   H     H_    0.933419 0.188200 0.738647 0.194942
H32   H     H_    0.750432 0.123120 0.790479 0.192010
H33   H     H_    0.930902 0.254842 0.815108 0.153143
H34   H     H_    0.849225 0.378061 0.709550 0.168993
H35   H     H_    0.741546 0.191879 0.864989 0.177500
S1    S     S_3+6 0.310364 0.938138 0.177236 -0.017673
O21   O     O_2   0.509051 0.904159 0.193918 -0.345667
O22   O     O_2   0.297048 0.986067 0.099215 -0.283062
O23   O     O_3   0.272609 0.997827 0.222349 -0.538831
H36   H     H_    0.364162 0.042268 0.201987 0.362320
I1    I     I_    0.145650 0.027665 0.805557 -0.439869
S2    S     S_3+6 0.121989 0.739615 0.541883 -0.055070
O24   O     O_2   0.283034 0.797345 0.534364 -0.339917
O25   O     O_2   0.197825 0.674563 0.520621 -0.351323
O26   O     O_3   0.930508 0.779181 0.490330 -0.530295
H37   H     H_    0.864774 0.734827 0.481985 0.336363
I2    I     I_    0.955042 0.324193 0.596948 -0.500171
S3    S     S_3+6 0.958566 0.840495 0.082096 0.010682
O27   O     O_2   0.987322 0.926046 0.037637 -0.269081
O28   O     O_2   0.974546 0.793403 0.035102 -0.351982
O29   O     O_3   0.736858 0.828228 0.117289 -0.507196
H38   H     H_    0.647567 0.846110 0.076044 0.384713

loop_
_geom_bond_atom_site_label_1
_geom_bond_atom_site_label_2
_ccdc_geom_bond_type
C8    C14   T    
O19   C48   A    
C41   H22   S    
C18   C19   A    
V4    O20   S    
C1    O6    A    
C42   H23   S    
C3    C26   S    
O23   H36   S    
C52   C58   T    
C32   H19   S    
C11   C12   S    
C10   C11   S    
O26   H37   S    
C11   C14   S    
S3    O29   S    
O5    C3    A    
C12   C13   S    
O11   V4    S    
C8    C47   S    
C50   H28   S    
C51   C55   S    
C54   C55   S    
C6    C7    S    
C56   C57   S    
C53   C59   S    
C19   I1    S    
C49   C54   S    
O8    V2    S    
C18   H13   S    
S1    O22   D    
C39   C40   A    
C45   C60   S    
C57   H32   S    
O1    V2    S    
C10   H10   S    
O7    V1    S    
S1    O23   S    
H17   C43   S    
C51   H29   S    
O16   V4    S    
O19   V4    S    
C6    H3    S    
O9    C4    A    
C33   H20   S    
C17   C22   A    
C56   H33   S    
C1    C40   S    
C21   C23   A    
C15   C16   T    
C24   C27   A    
O14   C46   A    
C25   C30   A    
C51   H30   S    
H25   C54   S    
C21   C22   A    
C9    C13   S    
C38   C39   A    
C5    C9    S    
C54   H34   S    
O29   H38   S    
C37   C38   A    
C49   I2    S    
O15   V3    S    
C55   C58   S    
O18   C47   A    
O4    C2    A    
S3    O27   D    
H1    C10   S    
S2    O26   S    
C39   C44   A    
C50   H27   S    
O13   C48   A    
C9    C15   S    
C50   C53   S    
C28   C29   A    
C31   C32   A    
C35   C37   A    
O17   V4    S    
O2    C1    A    
C20   C21   A    
O5    V1    S    
C13   S3    S    
C6    H4    S    
C24   C25   A    
C23   C48   S    
C22   C26   A    
O14   V3    S    
C33   C34   A    
C27   C28   A    
C2    C52   S    
C5    H9    S    
C41   C42   A    
O3    C4    A    
C28   H15   S    
C27   S2    S    
C17   C18   A    
C31   C36   A    
O6    V2    S    
O12   C45   A    
O9    V2    S    
C13   H7    S    
C19   C20   A    
O2    V1    S    
C37   C46   S    
C29   C30   A    
C59   C60   T    
C34   H21   S    
O13   V3    S    
C23   C24   A    
C25   C26   A    
S2    O25   D    
O1    C2    A    
C5    C10   S    
C53   C57   S    
C6    C9    S    
C45   O16   A    
C43   C44   A    
C56   H35   S    
C4    C16   S    
C30   H16   S    
V3    O20   S    
C17   H12   S    
O12   V3    S    
C12   H8    S    
C38   C41   A    
C35   C36   A    
C7    H5    S    
O7    V2    S    
C42   C43   A    
O3    V1    S    
O15   C47   A    
C55   C56   S    
O11   C46   A    
V1    O10   S    
C12   S1    S    
S2    O24   D    
C36   C40   A    
C31   H18   S    
C44   H24   S    
H11   C29   S    
C32   C33   A    
C7    H6    S    
C5    H2    S    
O18   V4    S    
C34   C35   A    
C49   C53   S    
C20   H14   S    
O4    V1    S    
S3    O28   D    
C50   C51   S    
S1    O21   D    
C57   H31   S    
O17   V3    S    
C49   H26   S    
V2    O10   S    
O8    C3    A    
C7    C11   S    
