data_mof_unit_pretest_1897.cif
_audit_creation_date              2012-12-10T17:10:16-0500
_audit_creation_method            fapswitch 2.2
_symmetry_space_group_name_H-M    P1
_symmetry_Int_Tables_number       1
_space_group_crystal_system       triclinic
_cell_length_a                    18.444158
_cell_length_b                    18.444177
_cell_length_c                    32.831668
_cell_angle_alpha                 90.000273
_cell_angle_beta                  90.000017
_cell_angle_gamma                 89.998655
_cell_volume                      11168.9169731

loop_
_atom_site_label
_atom_site_type_symbol
_atom_type_description
_atom_site_fract_x
_atom_site_fract_y
_atom_site_fract_z
_atom_type_partial_charge
C1    C     C_R   1.000000 0.500000 0.895967 0.500895
C2    C     C_1   0.500000 0.000001 0.231192 0.063227
C3    C     C_R   0.303121 0.804200 0.999481 0.028767
C4    C     C_R   0.695791 0.196889 0.499476 0.028694
C5    C     C_R   0.803119 0.695798 0.499480 0.028775
C6    C     C_R   0.304203 0.803118 0.499479 0.028766
C7    C     C_R   0.196884 0.304205 0.499477 0.028752
C8    C     C_R   0.304206 0.196885 0.499475 0.028754
C9    C     C_R   0.196882 0.695798 0.499479 0.028764
C10   C     C_R   0.695798 0.803119 0.499480 0.028774
C11   C     C_R   0.803116 0.304205 0.499475 0.028697
C12   C     C_R   0.238765 0.707443 0.034430 0.086565
C13   C     C_1   0.500001 0.000001 0.731192 0.063250
C14   C     C_R   0.292465 0.238673 0.034455 0.086563
C15   C     C_R   0.761610 0.292180 0.034527 0.086637
C16   C     C_R   0.707427 0.761220 0.034425 0.086577
C17   C     C_R   0.761220 0.707427 0.034425 0.086547
C18   C     C_R   0.707820 0.238389 0.034528 0.086628
C19   C     C_R   0.238672 0.292465 0.034454 0.086592
C20   C     C_R   0.292558 0.761235 0.034431 0.086571
C21   C     C_R   0.738546 0.207663 0.534485 0.086606
C22   C     C_R   0.792562 0.738770 0.534426 0.086575
C23   C     C_R   0.261243 0.792549 0.534430 0.086571
C24   C     C_1   0.999999 0.499999 0.731192 0.063252
C25   C     C_R   0.207507 0.261298 0.534441 0.086566
C26   C     C_R   0.261299 0.207506 0.534440 0.086590
C27   C     C_R   0.207451 0.738757 0.534430 0.086575
C28   C     C_R   0.738770 0.792563 0.534426 0.086558
C29   C     C_R   0.792338 0.261453 0.534485 0.086598
C30   C     C_1   0.999999 0.500000 0.149187 0.052306
C31   C     C_1   0.500000 0.000001 0.149187 0.052306
C32   C     C_1   0.500000 0.000001 0.649187 0.052297
C33   C     C_1   1.000000 0.499999 0.649187 0.052297
C34   C     C_1   0.500001 0.000001 0.768783 0.069636
C35   C     C_1   0.999999 0.499999 0.768783 0.069639
C36   C     C_1   0.999999 0.499999 0.268783 0.069597
C37   C     C_1   0.500000 0.000001 0.268783 0.069592
C38   C     C_1   0.500001 0.000000 0.813198 0.040960
C39   C     C_1   1.000000 0.499999 0.813198 0.040965
C40   C     C_1   0.999999 0.499999 0.313198 0.040907
C41   C     C_R   0.500000 1.000000 0.895967 0.500896
C42   C     C_1   0.500000 0.000001 0.313198 0.040899
C43   C     C_1   0.500000 1.000000 0.850790 0.061553
C44   C     C_1   1.000000 0.499999 0.850790 0.061555
C45   C     C_1   1.000000 0.499999 0.350790 0.061515
C46   C     C_1   0.500000 0.000001 0.350790 0.061508
C47   C     C_R   1.000000 0.500000 0.104014 0.522373
C48   C     C_R   0.500000 0.000000 0.104014 0.522373
C49   C     C_R   0.500000 0.000000 0.604014 0.522371
C50   C     C_R   0.000000 0.500000 0.604014 0.522370
C51   C     C_R   0.859451 0.640377 0.000048 0.525774
C52   C     C_R   0.500000 0.000000 0.395967 0.500895
C53   C     C_R   0.359624 0.859450 0.000048 0.525793
C54   C     C_R   0.140547 0.359621 0.000045 0.525777
C55   C     C_R   0.640383 0.140544 0.000043 0.525758
C56   C     C_R   0.140549 0.640377 0.000047 0.525788
C57   C     C_R   0.640377 0.859451 0.000047 0.525784
C58   C     C_R   0.859457 0.359616 0.000041 0.525763
C59   C     C_R   0.359621 0.140547 0.000046 0.525765
C60   C     C_R   0.359456 0.140381 0.500043 0.525777
C61   C     C_R   0.859620 0.359453 0.500045 0.525769
C62   C     C_R   0.640548 0.859623 0.500047 0.525778
C63   C     C_R   1.000000 0.500000 0.395967 0.500897
C64   C     C_R   0.140378 0.640548 0.500047 0.525790
C65   C     C_R   0.640545 0.140381 0.500044 0.525767
C66   C     C_R   0.140378 0.359453 0.500046 0.525774
C67   C     C_R   0.359452 0.859622 0.500046 0.525790
C68   C     C_R   0.859623 0.640548 0.500047 0.525784
C69   C     C_R   0.161874 0.731214 0.929287 -0.122771
C70   C     C_R   0.268963 0.162050 0.929227 -0.122733
C71   C     C_R   0.837388 0.269514 0.929047 -0.122683
C72   C     C_R   0.731233 0.838146 0.929294 -0.122813
C73   C     C_R   0.838164 0.731245 0.929298 -0.122745
C74   C     C_1   0.999999 0.500000 0.186777 0.025938
C75   C     C_R   0.730497 0.162590 0.929055 -0.122641
C76   C     C_R   0.162077 0.268988 0.929215 -0.122810
C77   C     C_R   0.268790 0.838124 0.929284 -0.122791
C78   C     C_R   0.662293 0.230800 0.429154 -0.122696
C79   C     C_R   0.768782 0.661866 0.429289 -0.122790
C80   C     C_R   0.338113 0.768802 0.429280 -0.122773
C81   C     C_R   0.231078 0.337995 0.429244 -0.122742
C82   C     C_R   0.337995 0.231081 0.429242 -0.122760
C83   C     C_R   0.231193 0.661891 0.429279 -0.122763
C84   C     C_R   0.661863 0.768779 0.429289 -0.122750
C85   C     C_1   0.500000 0.000001 0.186777 0.025937
C86   C     C_R   0.769231 0.337681 0.429143 -0.122705
C87   C     C_R   0.171880 0.774776 0.895040 0.452049
C88   C     C_R   0.225511 0.172167 0.894943 0.452080
C89   C     C_R   0.826993 0.226340 0.894684 0.452060
C90   C     C_R   0.774812 0.828154 0.895053 0.451894
C91   C     C_R   0.828167 0.774819 0.895056 0.452070
C92   C     C_R   0.773663 0.172987 0.894689 0.452118
C93   C     C_R   0.172188 0.225530 0.894936 0.451914
C94   C     C_R   0.225226 0.828117 0.895038 0.451995
C95   C     C_R   0.672543 0.274121 0.394834 0.452069
C96   C     C_1   0.500000 0.000001 0.686777 0.025940
C97   C     C_R   0.725215 0.671868 0.395045 0.451963
C98   C     C_R   0.328097 0.725251 0.395030 0.452060
C99   C     C_R   0.274562 0.327912 0.394975 0.452081
C100  C     C_R   0.327908 0.274569 0.394974 0.451990
C101  C     C_R   0.274749 0.671908 0.395030 0.452020
C102  C     C_R   0.671868 0.725213 0.395045 0.452074
C103  C     C_R   0.725903 0.327444 0.394827 0.452103
C104  C     C_R   0.260014 0.794205 0.964299 -0.076288
C105  C     C_R   0.205890 0.260108 0.964265 -0.076268
C106  C     C_R   0.739628 0.206151 0.964182 -0.076306
C107  C     C_1   1.000000 0.499999 0.686777 0.025941
C108  C     C_R   0.794224 0.740003 0.964305 -0.076293
C109  C     C_R   0.740000 0.794219 0.964304 -0.076280
C110  C     C_R   0.793842 0.260374 0.964179 -0.076301
C111  C     C_R   0.260103 0.205883 0.964268 -0.076280
C112  C     C_R   0.205794 0.739987 0.964300 -0.076296
C113  C     C_R   0.760230 0.293989 0.464229 -0.076306
C114  C     C_R   0.705787 0.760007 0.464301 -0.076300
C115  C     C_R   0.239980 0.705800 0.464296 -0.076296
C116  C     C_R   0.294145 0.239926 0.464277 -0.076293
C117  C     C_R   0.239924 0.294146 0.464278 -0.076306
C118  C     C_1   0.999999 0.499999 0.231192 0.063229
C119  C     C_R   0.294201 0.760018 0.464296 -0.076302
C120  C     C_R   0.760008 0.705788 0.464301 -0.076290
C121  C     C_R   0.706004 0.239779 0.464232 -0.076306
C122  C     C_R   0.195799 0.696881 0.999481 0.028765
C123  C     C_R   0.303116 0.195794 0.999479 0.028737
C124  C     C_R   0.804210 0.303109 0.999471 0.028649
C125  C     C_R   0.696879 0.804200 0.999480 0.028776
C126  C     C_R   0.804202 0.696881 0.999481 0.028775
C127  C     C_R   0.696892 0.195787 0.999473 0.028648
C128  C     C_R   0.195798 0.303118 0.999477 0.028740
F1    F     F_    0.129168 0.765429 0.861824 -0.528807
F2    F     F_    0.734567 0.629157 0.361829 -0.528980
F3    F     F_    0.370799 0.734613 0.361811 -0.528810
F4    F     F_    0.265128 0.370541 0.361733 -0.528885
F5    F     F_    0.370537 0.265139 0.361734 -0.529044
F6    F     F_    0.265385 0.629211 0.361811 -0.528875
F7    F     F_    0.629159 0.734567 0.361830 -0.528823
F8    F     F_    0.735508 0.369905 0.361532 -0.529014
F9    F     F_    0.234950 0.129548 0.861697 -0.528900
F10   F     F_    0.869312 0.236080 0.861345 -0.529259
F11   F     F_    0.765467 0.870870 0.861839 -0.529096
F12   F     F_    0.870899 0.765488 0.861846 -0.528814
F13   F     F_    0.763943 0.130647 0.861359 -0.529170
F14   F     F_    0.129611 0.235015 0.861677 -0.529200
F15   F     F_    0.234575 0.870826 0.861821 -0.528886
F16   F     F_    0.630053 0.264557 0.361551 -0.529065
H1    H     H_    0.119082 0.691161 0.928103 0.152633
H2    H     H_    0.808840 0.619076 0.428104 0.152614
H3    H     H_    0.380898 0.808860 0.428094 0.152645
H4    H     H_    0.191024 0.380784 0.428055 0.152705
H5    H     H_    0.380789 0.191019 0.428048 0.152685
H6    H     H_    0.191134 0.619102 0.428094 0.152640
H7    H     H_    0.619073 0.808839 0.428103 0.152632
H8    H     H_    0.809295 0.380465 0.427945 0.152879
H9    H     H_    0.309001 0.119247 0.928044 0.152711
H10   H     H_    0.880177 0.309567 0.927845 0.153010
H11   H     H_    0.691175 0.880933 0.928108 0.152597
H12   H     H_    0.880963 0.691193 0.928115 0.152613
H13   H     H_    0.690465 0.119780 0.927864 0.152996
H14   H     H_    0.119307 0.309061 0.928019 0.152723
H15   H     H_    0.308847 0.880913 0.928099 0.152626
H16   H     H_    0.619485 0.190769 0.427967 0.152831
I1    I     I_    0.223766 0.638983 0.086609 -0.169050
I2    I     I_    0.861031 0.723778 0.586601 -0.168999
I3    I     I_    0.276250 0.861001 0.586612 -0.169032
I4    I     I_    0.139129 0.276375 0.586646 -0.169023
I5    I     I_    0.276374 0.139123 0.586642 -0.168925
I6    I     I_    0.138999 0.723751 0.586611 -0.169006
I7    I     I_    0.723780 0.861036 0.586600 -0.169092
I8    I     I_    0.860506 0.276728 0.586761 -0.168815
I9    I     I_    0.360804 0.223556 0.086677 -0.169108
I10   I     I_    0.777084 0.360138 0.086874 -0.168838
I11   I     I_    0.638943 0.776199 0.086596 -0.168999
I12   I     I_    0.776200 0.638945 0.086596 -0.169166
I13   I     I_    0.639865 0.222911 0.086875 -0.168888
I14   I     I_    0.223553 0.360800 0.086677 -0.168942
I15   I     I_    0.361020 0.776235 0.086609 -0.169003
I16   I     I_    0.723271 0.139496 0.586760 -0.168786
O1    O     O_3   0.000000 0.500000 0.999990 -0.450303
O2    O     O_R   0.000000 0.560760 0.415980 -0.528476
O3    O     O_R   0.439240 0.000000 0.415980 -0.528470
O4    O     O_R   0.000000 0.439240 0.415980 -0.528439
O5    O     O_R   1.000000 0.560700 0.083990 -0.508714
O6    O     O_R   0.439300 0.000000 0.083990 -0.508688
O7    O     O_R   1.000000 0.439300 0.083990 -0.508599
O8    O     O_R   0.560700 0.000000 0.083990 -0.508626
O9    O     O_R   0.500000 0.060700 0.583990 -0.508624
O10   O     O_R   0.939300 0.500000 0.583990 -0.508645
O11   O     O_R   0.500000 0.939300 0.583990 -0.508705
O12   O     O_3   0.500000 1.000000 0.999990 -0.450304
O13   O     O_R   0.060700 0.500000 0.583990 -0.508687
O14   O     O_R   0.853840 0.585420 0.977960 -0.529274
O15   O     O_R   0.414580 0.853840 0.977960 -0.529283
O16   O     O_R   0.146160 0.414580 0.977960 -0.529355
O17   O     O_R   0.585420 0.146160 0.977960 -0.529513
O18   O     O_R   0.146160 0.585420 0.977960 -0.529280
O19   O     O_R   0.585420 0.853840 0.977960 -0.529277
O20   O     O_R   0.853840 0.414580 0.977960 -0.529523
O21   O     O_R   0.414580 0.146160 0.977960 -0.529339
O22   O     O_R   0.353840 0.085420 0.477960 -0.529326
O23   O     O_3   0.500000 0.000000 0.499990 -0.450305
O24   O     O_R   0.914580 0.353840 0.477960 -0.529434
O25   O     O_R   0.646160 0.914580 0.477960 -0.529284
O26   O     O_R   0.085420 0.646160 0.477960 -0.529288
O27   O     O_R   0.646160 0.085420 0.477960 -0.529411
O28   O     O_R   0.085420 0.353840 0.477960 -0.529328
O29   O     O_R   0.353840 0.914580 0.477960 -0.529286
O30   O     O_R   0.914580 0.646160 0.477960 -0.529281
O31   O     O_R   0.085460 0.353830 0.022010 -0.518218
O32   O     O_R   0.646170 0.085460 0.022010 -0.518137
O33   O     O_R   0.914540 0.646170 0.022010 -0.518285
O34   O     O_3   0.000000 0.500000 0.499990 -0.450304
O35   O     O_R   0.353830 0.914540 0.022010 -0.518274
O36   O     O_R   0.914540 0.353830 0.022010 -0.518123
O37   O     O_R   0.353830 0.085460 0.022010 -0.518245
O38   O     O_R   0.085460 0.646170 0.022010 -0.518279
O39   O     O_R   0.646170 0.914540 0.022010 -0.518265
O40   O     O_R   0.585460 0.853830 0.522010 -0.518280
O41   O     O_R   0.146170 0.585460 0.522010 -0.518271
O42   O     O_R   0.414540 0.146170 0.522010 -0.518239
O43   O     O_R   0.853830 0.414540 0.522010 -0.518186
O44   O     O_R   0.414540 0.853830 0.522010 -0.518274
O45   O     O_R   0.060760 0.500000 0.915980 -0.528474
O46   O     O_R   0.853830 0.585460 0.522010 -0.518268
O47   O     O_R   0.585460 0.146170 0.522010 -0.518192
O48   O     O_R   0.146170 0.414540 0.522010 -0.518251
O49   O     O_R   0.500000 0.060760 0.915980 -0.528427
O50   O     O_R   0.939240 0.500000 0.915980 -0.528446
O51   O     O_R   0.500000 0.939240 0.915980 -0.528487
O52   O     O_R   0.560760 0.000000 0.415980 -0.528446
Zn1   Zn    Zn3+2 0.000000 0.586740 0.031450 1.008356
Zn2   Zn    Zn3+2 0.500000 0.913250 0.968520 0.982905
Zn3   Zn    Zn3+2 0.086750 0.500000 0.968520 0.982889
Zn4   Zn    Zn3+2 0.500000 0.086750 0.968520 0.982841
Zn5   Zn    Zn3+2 0.413250 1.000000 0.468520 0.982897
Zn6   Zn    Zn3+2 0.000000 0.413250 0.468520 0.982868
Zn7   Zn    Zn3+2 0.586750 1.000000 0.468520 0.982881
Zn8   Zn    Zn3+2 0.000000 0.586750 0.468520 0.982907
Zn9   Zn    Zn3+2 0.413260 1.000000 0.031450 1.008388
Zn10  Zn    Zn3+2 0.000000 0.413260 0.031450 1.008509
Zn11  Zn    Zn3+2 0.586740 1.000000 0.031450 1.008470
Zn12  Zn    Zn3+2 0.500000 0.086740 0.531450 1.008468
Zn13  Zn    Zn3+2 0.913260 0.500000 0.531450 1.008446
Zn14  Zn    Zn3+2 0.500000 0.913260 0.531450 1.008368
Zn15  Zn    Zn3+2 0.086740 0.500000 0.531450 1.008392
Zn16  Zn    Zn3+2 0.913250 0.500000 0.968520 0.982851

loop_
_geom_bond_atom_site_label_1
_geom_bond_atom_site_label_2
_ccdc_geom_bond_type
C1    O50   A    
C3    C104  A    
O16   Zn3   S    
C48   O6    A    
C41   O51   A    
C26   I5    S    
O14   Zn16  S    
C76   C105  A    
C31   C85   T    
C81   C117  A    
C15   C18   A    
C9    C64   S    
C84   C102  A    
C7    C117  A    
C33   C107  T    
O42   Zn12  S    
C18   C127  A    
O3    Zn5   S    
C70   C88   A    
O23   Zn12  S    
C90   F11   S    
C17   I12   S    
C101  F6    S    
C108  C109  A    
C112  C122  A    
C55   O32   A    
C76   H14   S    
C63   O2    A    
C54   O16   A    
C99   F4    S    
O20   Zn16  S    
C86   C113  A    
C94   F15   S    
C29   I8    S    
C1    O45   A    
C67   O44   A    
O24   Zn6   S    
O34   Zn15  S    
O37   Zn9   S    
O47   Zn12  S    
O23   Zn5   S    
O7    Zn10  S    
C57   C125  S    
C4    C65   S    
C22   I2    S    
C69   C112  A    
C17   C126  A    
O25   Zn7   S    
O9    Zn12  S    
C32   C49   S    
C25   I4    S    
C10   C28   A    
C70   H9    S    
C87   C94   A    
C46   C52   S    
C77   C94   A    
C71   C110  A    
C69   H1    S    
C116  C117  A    
C61   O24   A    
C2    C85   S    
O30   Zn8   S    
C42   C46   T    
C37   C42   S    
C78   C121  A    
C50   O13   A    
O44   Zn14  S    
C102  F7    S    
O52   Zn7   S    
O28   Zn6   S    
O12   Zn9   S    
C28   I7    S    
C110  C124  A    
C12   I1    S    
C72   C109  A    
C52   O52   A    
C80   H3    S    
C19   C128  A    
C57   O39   A    
O5    Zn1   S    
C16   C17   A    
C95   C103  A    
C49   O11   A    
C98   F3    S    
O13   Zn15  S    
O35   Zn9   S    
C16   I11   S    
C23   C27   A    
C36   C118  T    
C16   C125  A    
O8    Zn11  S    
C56   O38   A    
C97   C102  A    
O31   Zn10  S    
C60   O22   A    
C83   H6    S    
C66   O28   A    
C75   H13   S    
C105  C111  A    
C80   C119  A    
O4    Zn6   S    
C95   F16   S    
C72   H11   S    
C22   C28   A    
O40   Zn14  S    
C41   C43   S    
C12   C20   A    
C10   C62   S    
C82   C100  A    
C14   I9    S    
O12   Zn2   S    
C86   C103  A    
C14   C19   A    
O32   Zn11  S    
O46   Zn13  S    
C5    C68   S    
C79   H2    S    
C23   I3    S    
C59   C123  S    
C8    C26   A    
C74   C118  S    
O1    Zn1   S    
C41   O49   A    
C24   C35   T    
C15   C124  A    
C5    C22   A    
C13   C96   S    
C111  C123  A    
O49   Zn4   S    
O6    Zn9   S    
C83   C115  A    
C30   C47   S    
C36   C40   S    
C73   C91   A    
C12   C122  A    
C47   O7    A    
C10   C114  A    
C70   C111  A    
C48   O8    A    
C73   C108  A    
C5    C120  A    
C25   C26   A    
C71   H10   S    
C54   C128  S    
C106  C127  A    
C45   C63   S    
C63   O4    A    
O43   Zn13  S    
O19   Zn2   S    
C9    C115  A    
C35   C39   S    
C103  F8    S    
O41   Zn15  S    
C62   O25   A    
O27   Zn7   S    
C60   O42   A    
C86   H8    S    
C76   C93   A    
C72   C90   A    
C51   O33   A    
C1    C44   S    
O50   Zn16  S    
C99   C100  A    
C65   O27   A    
C78   C95   A    
C53   O35   A    
C21   I16   S    
C79   C120  A    
O45   Zn3   S    
C49   O9    A    
C3    C20   A    
C24   C107  S    
O33   Zn1   S    
C89   C92   A    
C4    C21   A    
C92   F13   S    
C53   O15   A    
C11   C29   A    
C51   O14   A    
C71   C89   A    
C77   H15   S    
C56   O18   A    
C64   O41   A    
C109  C125  A    
C6    C67   S    
C32   C96   T    
C57   O19   A    
C54   O31   A    
C115  C119  A    
C31   C48   S    
C68   O30   A    
C67   O29   A    
O39   Zn11  S    
O51   Zn2   S    
C50   O10   A    
C75   C92   A    
O23   Zn7   S    
C65   O47   A    
C100  F5    S    
C9    C27   A    
C66   O48   A    
C104  C112  A    
C106  C110  A    
O21   Zn4   S    
C78   H16   S    
O34   Zn8   S    
C64   O26   A    
C88   C93   A    
C84   C114  A    
C14   C123  A    
C83   C101  A    
C105  C128  A    
C80   C98   A    
C6    C119  A    
C34   C38   S    
C51   C126  S    
C62   O40   A    
O18   Zn3   S    
C79   C97   A    
C68   O46   A    
C61   O43   A    
O34   Zn13  S    
C55   C127  S    
C11   C61   S    
O22   Zn5   S    
C69   C87   A    
C97   F2    S    
O10   Zn13  S    
C59   O37   A    
O48   Zn15  S    
C39   C44   T    
C58   O36   A    
C98   C101  A    
C81   C99   A    
C58   C124  S    
C47   O5    A    
C7    C25   A    
O1    Zn3   S    
C108  C126  A    
C87   F1    S    
O29   Zn5   S    
C33   C50   S    
C19   I14   S    
C82   C116  A    
C13   C34   T    
O12   Zn11  S    
C84   H7    S    
C8    C60   S    
C7    C66   S    
O2    Zn8   S    
C81   H4    S    
C3    C53   S    
C2    C37   T    
C90   C91   A    
C21   C29   A    
C59   O21   A    
O15   Zn2   S    
C30   C74   T    
C6    C23   A    
C73   H12   S    
C58   O20   A    
C4    C121  A    
O34   Zn6   S    
C11   C113  A    
C114  C120  A    
C88   F9    S    
C52   O3    A    
C82   H5    S    
C55   O17   A    
C8    C116  A    
C27   I6    S    
O26   Zn8   S    
C91   F12   S    
C20   I15   S    
C18   I13   S    
C38   C43   T    
O1    Zn16  S    
C113  C121  A    
C40   C45   T    
C15   I10   S    
C75   C106  A    
C89   F10   S    
C77   C104  A    
O17   Zn4   S    
O11   Zn14  S    
O12   Zn4   S    
O38   Zn1   S    
O36   Zn10  S    
C93   F14   S    
O23   Zn14  S    
C56   C122  S    
O1    Zn10  S    
