data_mof_unit_pretest_1396.cif
_audit_creation_date              2012-12-11T16:17:51-0500
_audit_creation_method            fapswitch 2.2
_symmetry_space_group_name_H-M    P1
_symmetry_Int_Tables_number       1
_space_group_crystal_system       triclinic
_cell_length_a                    6.923703
_cell_length_b                    28.792644
_cell_length_c                    32.04657
_cell_angle_alpha                 101.152439
_cell_angle_beta                  89.465045
_cell_angle_gamma                 90.510053
_cell_volume                      6267.46071782

loop_
_atom_site_label
_atom_site_type_symbol
_atom_type_description
_atom_site_fract_x
_atom_site_fract_y
_atom_site_fract_z
_atom_type_partial_charge
O1    O     O_R   0.494350 0.453160 0.452490 -0.535386
O2    O     O_R   0.820990 0.455850 0.538220 -0.545090
O3    O     O_R   0.994300 0.546840 0.547510 -0.541827
C1    C     C_R   0.651165 0.445709 0.551758 0.695826
O4    O     O_R   0.823860 0.447580 0.452250 -0.537316
O5    O     O_R   0.997190 0.538510 0.460920 -0.530717
C2    C     C_R   0.655076 0.434894 0.436304 0.740628
O6    O     O_R   0.491450 0.461490 0.539080 -0.541713
O7    O     O_3   0.661790 0.529840 0.502950 -0.361702
V1    V     V_3+5 0.935470 0.494460 0.499450 1.438922
O8    O     O_R   0.327090 0.544150 0.461780 -0.525170
C3    C     C_R   0.159621 0.553505 0.447580 0.751159
O9    O     O_R   0.324210 0.552420 0.547750 -0.543374
C4    C     C_R   0.154999 0.565465 0.563551 0.684353
V2    V     V_3+5 0.435840 0.505540 0.500550 1.448999
O10   O     O_3   0.159650 0.470160 0.497050 -0.371520
C5    C     C_R   0.963597 0.619721 0.619848 -0.149115
H1    H     H_    0.830718 0.603888 0.606033 0.120066
C6    C     C_R   0.951975 0.655716 0.656081 -0.122817
H2    H     H_    0.810631 0.666446 0.668956 0.133831
C7    C     C_R   0.120084 0.677388 0.675450 0.019084
C8    C     C_R   0.300306 0.662080 0.657395 -0.119299
H3    H     H_    0.432971 0.677880 0.671339 0.139806
C9    C     C_R   0.311975 0.626039 0.621104 -0.150293
H4    H     H_    0.453205 0.615156 0.608243 0.118589
C10   C     C_R   0.143715 0.604283 0.601832 -0.049972
N1    N     N_R   0.269188 0.736389 0.733226 -0.269428
N2    N     N_R   0.257470 0.770378 0.767936 -0.274023
C11   C     C_R   0.083246 0.785110 0.785304 0.522528
N3    N     N_R   0.921245 0.764253 0.766304 -0.269491
N4    N     N_R   0.932963 0.730263 0.731595 -0.274896
C12   C     C_R   0.107189 0.715524 0.714232 0.520931
C13   C     C_R   0.890146 0.838452 0.842215 -0.117108
H5    H     H_    0.757455 0.822771 0.828182 0.139120
C14   C     C_R   0.878521 0.874302 0.878649 -0.137860
H6    H     H_    0.737301 0.885187 0.891513 0.118612
C15   C     C_R   0.046824 0.895854 0.898067 -0.046918
C16   C     C_R   0.226923 0.880503 0.879994 -0.139271
H7    H     H_    0.359818 0.896239 0.893886 0.120917
C17   C     C_R   0.238506 0.844702 0.843616 -0.119119
H8    H     H_    0.379845 0.833998 0.830722 0.134506
C18   C     C_R   0.070368 0.823156 0.824152 0.017518
C19   C     C_R   0.115660 0.659306 0.283819 0.588149
N5    N     N_R   0.106594 0.677861 0.326431 -0.559418
C20   C     C_R   0.085717 0.725664 0.340703 0.626906
C21   C     C_R   0.060555 0.756967 0.311695 -0.131656
C22   C     C_R   0.081357 0.738234 0.267783 -0.046726
C23   C     C_R   0.108929 0.689022 0.253880 -0.012257
C24   C     C_R   0.019255 0.806016 0.324875 0.168080
C25   C     C_R   0.023374 0.836590 0.294956 0.167924
C26   C     C_R   0.044625 0.817573 0.250561 -0.133588
C27   C     C_R   0.073188 0.768229 0.237435 -0.045856
C28   C     C_R   0.095977 0.748505 0.193661 -0.006043
C29   C     C_R   0.123274 0.699606 0.180630 -0.136346
C30   C     C_R   0.128617 0.670256 0.210291 -0.130700
C31   C     C_R   0.034605 0.845460 0.218277 0.626538
N6    N     N_R   0.060228 0.825427 0.176204 -0.566238
C32   C     C_R   0.090827 0.778022 0.163586 0.572390
O11   O     O_2   0.131083 0.612076 0.270344 -0.502272
O12   O     O_2   0.099144 0.742687 0.382740 -0.486721
O13   O     O_2   0.996882 0.892030 0.228173 -0.487118
O14   O     O_2   0.114464 0.759393 0.121870 -0.516293
H9    H     H_    0.140342 0.683703 0.147309 0.176744
H10   H     H_    0.149788 0.632704 0.198860 0.180470
C33   C     C_R   0.223228 0.868149 0.125755 -0.083273
H11   H     H_    0.361405 0.856024 0.134833 0.115033
C34   C     C_R   0.216469 0.897431 0.095588 -0.192259
H12   H     H_    0.350809 0.907209 0.081903 0.127777
C35   C     C_R   0.038545 0.913862 0.083330 -0.056182
C36   C     C_R   0.867750 0.900059 0.102045 -0.191774
H13   H     H_    0.728334 0.912070 0.093577 0.126146
C37   C     C_R   0.875006 0.870992 0.132382 -0.078337
H14   H     H_    0.742268 0.861033 0.146593 0.117361
C38   C     C_R   0.052713 0.854892 0.144484 0.381698
C39   C     C_R   0.974598 0.644621 0.386703 -0.061023
H15   H     H_    0.847144 0.666245 0.387147 0.145500
C40   C     C_R   0.989505 0.614562 0.416004 -0.193262
H16   H     H_    0.873256 0.614200 0.438798 0.156975
C41   C     C_R   0.151695 0.585392 0.416089 -0.102843
C42   C     C_R   0.299929 0.587003 0.385511 0.112871
C43   C     C_R   0.284875 0.617888 0.356756 -0.089725
H17   H     H_    0.399515 0.619048 0.333755 0.157696
C44   C     C_R   0.122343 0.646730 0.356856 0.323982
C45   C     C_R   0.553983 0.225452 0.838620 0.581510
N7    N     N_R   0.557108 0.177163 0.825267 -0.556049
C46   C     C_R   0.565629 0.157394 0.782687 0.587462
C47   C     C_R   0.574856 0.186270 0.751877 -0.036928
C48   C     C_R   0.572150 0.235810 0.765177 -0.017048
C49   C     C_R   0.560299 0.255689 0.808864 -0.033288
C50   C     C_R   0.587166 0.166795 0.708173 -0.128922
C51   C     C_R   0.597835 0.196099 0.678144 -0.131770
C52   C     C_R   0.595608 0.245621 0.691044 -0.033934
C53   C     C_R   0.581896 0.265534 0.734718 -0.015601
C54   C     C_R   0.578436 0.315101 0.748003 -0.031406
C55   C     C_R   0.565409 0.334559 0.791693 -0.135584
C56   C     C_R   0.556821 0.305230 0.821743 -0.132406
C57   C     C_R   0.606802 0.275853 0.661361 0.578395
N8    N     N_R   0.603273 0.324052 0.674758 -0.563353
C58   C     C_R   0.588840 0.343946 0.717156 0.575650
O15   O     O_2   0.547535 0.244263 0.880564 -0.511427
O16   O     O_2   0.563957 0.109885 0.770095 -0.505724
H18   H     H_    0.589465 0.128817 0.697003 0.180180
H19   H     H_    0.607902 0.179790 0.644790 0.178808
O17   O     O_2   0.620293 0.257218 0.619455 -0.511941
O18   O     O_2   0.585746 0.391468 0.729463 -0.515206
H20   H     H_    0.562483 0.372536 0.802845 0.175546
H21   H     H_    0.547638 0.321542 0.855108 0.177634
C59   C     C_R   0.448887 0.375860 0.631998 -0.088190
H22   H     H_    0.310538 0.369811 0.646136 0.115303
C60   C     C_R   0.460219 0.405221 0.601929 -0.192743
H23   H     H_    0.329160 0.421431 0.593606 0.129204
C61   C     C_R   0.638700 0.413804 0.583182 -0.055384
C62   C     C_R   0.805163 0.391995 0.595216 -0.194148
H24   H     H_    0.944886 0.397713 0.581530 0.130423
C63   C     C_R   0.793189 0.362418 0.625115 -0.086340
H25   H     H_    0.922666 0.345973 0.633965 0.117001
C64   C     C_R   0.615174 0.354283 0.643767 0.386008
C65   C     C_R   0.709120 0.115835 0.858160 -0.098703
H26   H     H_    0.829893 0.115318 0.836357 0.155185
C66   C     C_R   0.707795 0.085100 0.887191 0.113071
C67   C     C_R   0.550426 0.085512 0.916046 -0.101555
C68   C     C_R   0.397157 0.116929 0.914067 -0.186575
H27   H     H_    0.274504 0.118350 0.935494 0.171378
C69   C     C_R   0.399224 0.146959 0.884537 -0.068053
H28   H     H_    0.278308 0.170275 0.883432 0.145480
C70   C     C_R   0.555322 0.146700 0.856330 0.327805
C71   C     C_R   0.482273 0.395387 0.370509 -0.150429
H29   H     H_    0.368968 0.421423 0.378230 0.154653
C72   C     C_R   0.467190 0.361139 0.333056 0.187657
C73   C     C_R   0.613597 0.326494 0.322006 -0.034293
C74   C     C_R   0.775173 0.329121 0.348924 -0.118795
H30   H     H_    0.890519 0.303600 0.341704 0.164014
C75   C     C_R   0.790712 0.364351 0.385693 -0.141719
H31   H     H_    0.917113 0.365150 0.405484 0.131926
C76   C     C_R   0.643038 0.397507 0.397194 -0.088243
N9    N     N_R   0.764418 0.263513 0.267567 -0.254158
N10   N     N_R   0.755409 0.228749 0.233344 -0.261579
C77   C     C_R   0.584634 0.216573 0.213394 0.526729
N11   N     N_R   0.423501 0.240243 0.229561 -0.257277
N12   N     N_R   0.432694 0.274697 0.263871 -0.231071
C78   C     C_R   0.603232 0.287670 0.283443 0.542903
C79   C     C_R   0.412755 0.175689 0.147622 -0.128449
H32   H     H_    0.298959 0.201666 0.154616 0.171361
C80   C     C_R   0.398663 0.140439 0.110801 0.144254
C81   C     C_R   0.545392 0.105851 0.100723 -0.093762
C82   C     C_R   0.706392 0.109224 0.127789 -0.148313
H33   H     H_    0.821707 0.083607 0.121171 0.143747
C83   C     C_R   0.720759 0.145221 0.163985 -0.103309
H34   H     H_    0.846598 0.146461 0.183997 0.150979
C84   C     C_R   0.572974 0.178588 0.174617 -0.019377
O19   O     O_R   0.699050 0.038480 0.960880 -0.520048
O20   O     O_R   0.366680 0.052470 0.047720 -0.526152
O21   O     O_R   0.193410 0.961530 0.039110 -0.543128
C85   C     C_R   0.535358 0.066320 0.062905 0.721753
O22   O     O_R   0.369510 0.044100 0.961740 -0.529929
O23   O     O_R   0.196260 0.953110 0.952520 -0.539779
C86   C     C_R   0.539371 0.053594 0.947607 0.757017
O24   O     O_R   0.696210 0.046900 0.047470 -0.534939
O25   O     O_3   0.528780 0.970170 0.997070 -0.381355
V3    V     V_3+5 0.255080 0.005530 0.000540 1.490750
O26   O     O_R   0.866350 0.947520 0.952280 -0.540198
C87   C     C_R   0.035580 0.934453 0.936505 0.721396
O27   O     O_R   0.863520 0.955880 0.038260 -0.547328
C88   C     C_R   0.031420 0.945729 0.051811 0.692184
V4    V     V_3+5 0.754720 0.994440 0.999470 1.463768
O28   O     O_3   0.030880 0.029830 0.002930 -0.339904
I1    I     I_    0.014371 0.911798 0.319969 -0.152919
I2    I     I_    0.543396 0.541530 0.377103 -0.358871
I3    I     I_    0.944050 0.037506 0.881567 -0.371147
I4    I     I_    0.223506 0.368916 0.294997 -0.276113
I5    I     I_    0.157333 0.145987 0.071414 -0.360751
I6    I     I_    0.917301 0.834443 0.388518 -0.159817

loop_
_geom_bond_atom_site_label_1
_geom_bond_atom_site_label_2
_ccdc_geom_bond_type
C32   O14   S    
C23   C30   A    
C47   C48   A    
O20   V3    S    
C20   O12   S    
V4    O28   S    
C31   O13   S    
C11   C18   S    
O22   C86   A    
C29   C30   A    
C55   C56   A    
C35   C88   S    
C1    O6    A    
N5    C44   S    
C65   C66   A    
C57   N8    A    
N6    C32   A    
C40   H16   S    
C77   C84   S    
C80   I5    S    
C11   N3    A    
C5    C10   A    
O19   C86   A    
N2    C11   A    
O27   V4    S    
C71   C76   A    
C85   O24   A    
O25   V3    S    
O5    C3    A    
N3    N4    A    
C66   I3    S    
C29   H9    S    
V2    O10   S    
C3    C41   S    
C59   H22   S    
C26   C31   A    
C73   C78   S    
C65   H26   S    
C50   H18   S    
C5    C6    A    
C48   C53   A    
O8    V2    S    
C45   N7    A    
O27   C88   A    
C59   C60   A    
C63   C64   A    
C71   H29   S    
C36   H13   S    
O1    V2    S    
V3    O28   S    
C19   C23   A    
C49   C56   A    
C19   O11   S    
C17   C18   A    
N1    C12   A    
O23   C87   A    
C67   C86   S    
O9    C4    A    
N7    C70   S    
C35   C36   A    
C61   C62   A    
C43   C44   A    
C52   C57   A    
C43   H17   S    
C82   C83   A    
C40   C41   A    
C58   O18   S    
C7    C12   S    
C69   H28   S    
C79   H32   S    
O21   C88   A    
C34   H12   S    
C45   O15   S    
C72   I4    S    
O23   V3    S    
C9    H4    S    
C62   H24   S    
C51   C52   A    
O4    C2    A    
C46   C47   A    
C42   C43   A    
C33   C34   A    
C20   C21   A    
C4    C10   S    
C33   C38   A    
C26   C27   A    
C34   C35   A    
C14   H6    S    
N6    C38   S    
O2    C1    A    
C39   H15   S    
C71   C72   A    
C2    C76   S    
C15   C16   A    
C55   H20   S    
C22   C23   A    
C21   C24   A    
N11   N12   A    
C30   H10   S    
C5    H1    S    
C66   C67   A    
C25   C26   A    
C53   C54   A    
N12   C78   A    
C39   C40   A    
C67   C68   A    
O3    C4    A    
C81   C85   S    
C83   C84   A    
C37   C38   A    
C17   H8    S    
C56   H21   S    
O20   C85   A    
C24   C25   A    
O6    V2    S    
O9    V2    S    
C19   N5    A    
C75   H31   S    
C79   C80   A    
C45   C49   A    
C13   C18   A    
C68   C69   A    
C74   H30   S    
O2    V1    S    
C81   C82   A    
C25   I1    S    
C27   C28   A    
C14   C15   A    
N8    C64   S    
C69   C70   A    
C82   H33   S    
O7    V1    S    
C31   N6    A    
C21   C22   A    
C6    C7    A    
O22   V3    S    
O1    C2    A    
C59   C64   A    
N4    C12   A    
N5    C20   A    
C9    C10   A    
C51   H19   S    
C37   H14   S    
C74   C75   A    
N7    C46   A    
O5    V1    S    
C24   I6    S    
C28   C32   A    
C60   H23   S    
C28   C29   A    
C22   C27   A    
N10   C77   A    
C80   C81   A    
C79   C84   A    
C6    H2    S    
C73   C74   A    
C72   C73   A    
O4    V1    S    
O3    V1    S    
V1    O10   S    
C16   C17   A    
C39   C44   A    
C50   C51   A    
C16   H7    S    
O26   C87   A    
C54   C58   A    
O21   V3    S    
C52   C53   A    
C13   C14   A    
N9    C78   A    
C13   H5    S    
C8    C9    A    
C83   H34   S    
C33   H11   S    
O7    V2    S    
C54   C55   A    
C60   C61   A    
C57   O17   S    
C1    C61   S    
C77   N11   A    
C41   C42   A    
O25   V4    S    
O19   V4    S    
C48   C49   A    
O24   V4    S    
N8    C58   A    
C47   C50   A    
N1    N2    A    
C75   C76   A    
C8    H3    S    
N9    N10   A    
C36   C37   A    
C65   C70   A    
C68   H27   S    
C7    C8    A    
C46   O16   S    
C42   I2    S    
O26   V4    S    
C63   H25   S    
O8    C3    A    
C15   C87   S    
C62   C63   A    
