data_mof_unit_pretest_269.cif
_audit_creation_date              2012-12-10T20:38:23-0500
_audit_creation_method            fapswitch 2.2
_symmetry_space_group_name_H-M    P1
_symmetry_Int_Tables_number       1
_space_group_crystal_system       triclinic
_cell_length_a                    9.850555
_cell_length_b                    10.671904
_cell_length_c                    16.649325
_cell_angle_alpha                 90.154784
_cell_angle_beta                  84.719791
_cell_angle_gamma                 89.817449
_cell_volume                      1742.80277338

loop_
_atom_site_label
_atom_site_type_symbol
_atom_type_description
_atom_site_fract_x
_atom_site_fract_y
_atom_site_fract_z
_atom_type_partial_charge
C1    C     C_R   0.500428 0.740116 0.496321 0.881001
C2    C     C_R   0.532329 0.549532 0.263616 -0.026776
C3    C     C_R   0.384621 0.936518 0.468457 0.136682
C4    C     C_R   0.480595 0.501636 0.653584 0.862739
C5    C     C_R   0.503782 0.871086 0.480650 -0.137625
C6    C     C_R   0.628874 0.934629 0.475756 -0.213620
C7    C     C_R   0.629111 0.064061 0.476746 -0.229260
C8    C     C_R   0.504270 0.128507 0.483029 -0.106708
C9    C     C_R   0.384862 0.064518 0.471101 0.079754
C10   C     C_3   0.245532 0.071959 0.514832 -0.479778
C11   C     C_3   0.243572 0.929368 0.510438 -0.021271
C12   C     C_R   0.352349 0.580994 0.778144 -0.209452
C13   C     C_R   0.921981 0.590353 0.541119 0.220194
C14   C     C_R   0.935508 0.418110 0.453413 -0.138912
C15   C     C_R   0.079628 0.418201 0.453338 -0.136466
C16   C     C_R   0.500730 0.259788 0.497379 0.889655
C17   C     C_R   0.064481 0.589801 0.541466 0.217412
C18   C     C_3   0.056088 0.613620 0.629935 -0.527540
C19   C     C_3   0.902120 0.615042 0.629577 -0.498486
C20   C     C_R   0.519387 0.506617 0.346716 0.850767
C21   C     C_R   0.468127 0.520857 0.740367 -0.032036
C22   C     C_R   0.577965 0.491212 0.784595 -0.222866
C23   C     C_R   0.443965 0.676811 0.160517 -0.207054
C24   C     C_R   0.574173 0.525459 0.865080 -0.143069
C25   C     C_R   0.461567 0.591588 0.901478 0.202024
C26   C     C_R   0.348788 0.615447 0.858817 -0.180263
C27   C     C_3   0.140286 0.878111 0.455385 -0.869572
C28   C     C_3   0.681188 0.734417 0.976332 -0.906164
C29   C     C_R   0.428857 0.625165 0.237003 -0.192911
C30   C     C_R   0.653558 0.530338 0.214150 -0.208536
C31   C     C_R   0.667602 0.580214 0.136722 -0.162805
C32   C     C_R   0.561262 0.650925 0.108981 0.183759
C33   C     C_2   0.455014 0.623111 0.986802 -0.257344
C34   C     C_2   0.559900 0.673010 0.022379 0.154706
H1    H     H_    0.667061 0.442809 0.756767 0.143787
H2    H     H_    0.098965 0.706283 0.644446 0.193361
H3    H     H_    0.851973 0.536031 0.663840 0.215964
H4    H     H_    0.735776 0.474850 0.234770 0.146327
H5    H     H_    0.259635 0.662886 0.887485 0.131020
H6    H     H_    0.361295 0.731708 0.139860 0.133396
H7    H     H_    0.267150 0.605750 0.744774 0.147332
H8    H     H_    0.366584 0.586933 0.023301 0.131702
H9    H     H_    0.658741 0.499962 0.898984 0.142128
H10   H     H_    0.171613 0.119866 0.478538 0.206226
H11   H     H_    0.142685 0.931809 0.398145 0.241097
H12   H     H_    0.757981 0.557758 0.097245 0.131087
H13   H     H_    0.164023 0.778820 0.440040 0.253608
H14   H     H_    0.036105 0.883861 0.486921 0.232511
H15   H     H_    0.886887 0.350346 0.417139 0.141822
H16   H     H_    0.855977 0.708707 0.643439 0.200086
H17   H     H_    0.708193 0.820628 0.008672 0.239855
H18   H     H_    0.770172 0.669963 0.971676 0.223374
H19   H     H_    0.658631 0.762556 0.914789 0.253808
H20   H     H_    0.724978 0.885668 0.478017 0.170990
H21   H     H_    0.725336 0.112181 0.479194 0.169011
H22   H     H_    0.247082 0.108252 0.577423 0.182760
H23   H     H_    0.239924 0.883035 0.570367 0.162112
H24   H     H_    0.139994 0.350602 0.416933 0.145907
H25   H     H_    0.093940 0.533024 0.663762 0.214939
H26   H     H_    0.336692 0.645490 0.275563 0.156785
N1    N     N_R   0.857140 0.500860 0.500530 -0.105104
N2    N     N_R   0.142780 0.500820 0.500530 -0.107079
O1    O     O_R   0.385310 0.683210 0.499990 -0.621718
O2    O     O_R   0.614650 0.683240 0.500000 -0.617521
O3    O     O_R   0.371780 0.500000 0.615800 -0.616626
O4    O     O_R   0.601120 0.500040 0.615800 -0.614417
O5    O     O_R   0.385350 0.316760 0.500000 -0.613496
O6    O     O_R   0.614690 0.316790 0.500010 -0.624274
O7    O     O_R   0.398880 0.499960 0.384200 -0.622011
O8    O     O_R   0.628220 0.500000 0.384200 -0.614640
Zn1   Zn    Zn3+2 0.346870 0.499980 0.499990 0.934280
Zn2   Zn    Zn3+2 0.653130 0.500020 0.500010 0.941431

loop_
_geom_bond_atom_site_label_1
_geom_bond_atom_site_label_2
_ccdc_geom_bond_type
C27   H14   S    
C28   H19   S    
C1    O2    A    
C6    C7    A    
C3    C9    A    
C13   C17   A    
C17   N2    A    
C10   H22   S    
C9    C10   S    
C31   C32   A    
C14   C15   A    
C29   H26   S    
C11   C27   S    
C30   C31   A    
O6    Zn2   S    
C23   C32   A    
C27   H11   S    
C22   C24   A    
C22   H1    S    
C17   C18   S    
C2    C20   S    
C28   C34   S    
C7    C8    A    
C8    C16   S    
C16   O5    A    
O3    Zn1   S    
C21   C22   A    
C4    O4    A    
C4    C21   S    
C28   H18   S    
C19   H16   S    
C20   O8    A    
C12   H7    S    
C6    H20   S    
C2    C29   A    
C16   O6    A    
C33   H8    S    
C23   C29   A    
N1    Zn2   S    
C7    H21   S    
C15   N2    A    
O1    Zn1   S    
N2    Zn1   S    
C33   C34   D    
O5    Zn1   S    
O2    Zn2   S    
C12   C26   A    
C5    C6    A    
C26   H5    S    
C28   H17   S    
C1    C5    S    
C20   O7    A    
C14   H15   S    
C3    C11   S    
C10   C11   S    
C13   C19   S    
C10   H10   S    
C23   H6    S    
C15   H24   S    
C1    O1    A    
C18   H25   S    
C13   N1    A    
C24   C25   A    
C30   H4    S    
C18   C19   S    
C27   H13   S    
O7    Zn1   S    
C24   H9    S    
C4    O3    A    
C2    C30   A    
O8    Zn2   S    
C19   H3    S    
C25   C26   A    
C11   H23   S    
C14   N1    A    
C18   H2    S    
C12   C21   A    
O4    Zn2   S    
C25   C33   S    
C8    C9    A    
C3    C5    A    
C31   H12   S    
C32   C34   S    
