data_mof_unit_pretest_1967.cif
_audit_creation_date              2012-12-11T18:18:07-0500
_audit_creation_method            fapswitch 2.2
_symmetry_space_group_name_H-M    P1
_symmetry_Int_Tables_number       1
_space_group_crystal_system       triclinic
_cell_length_a                    8.306723
_cell_length_b                    14.287806
_cell_length_c                    14.987869
_cell_angle_alpha                 96.030224
_cell_angle_beta                  97.713993
_cell_angle_gamma                 91.654061
_cell_volume                      1751.31447516

loop_
_atom_site_label
_atom_site_type_symbol
_atom_type_description
_atom_site_fract_x
_atom_site_fract_y
_atom_site_fract_z
_atom_type_partial_charge
Ba1   Ba    Ba6+2 0.833410 0.543320 0.453520 1.672071
Ba2   Ba    Ba6+2 0.356410 0.456750 0.546480 1.661895
C1    C     C_3   0.587557 0.879591 0.244269 -0.261057
C2    C     C_R   0.107151 0.482782 0.210642 0.107413
C3    C     C_R   0.933064 0.475949 0.767570 -0.281026
C4    C     C_3   0.069260 0.795864 0.204194 0.324924
C5    C     C_R   0.843329 0.441120 0.829843 0.032587
C6    C     C_R   0.905611 0.449369 0.921677 -0.112501
C7    C     C_R   0.056781 0.497532 0.954858 -0.043692
C8    C     C_R   0.142740 0.540815 0.890971 -0.023184
C9    C     C_R   0.121042 0.507501 0.050154 -0.006600
C10   C     C_R   0.273902 0.556133 0.078865 -0.054823
C11   C     C_R   0.353969 0.597108 0.015828 -0.121574
C12   C     C_3   0.500699 0.786523 0.202218 0.696624
C13   C     C_R   0.286054 0.596612 0.925520 0.408775
C14   C     C_R   0.041989 0.468649 0.117980 -0.100384
C15   C     C_R   0.253638 0.534910 0.236217 -0.243932
C16   C     C_3   0.989677 0.807829 0.108977 -0.319285
C17   C     C_R   0.079318 0.527893 0.795494 0.074098
C18   C     C_R   0.703786 0.936019 0.549784 -0.012346
C19   C     C_R   0.511179 0.799429 0.496977 0.027639
C20   C     C_R   0.360663 0.765709 0.449105 -0.210958
C21   C     C_R   0.249382 0.827829 0.412606 0.015809
C22   C     C_R   0.293590 0.922588 0.415702 -0.141596
C23   C     C_3   0.523300 0.306290 0.266691 0.407120
C24   C     C_R   0.447649 0.957189 0.457374 0.000037
C25   C     C_R   0.555895 0.896810 0.501698 -0.067147
C26   C     C_R   0.641966 0.090684 0.502445 -0.070919
C27   C     C_R   0.750531 0.031262 0.548567 0.004389
C28   C     C_3   0.255384 0.749048 0.661478 0.686322
C29   C     C_R   0.686126 0.186938 0.503556 0.032865
C30   C     C_R   0.835381 0.222487 0.551739 -0.318849
C31   C     C_R   0.949469 0.163122 0.591256 -0.051113
C32   C     C_R   0.906072 0.066485 0.591175 0.325086
C33   C     C_R   0.491463 0.052294 0.457310 -0.023971
C34   C     C_3   0.566120 0.274209 0.171614 -0.090828
C35   C     C_3   0.319719 0.848795 0.701869 -0.122435
C36   C     C_3   0.017444 0.223987 0.314689 0.489032
C37   C     C_3   0.121433 0.146278 0.275537 0.236899
C38   C     C_3   0.735577 0.678834 0.724994 0.352459
C39   C     C_3   0.800455 0.722056 0.821390 -0.175676
C40   C     C_3   0.177039 0.272508 0.807228 0.346232
C41   C     C_3   0.214003 0.251987 0.905980 -0.099961
C42   C     C_3   0.649602 0.212157 0.761932 0.345954
C43   C     C_3   0.629346 0.115724 0.794344 -0.379391
C44   C     C_R   0.342833 0.565890 0.171212 -0.003552
H1    H     H_    0.422596 0.765062 0.252083 -0.096482
H2    H     H_    0.717726 0.775967 0.845560 0.132311
H3    H     H_    0.497084 0.933872 0.255367 0.059792
H4    H     H_    0.615175 0.360327 0.298442 0.088850
H5    H     H_    0.541967 0.332046 0.127946 0.088160
H6    H     H_    0.697445 0.261327 0.174470 0.097551
H7    H     H_    0.671131 0.904725 0.199018 0.118434
H8    H     H_    0.075105 0.789229 0.059590 0.113398
H9    H     H_    0.250430 0.336578 0.799388 0.072508
H10   H     H_    0.045990 0.286456 0.791925 -0.075637
H11   H     H_    0.341421 0.230182 0.919850 0.142041
H12   H     H_    0.377450 0.883187 0.650357 0.064939
H13   H     H_    0.202354 0.317194 0.951543 0.065321
H14   H     H_    0.780149 0.225031 0.756199 -0.064569
H15   H     H_    0.575972 0.210911 0.694158 0.088142
H16   H     H_    0.671949 0.060928 0.745776 0.077284
H17   H     H_    0.499322 0.099790 0.799075 0.145960
H18   H     H_    0.110877 0.722517 0.204653 -0.005109
H19   H     H_    0.701807 0.114051 0.861993 0.116603
H20   H     H_    0.306288 0.543252 0.306779 0.067340
H21   H     H_    0.469342 0.634746 0.036848 0.094563
H22   H     H_    0.931555 0.425426 0.101172 0.082449
H23   H     H_    0.217435 0.892163 0.720032 0.103009
H24   H     H_    0.882785 0.467634 0.696620 0.053609
H25   H     H_    0.830017 0.420143 0.965729 0.073161
H26   H     H_    0.324571 0.691996 0.446634 0.081034
H27   H     H_    0.205813 0.969306 0.387491 0.055955
H28   H     H_    0.174083 0.847483 0.222253 0.034956
H29   H     H_    0.866282 0.296898 0.554753 0.073938
H30   H     H_    0.784654 0.892954 0.588380 0.154614
H31   H     H_    0.405668 0.095585 0.421885 0.085864
H32   H     H_    0.878412 0.761071 0.091489 0.124101
H33   H     H_    0.955607 0.882018 0.104908 0.134551
H34   H     H_    0.111483 0.083864 0.312489 0.037992
H35   H     H_    0.359032 0.708402 0.642695 0.025044
H36   H     H_    0.499734 0.911094 0.797196 0.173325
H37   H     H_    0.374953 0.836784 0.836966 0.207491
H38   H     H_    0.807473 0.149576 0.255009 0.213401
H39   H     H_    0.792573 0.237537 0.336066 0.145536
H40   H     H_    0.008507 0.302152 0.436714 0.159669
H41   H     H_    0.102186 0.201621 0.443195 0.144858
H42   H     H_    0.117733 0.163851 0.148535 0.334487
H43   H     H_    0.700198 0.628240 0.894475 0.197771
H44   H     H_    0.876239 0.681120 0.945570 0.179727
H45   H     H_    0.250827 0.168613 0.285415 0.079539
H46   H     H_    0.472514 0.815618 0.077266 0.295637
H47   H     H_    0.281661 0.303993 0.217757 0.177972
H48   H     H_    0.334921 0.362582 0.322345 0.187097
H49   H     H_    0.493212 0.176673 0.063305 0.180962
H50   H     H_    0.512790 0.132431 0.162954 0.210503
H51   H     H_    0.111896 0.117304 0.882503 0.212389
H52   H     H_    0.984365 0.200301 0.915143 0.178476
H53   H     H_    0.446560 0.694342 0.909024 0.278131
H54   H     H_    0.113830 0.036800 0.658990 0.316775
H55   H     H_    0.061155 0.798853 0.601347 0.323314
H56   H     H_    0.836237 0.645543 0.693502 -0.000622
H57   H     H_    0.637273 0.625065 0.726618 0.070620
H58   H     H_    0.658600 0.870025 0.310623 0.114471
H59   H     H_    0.921189 0.757712 0.821270 0.123563
N1    N     N_3   0.438307 0.845229 0.782384 -0.486849
N2    N     N_3   0.859285 0.180594 0.319059 -0.522880
N3    N     N_3   0.089903 0.259493 0.406136 -0.436206
N4    N     N_3   0.816250 0.650139 0.883403 -0.540378
N5    N     N_3   0.368299 0.350126 0.257775 -0.538243
N6    N     N_3   0.469767 0.189753 0.130192 -0.485639
N7    N     N_3   0.103614 0.178213 0.926607 -0.484766
O1    O     O_2   0.841250 0.444240 0.280450 -0.476733
O2    O     O_2   0.286815 0.168750 0.584845 -0.491947
O3    O     O_3   0.219789 0.195736 0.749845 -0.613547
O4    O     O_3   0.112870 0.447390 0.393710 -0.487157
O5    O     O_3   0.560600 0.613720 0.540760 -0.498272
O6    O     O_2   0.387470 0.270310 0.467210 -0.440994
O7    O     O_3   0.518276 0.229781 0.318997 -0.665012
O8    O     O_2   0.509097 0.455558 0.829398 -0.482509
O9    O     O_3   0.595713 0.281058 0.823916 -0.604730
O10   O     O_3   0.597960 0.615760 0.327700 -0.473837
O11   O     O_2   0.677423 0.541028 0.172222 -0.481652
O12   O     O_3   0.673232 0.751748 0.677339 -0.654144
O13   O     O_3   0.000599 0.294974 0.254782 -0.647953
O14   O     O_3   0.617104 0.719961 0.182784 -0.592900
O15   O     O_2   0.802240 0.729720 0.532850 -0.437619
O16   O     O_3   0.017190 0.664840 0.371090 -0.446106
O17   O     O_2   0.924297 0.831771 0.434064 -0.451696
O18   O     O_3   0.066843 0.118663 0.183483 -0.715743
O19   O     O_3   0.400411 0.800638 0.122090 -0.786733
O20   O     O_3   0.357776 0.653804 0.872238 -0.708908
O21   O     O_3   0.011125 0.003999 0.630039 -0.769493
O22   O     O_3   0.143373 0.754031 0.583894 -0.749130
O23   O     O_3   0.955600 0.814015 0.264165 -0.586694
O24   O     O_2   0.348460 0.555790 0.719610 -0.437798
O25   O     O_3   0.076820 0.552690 0.606290 -0.474543
O26   O     O_3   0.591740 0.384320 0.672310 -0.482784
O27   O     O_3   0.179053 0.706721 0.725626 -0.614469
O28   O     O_3   0.629090 0.386360 0.459240 -0.487065
O29   O     O_3   0.172500 0.335240 0.628910 -0.483274
P1    P     P_3+3 0.018620 0.416870 0.295980 0.971473
P2    P     P_3+3 0.635650 0.716500 0.560900 0.973653
P3    P     P_3+3 0.039032 0.786186 0.370847 1.021062
P4    P     P_3+3 0.171070 0.583210 0.704020 1.070404
P5    P     P_3+3 0.155932 0.214843 0.637277 0.937242
P6    P     P_3+3 0.556535 0.609454 0.210778 0.975593
P7    P     P_3+3 0.560505 0.267424 0.436258 0.916406
P8    P     P_3+3 0.635691 0.391937 0.789929 0.944363

loop_
_geom_bond_atom_site_label_1
_geom_bond_atom_site_label_2
_ccdc_geom_bond_type
C1    H58   S    
C35   H23   S    
C42   O9    S    
C35   H12   S    
Ba1   O16   S    
H42   O18   S    
O28   P7    S    
C30   H29   S    
Ba2   O6    S    
C5    C6    A    
O17   P3    D    
H55   O22   S    
C42   C43   S    
Ba2   P4    S    
O3    P5    S    
C15   H20   S    
C17   P4    S    
C39   H59   S    
H53   O20   S    
O25   P4    S    
C26   C27   A    
O5    P2    S    
C22   C24   A    
C8    C13   A    
C2    P1    S    
C36   C37   S    
C22   H27   S    
H43   N4    S    
C43   H16   S    
H38   N2    S    
O1    P1    D    
C18   H30   S    
Ba1   Ba2   S    
C4    H18   S    
C36   N2    S    
C23   H4    S    
Ba1   P1    S    
C40   H10   S    
C5    P8    S    
Ba2   O4    S    
C13   O20   S    
C29   C30   A    
C26   C33   A    
C16   H33   S    
C28   O22   S    
C21   C22   A    
O12   P2    S    
C14   H22   S    
Ba1   O4    S    
C7    C8    A    
C8    C17   A    
O24   P4    D    
C34   H6    S    
C41   H13   S    
H47   N5    S    
C18   C27   A    
C19   C25   A    
C39   N4    S    
C19   C20   A    
Ba1   O1    S    
C4    C16   S    
C23   O7    S    
C20   H26   S    
Ba2   O5    S    
C4    H28   S    
C12   O19   S    
O26   P8    S    
C1    H3    S    
C38   O12   S    
H50   N6    S    
H52   N7    S    
H41   N3    S    
Ba2   O26   S    
H46   O19   S    
C15   C44   A    
C19   P2    S    
C10   C44   A    
C3    C5    A    
H51   N7    S    
C41   H11   S    
C6    C7    A    
O15   P2    D    
C32   O21   S    
O7    P7    S    
C27   C32   A    
C33   H31   S    
Ba2   O24   S    
C28   C35   S    
C2    C14   A    
C3    H24   S    
Ba1   P2    S    
C40   H9    S    
O16   P3    S    
C9    C14   A    
C40   O3    S    
C44   P6    S    
O13   P1    S    
C16   H32   S    
C34   N6    S    
C31   C32   A    
O8    P8    D    
Ba1   O5    S    
O10   P6    S    
C7    C9    A    
O2    P5    D    
C34   H5    S    
O29   P5    S    
O4    P1    S    
C2    C15   A    
C23   N5    S    
C38   C39   S    
C18   C25   A    
O11   P6    D    
C11   C13   A    
C24   C25   A    
C21   P3    S    
C4    O23   S    
C41   N7    S    
C29   P7    S    
C36   O13   S    
Ba1   O25   S    
H54   O21   S    
C11   H21   S    
O27   P4    S    
C6    H25   S    
C28   O27   S    
Ba2   O25   S    
C37   H45   S    
C26   C29   A    
H40   N3    S    
Ba1   O15   S    
O14   P6    S    
C12   H1    S    
C3    C17   A    
C37   O18   S    
C1    C12   S    
C42   H15   S    
C12   O14   S    
H37   N1    S    
Ba2   O28   S    
C30   C31   A    
C28   H35   S    
O6    P7    D    
H48   N5    S    
C35   N1    S    
H49   N6    S    
C37   H34   S    
C38   H57   S    
C43   H19   S    
C1    H7    S    
C43   H17   S    
C42   H14   S    
C39   H2    S    
O9    P8    S    
H36   N1    S    
C36   N3    S    
O23   P3    S    
C31   P5    S    
C16   H8    S    
C23   C34   S    
C38   H56   S    
C24   C33   A    
C10   C11   A    
C40   C41   S    
Ba2   O29   S    
C20   C21   A    
Ba1   O28   S    
H44   N4    S    
H39   N2    S    
Ba1   O10   S    
C9    C10   A    
