data_mof_unit_pretest_1556.cif
_audit_creation_date              2012-12-10T20:14:22-0500
_audit_creation_method            fapswitch 2.2
_symmetry_space_group_name_H-M    P1
_symmetry_Int_Tables_number       1
_space_group_crystal_system       triclinic
_cell_length_a                    35.563414
_cell_length_b                    35.563455
_cell_length_c                    21.818142
_cell_angle_alpha                 89.999447
_cell_angle_beta                  90.00042
_cell_angle_gamma                 89.999825
_cell_volume                      27594.6668761

loop_
_atom_site_label
_atom_site_type_symbol
_atom_type_description
_atom_site_fract_x
_atom_site_fract_y
_atom_site_fract_z
_atom_type_partial_charge
C1    C     C_R   0.073404 0.500073 0.499984 0.917555
C2    C     C_R   0.500073 0.926596 0.499987 0.917557
C3    C     C_R   0.926596 0.499927 0.499984 0.917558
C4    C     C_R   0.499927 0.073404 0.499990 0.917553
C5    C     C_R   0.573404 0.000073 0.999984 0.917559
C6    C     C_R   0.000073 0.426596 0.999986 0.917556
C7    C     C_R   0.426596 0.999927 0.999987 0.917554
C8    C     C_R   0.999927 0.573404 0.999985 0.917559
C9    C     C_R   0.307015 0.501533 0.499303 0.076704
C10   C     C_R   0.501525 0.692985 0.499311 0.076714
C11   C     C_R   0.692983 0.498469 0.499296 0.076712
C12   C     C_R   0.498505 0.307016 0.499316 0.076742
C13   C     C_R   0.807015 0.001519 0.999307 0.076727
C14   C     C_R   0.001525 0.192984 0.999297 0.076740
C15   C     C_R   0.192985 0.998505 0.999312 0.076749
C16   C     C_R   0.998472 0.807016 0.999309 0.076726
C17   C     C_1   0.266928 0.501460 0.498945 0.213152
C18   C     C_1   0.501454 0.733072 0.498961 0.213197
C19   C     C_1   0.733071 0.498542 0.498936 0.213157
C20   C     C_1   0.498562 0.266929 0.498979 0.213286
C21   C     C_1   0.766928 0.001452 0.998958 0.213219
C22   C     C_1   0.001457 0.233072 0.998947 0.213222
C23   C     C_1   0.233071 0.998563 0.998975 0.213288
C24   C     C_1   0.998542 0.766929 0.998959 0.213199
C25   C     C_1   0.233343 0.501272 0.498482 0.214877
C26   C     C_1   0.501270 0.766657 0.498509 0.214916
C27   C     C_1   0.766656 0.498729 0.498468 0.214890
C28   C     C_1   0.498739 0.233343 0.498540 0.215002
C29   C     C_1   0.733343 0.001268 0.998507 0.214937
C30   C     C_1   0.001272 0.266657 0.998492 0.214943
C31   C     C_1   0.266657 0.998740 0.998535 0.215008
C32   C     C_1   0.998728 0.733343 0.998505 0.214923
C33   C     C_R   0.173216 0.535417 0.495964 -0.016913
C34   C     C_R   0.535418 0.826783 0.496031 -0.016908
C35   C     C_R   0.826783 0.464584 0.495953 -0.016905
C36   C     C_R   0.464584 0.173219 0.496146 -0.016882
C37   C     C_R   0.826217 0.533831 0.500117 -0.021126
C38   C     C_R   0.466169 0.826218 0.500153 -0.021127
C39   C     C_R   0.173783 0.466170 0.500142 -0.021130
C40   C     C_R   0.533836 0.173780 0.500125 -0.021119
C41   C     C_R   0.673217 0.035417 0.996045 -0.016901
C42   C     C_R   0.035419 0.326784 0.996030 -0.016891
C43   C     C_R   0.326781 0.964584 0.996145 -0.016883
C44   C     C_R   0.964581 0.673217 0.996033 -0.016896
C45   C     C_R   0.326219 0.033836 0.000112 -0.021121
C46   C     C_R   0.966170 0.326217 0.000113 -0.021127
C47   C     C_R   0.673782 0.966168 0.000135 -0.021124
C48   C     C_R   0.033830 0.673783 0.000134 -0.021125
C49   C     C_R   0.134008 0.534491 0.496859 -0.275817
C50   C     C_R   0.534492 0.865991 0.496908 -0.275807
C51   C     C_R   0.865991 0.465509 0.496858 -0.275811
C52   C     C_R   0.465508 0.134011 0.497005 -0.275774
C53   C     C_R   0.865416 0.533500 0.500833 -0.223879
C54   C     C_R   0.466500 0.865417 0.500844 -0.223888
C55   C     C_R   0.134584 0.466500 0.500846 -0.223884
C56   C     C_R   0.533503 0.134581 0.500811 -0.223899
C57   C     C_R   0.634009 0.034492 0.996920 -0.275791
C58   C     C_R   0.034493 0.365991 0.996916 -0.275797
C59   C     C_R   0.365989 0.965508 0.997000 -0.275769
C60   C     C_R   0.965507 0.634009 0.996915 -0.275799
C61   C     C_R   0.365418 0.033503 0.000802 -0.223904
C62   C     C_R   0.966500 0.365416 0.000820 -0.223885
C63   C     C_R   0.634583 0.966499 0.000828 -0.223893
C64   C     C_R   0.033500 0.634584 0.000829 -0.223887
C65   C     C_R   0.114609 0.500337 0.499381 -0.006428
C66   C     C_R   0.500337 0.885391 0.499396 -0.006427
C67   C     C_R   0.885391 0.499663 0.499379 -0.006431
C68   C     C_R   0.499663 0.114609 0.499416 -0.006438
C69   C     C_R   0.614609 0.000337 0.999393 -0.006429
C70   C     C_R   0.000338 0.385391 0.999392 -0.006437
C71   C     C_R   0.385391 0.999664 0.999410 -0.006439
C72   C     C_R   0.999662 0.614609 0.999393 -0.006432
C73   C     C_R   0.193261 0.500950 0.497932 0.073559
C74   C     C_R   0.500950 0.806739 0.497974 0.073564
C75   C     C_R   0.806739 0.499051 0.497910 0.073574
C76   C     C_R   0.499054 0.193261 0.498016 0.073596
C77   C     C_R   0.693261 0.000949 0.997970 0.073576
C78   C     C_R   0.000951 0.306739 0.997948 0.073592
C79   C     C_R   0.306739 0.999055 0.998010 0.073600
C80   C     C_R   0.999049 0.693261 0.997963 0.073576
C81   C     C_R   0.500060 0.573140 0.499982 0.886448
C82   C     C_R   0.573140 0.499940 0.499982 0.886455
C83   C     C_R   0.499942 0.426860 0.499983 0.886466
C84   C     C_R   0.426860 0.500061 0.499982 0.886449
C85   C     C_R   0.000059 0.073140 0.999982 0.886460
C86   C     C_R   0.073140 0.999942 0.999983 0.886466
C87   C     C_R   0.999940 0.926860 0.999982 0.886458
C88   C     C_R   0.926860 0.000059 0.999982 0.886458
C89   C     C_R   0.000000 0.500000 0.379996 0.924770
C90   C     C_R   0.500000 1.000000 0.379996 0.924783
C91   C     C_R   1.000000 0.500000 0.620562 0.933279
C92   C     C_R   0.500000 0.000000 0.620562 0.933268
C93   C     C_R   0.500000 0.000000 0.879996 0.924763
C94   C     C_R   1.000000 0.500000 0.879996 0.924773
C95   C     C_R   0.500000 1.000000 0.120562 0.933285
C96   C     C_R   0.000000 0.500000 0.120562 0.933280
C97   C     C_R   0.929720 0.505893 0.307332 0.129545
C98   C     C_R   0.505881 0.070280 0.307331 0.129558
C99   C     C_R   0.070281 0.494108 0.307334 0.129543
C100  C     C_R   0.494117 0.929719 0.307335 0.129545
C101  C     C_R   0.966819 0.562925 0.697202 0.196261
C102  C     C_R   0.437072 0.966826 0.697203 0.196281
C103  C     C_R   0.033179 0.437074 0.697206 0.196263
C104  C     C_R   0.562927 0.033178 0.697203 0.196266
C105  C     C_R   0.429721 0.005905 0.807331 0.129564
C106  C     C_R   0.005896 0.570280 0.807331 0.129549
C107  C     C_R   0.570280 0.994099 0.807333 0.129549
C108  C     C_R   0.994101 0.429720 0.807334 0.129552
C109  C     C_R   0.466806 0.062918 0.197202 0.196262
C110  C     C_R   0.937077 0.466815 0.197204 0.196253
C111  C     C_R   0.533192 0.937081 0.197205 0.196246
C112  C     C_R   0.062923 0.533184 0.197204 0.196248
C113  C     C_R   0.898101 0.490033 0.279534 -0.177062
C114  C     C_R   0.490017 0.101897 0.279534 -0.177070
C115  C     C_R   0.101900 0.509968 0.279536 -0.177072
C116  C     C_R   0.509982 0.898102 0.279539 -0.177078
C117  C     C_R   0.968028 0.597645 0.727262 -0.181885
C118  C     C_R   0.402352 0.968041 0.727262 -0.181913
C119  C     C_R   0.031968 0.402354 0.727267 -0.181891
C120  C     C_R   0.597647 0.031965 0.727263 -0.181898
C121  C     C_R   0.398099 0.990051 0.779532 -0.177080
C122  C     C_R   0.990038 0.601900 0.779532 -0.177072
C123  C     C_R   0.601901 0.009955 0.779534 -0.177081
C124  C     C_R   0.009959 0.398100 0.779536 -0.177070
C125  C     C_R   0.468008 0.097638 0.227263 -0.181905
C126  C     C_R   0.902357 0.468023 0.227264 -0.181881
C127  C     C_R   0.531990 0.902361 0.227269 -0.181877
C128  C     C_R   0.097643 0.531976 0.227265 -0.181872
C129  C     C_R   0.967666 0.488087 0.220519 0.021239
C130  C     C_R   0.488081 0.032332 0.220518 0.021243
C131  C     C_R   0.032334 0.511912 0.220519 0.021234
C132  C     C_R   0.511916 0.967667 0.220519 0.021240
C133  C     C_R   0.999165 0.534322 0.781815 0.009288
C134  C     C_R   0.465679 0.999170 0.781815 0.009277
C135  C     C_R   0.000833 0.465678 0.781817 0.009278
C136  C     C_R   0.534322 0.000833 0.781816 0.009288
C137  C     C_R   0.467665 0.988093 0.720519 0.021237
C138  C     C_R   0.988089 0.532334 0.720518 0.021238
C139  C     C_R   0.532336 0.011910 0.720518 0.021234
C140  C     C_R   0.011910 0.467665 0.720520 0.021236
C141  C     C_R   0.499157 0.034321 0.281815 0.009288
C142  C     C_R   0.965679 0.499164 0.281815 0.009281
C143  C     C_R   0.500840 0.965678 0.281816 0.009298
C144  C     C_R   0.034322 0.500836 0.281816 0.009290
C145  C     C_R   0.000000 0.500000 0.187243 -0.174117
C146  C     C_R   0.499999 0.999999 0.187243 -0.174115
C147  C     C_R   0.999999 0.500000 0.814290 -0.134598
C148  C     C_R   0.500000 0.000001 0.814290 -0.134598
C149  C     C_R   0.500000 0.000001 0.687243 -0.174120
C150  C     C_R   0.999999 0.500000 0.687243 -0.174121
C151  C     C_R   0.499999 1.000000 0.314290 -0.134603
C152  C     C_R   0.000000 0.500000 0.314290 -0.134595
C153  C     C_R   0.326628 0.500478 0.555912 -0.015727
C154  C     C_R   0.500573 0.673368 0.555922 -0.015729
C155  C     C_R   0.673371 0.499433 0.555909 -0.015748
C156  C     C_R   0.499062 0.326638 0.555934 -0.015727
C157  C     C_R   0.673076 0.497918 0.442963 -0.012667
C158  C     C_R   0.502066 0.673081 0.442974 -0.012677
C159  C     C_R   0.326923 0.502177 0.442972 -0.012685
C160  C     C_R   0.498358 0.326914 0.442967 -0.012676
C161  C     C_R   0.826633 0.000702 0.055922 -0.015738
C162  C     C_R   0.000848 0.173368 0.055917 -0.015744
C163  C     C_R   0.173363 0.999008 0.055932 -0.015729
C164  C     C_R   0.999315 0.826632 0.055923 -0.015724
C165  C     C_R   0.173086 0.998410 0.942963 -0.012672
C166  C     C_R   0.001790 0.173081 0.942954 -0.012660
C167  C     C_R   0.826919 0.001926 0.942966 -0.012667
C168  C     C_R   0.998040 0.826920 0.942969 -0.012680
C169  C     C_R   0.365857 0.499941 0.555161 -0.275599
C170  C     C_R   0.500034 0.634140 0.555167 -0.275561
C171  C     C_R   0.634143 0.499975 0.555161 -0.275518
C172  C     C_R   0.499605 0.365865 0.555180 -0.275570
C173  C     C_R   0.633873 0.498535 0.444241 -0.276180
C174  C     C_R   0.501453 0.633877 0.444246 -0.276143
C175  C     C_R   0.366126 0.501557 0.444247 -0.276107
C176  C     C_R   0.498946 0.366119 0.444239 -0.276125
C177  C     C_R   0.865861 0.000160 0.055170 -0.275545
C178  C     C_R   0.000296 0.134139 0.055169 -0.275518
C179  C     C_R   0.134135 0.999555 0.055179 -0.275569
C180  C     C_R   0.999861 0.865860 0.055170 -0.275588
C181  C     C_R   0.133882 0.998997 0.944237 -0.276116
C182  C     C_R   0.001185 0.133878 0.944233 -0.276161
C183  C     C_R   0.866122 0.001319 0.944241 -0.276149
C184  C     C_R   0.998652 0.866123 0.944243 -0.276110
C185  C     C_R   0.385676 0.500448 0.499826 -0.020192
C186  C     C_R   0.500444 0.614324 0.499828 -0.020195
C187  C     C_R   0.614324 0.499555 0.499825 -0.020189
C188  C     C_R   0.499569 0.385676 0.499831 -0.020199
C189  C     C_R   0.885676 0.000441 0.999827 -0.020197
C190  C     C_R   0.000441 0.114324 0.999825 -0.020201
C191  C     C_R   0.114324 0.999569 0.999830 -0.020203
C192  C     C_R   0.999557 0.885676 0.999829 -0.020199
H1    H     H_    0.129654 0.505364 0.298489 0.183376
H2    H     H_    0.505383 0.870348 0.298494 0.183365
H3    H     H_    0.870347 0.494636 0.298486 0.183389
H4    H     H_    0.494616 0.129652 0.298487 0.183372
H5    H     H_    0.047642 0.378595 0.709685 0.178839
H6    H     H_    0.621407 0.047637 0.709681 0.178838
H7    H     H_    0.952354 0.621403 0.709679 0.178843
H8    H     H_    0.378591 0.952370 0.709680 0.178819
H9    H     H_    0.629655 0.005348 0.798486 0.183374
H10   H     H_    0.005353 0.370346 0.798489 0.183388
H11   H     H_    0.370345 0.994661 0.798482 0.183377
H12   H     H_    0.994643 0.629654 0.798484 0.183378
H13   H     H_    0.547670 0.878606 0.209688 0.178842
H14   H     H_    0.121401 0.547652 0.209683 0.178854
H15   H     H_    0.452329 0.121393 0.209682 0.178818
H16   H     H_    0.878600 0.452348 0.209682 0.178852
H17   H     H_    0.381058 0.499124 0.598210 0.156165
H18   H     H_    0.499298 0.618937 0.598218 0.156186
H19   H     H_    0.618943 0.500722 0.598214 0.156191
H20   H     H_    0.500035 0.381071 0.598239 0.156190
H21   H     H_    0.618473 0.498123 0.401363 0.156269
H22   H     H_    0.501854 0.618481 0.401367 0.156273
H23   H     H_    0.381525 0.502039 0.401371 0.156287
H24   H     H_    0.498847 0.381510 0.401351 0.156282
H25   H     H_    0.881064 0.999527 0.098225 0.156192
H26   H     H_    0.999772 0.118936 0.098228 0.156198
H27   H     H_    0.118929 0.999943 0.098239 0.156189
H28   H     H_    0.000514 0.881063 0.098225 0.156175
H29   H     H_    0.118489 0.998938 0.901349 0.156284
H30   H     H_    0.001374 0.118482 0.901349 0.156273
H31   H     H_    0.881518 0.001618 0.901358 0.156273
H32   H     H_    0.998333 0.881520 0.901361 0.156288
H33   H     H_    0.118485 0.560711 0.495406 0.159403
H34   H     H_    0.560712 0.881514 0.495471 0.159401
H35   H     H_    0.881514 0.439289 0.495412 0.159406
H36   H     H_    0.439286 0.118490 0.495620 0.159400
H37   H     H_    0.880514 0.559958 0.502454 0.181062
H38   H     H_    0.440042 0.880515 0.502444 0.181062
H39   H     H_    0.119486 0.440042 0.502468 0.181062
H40   H     H_    0.559962 0.119481 0.502361 0.181066
H41   H     H_    0.618486 0.060713 0.995495 0.159402
H42   H     H_    0.060713 0.381515 0.995496 0.159403
H43   H     H_    0.381511 0.939286 0.995617 0.159397
H44   H     H_    0.939287 0.618486 0.995488 0.159403
H45   H     H_    0.380519 0.059962 0.002350 0.181069
H46   H     H_    0.940041 0.380514 0.002412 0.181065
H47   H     H_    0.619484 0.940041 0.002418 0.181063
H48   H     H_    0.059959 0.619485 0.002423 0.181062
O1    O     O_R   0.055450 0.468680 0.499980 -0.591712
O2    O     O_R   0.468680 0.944550 0.499980 -0.591714
O3    O     O_R   0.944550 0.531320 0.499980 -0.591714
O4    O     O_R   0.531320 0.055450 0.499980 -0.591719
O5    O     O_R   0.944550 0.468680 0.500020 -0.630024
O6    O     O_R   0.531320 0.944550 0.500020 -0.630027
O7    O     O_R   0.055450 0.531320 0.500020 -0.630025
O8    O     O_R   0.468680 0.055450 0.500020 -0.630027
O9    O     O_R   0.555450 0.968680 0.999980 -0.591718
O10   O     O_R   0.968680 0.444550 0.999980 -0.591714
O11   O     O_R   0.444550 0.031320 0.999980 -0.591720
O12   O     O_R   0.031320 0.555450 0.999980 -0.591715
O13   O     O_R   0.444550 0.968680 0.000020 -0.630027
O14   O     O_R   0.031320 0.444550 0.000020 -0.630026
O15   O     O_R   0.555450 0.031320 0.000020 -0.630022
O16   O     O_R   0.968680 0.555450 0.000020 -0.630026
O17   O     O_R   0.000010 0.468680 0.408370 -0.596556
O18   O     O_R   0.468680 0.999990 0.408370 -0.596553
O19   O     O_R   0.999990 0.531320 0.408370 -0.596559
O20   O     O_R   0.531320 0.000010 0.408370 -0.596557
O21   O     O_R   0.999990 0.468680 0.591630 -0.605001
O22   O     O_R   0.531320 0.999990 0.591630 -0.605006
O23   O     O_R   0.000010 0.531320 0.591630 -0.605002
O24   O     O_R   0.468680 0.000010 0.591630 -0.605007
O25   O     O_R   0.500010 0.968680 0.908370 -0.596553
O26   O     O_R   0.968680 0.499990 0.908370 -0.596558
O27   O     O_R   0.499990 0.031320 0.908370 -0.596559
O28   O     O_R   0.031320 0.500010 0.908370 -0.596555
O29   O     O_R   0.499990 0.968680 0.091630 -0.605005
O30   O     O_R   0.031320 0.499990 0.091630 -0.605004
O31   O     O_R   0.500010 0.031320 0.091630 -0.604997
O32   O     O_R   0.968680 0.500010 0.091630 -0.605001
O33   O     O_R   0.500050 0.555340 0.448290 -0.622226
O34   O     O_R   0.555340 0.499950 0.448290 -0.622261
O35   O     O_R   0.499950 0.444660 0.448290 -0.622206
O36   O     O_R   0.444660 0.500050 0.448290 -0.622169
O37   O     O_R   0.499950 0.555340 0.551710 -0.621737
O38   O     O_R   0.444660 0.499950 0.551710 -0.621785
O39   O     O_R   0.500050 0.444660 0.551710 -0.621766
O40   O     O_R   0.555340 0.500050 0.551710 -0.621703
O41   O     O_R   0.000050 0.055340 0.948290 -0.622250
O42   O     O_R   0.055340 0.999950 0.948290 -0.622196
O43   O     O_R   0.999950 0.944660 0.948290 -0.622179
O44   O     O_R   0.944660 0.000050 0.948290 -0.622235
O45   O     O_R   0.999950 0.055340 0.051710 -0.621717
O46   O     O_R   0.944660 0.999950 0.051710 -0.621731
O47   O     O_R   0.000050 0.944660 0.051710 -0.621782
O48   O     O_R   0.055340 0.000050 0.051710 -0.621774
Zn1   Zn    Zn3+2 0.000000 0.458180 0.500000 1.035574
Zn2   Zn    Zn3+2 0.458180 0.000000 0.500000 1.035571
Zn3   Zn    Zn3+2 0.000000 0.541820 0.500000 1.035569
Zn4   Zn    Zn3+2 0.541820 0.000000 0.500000 1.035566
Zn5   Zn    Zn3+2 0.500000 0.958180 0.000000 1.035567
Zn6   Zn    Zn3+2 0.958180 0.500000 0.000000 1.035570
Zn7   Zn    Zn3+2 0.500000 0.041820 0.000000 1.035576
Zn8   Zn    Zn3+2 0.041820 0.500000 0.000000 1.035567
Zn9   Zn    Zn3+2 0.500000 0.500000 0.430910 0.966261
Zn10  Zn    Zn3+2 0.500000 0.500000 0.569090 0.967656
Zn11  Zn    Zn3+2 0.000000 0.000000 0.930910 0.966264
Zn12  Zn    Zn3+2 1.000000 0.000000 0.069090 0.967652
I1    I     I_    0.918937 0.553316 0.362968 -0.331309
I2    I     I_    0.553306 0.081067 0.362963 -0.331338
I3    I     I_    0.081063 0.446684 0.362972 -0.331347
I4    I     I_    0.446694 0.918931 0.362969 -0.331362
I5    I     I_    0.920713 0.555624 0.637294 -0.352952
I6    I     I_    0.444367 0.920720 0.637296 -0.352889
I7    I     I_    0.079284 0.444373 0.637298 -0.352915
I8    I     I_    0.555632 0.079283 0.637291 -0.352869
I9    I     I_    0.418946 0.053330 0.862968 -0.331280
I10   I     I_    0.053319 0.581060 0.862970 -0.331379
I11   I     I_    0.581058 0.946676 0.862972 -0.331365
I12   I     I_    0.946677 0.418942 0.862970 -0.331295
I13   I     I_    0.420704 0.055611 0.137289 -0.352924
I14   I     I_    0.944380 0.420711 0.137294 -0.352944
I15   I     I_    0.579294 0.944390 0.137296 -0.352888
I16   I     I_    0.055621 0.579288 0.137294 -0.352893
C193  C     C_2   0.308050 0.499854 0.617196 0.426254
H49   H     H_    0.325209 0.498391 0.658293 0.070002
O49   O     O_2   0.273959 0.501059 0.623223 -0.552227
C194  C     C_2   0.500062 0.691941 0.617211 0.426319
H50   H     H_    0.498683 0.674778 0.658313 0.069992
O50   O     O_2   0.501265 0.726032 0.623238 -0.552159
C195  C     C_2   0.691951 0.499957 0.617194 0.426202
H51   H     H_    0.674792 0.501359 0.658298 0.070047
O51   O     O_2   0.726042 0.498738 0.623215 -0.552290
C196  C     C_2   0.499141 0.308070 0.617233 0.426256
H52   H     H_    0.500230 0.325236 0.658355 0.070001
O52   O     O_2   0.497892 0.273979 0.623246 -0.552160
C197  C     C_2   0.691304 0.496738 0.381410 0.426912
H53   H     H_    0.673921 0.497307 0.340504 0.067975
O53   O     O_2   0.725341 0.494964 0.374953 -0.554867
C198  C     C_2   0.503231 0.691314 0.381424 0.426783
H54   H     H_    0.502659 0.673933 0.340516 0.068031
O54   O     O_2   0.504993 0.725352 0.374973 -0.555032
C199  C     C_2   0.308693 0.503462 0.381425 0.426868
H55   H     H_    0.326076 0.502948 0.340517 0.068007
O55   O     O_2   0.274658 0.505265 0.374979 -0.554902
C200  C     C_2   0.497639 0.308675 0.381404 0.426770
H56   H     H_    0.498440 0.326055 0.340504 0.068076
O56   O     O_2   0.496006 0.274633 0.374929 -0.555192
C201  C     C_2   0.808060 0.000340 0.117215 0.426290
H57   H     H_    0.825223 0.999057 0.158325 0.070007
O57   O     O_2   0.773969 0.001562 0.123235 -0.552178
C202  C     C_2   0.000644 0.191941 0.117210 0.426197
H58   H     H_    0.999441 0.174780 0.158329 0.070040
O58   O     O_2   0.001917 0.226031 0.123222 -0.552256
C203  C     C_2   0.191932 0.999027 0.117232 0.426235
H59   H     H_    0.174766 0.000079 0.158355 0.070002
O59   O     O_2   0.226022 0.997771 0.123241 -0.552171
C204  C     C_2   0.999703 0.808058 0.117215 0.426249
H60   H     H_    0.001025 0.825219 0.158323 0.070002
O60   O     O_2   0.998456 0.773968 0.123237 -0.552207
C205  C     C_2   0.191325 0.997749 0.881398 0.426782
H61   H     H_    0.173945 0.998589 0.840500 0.068078
O61   O     O_2   0.225367 0.996123 0.874918 -0.555205
C206  C     C_2   0.002652 0.191315 0.881391 0.426856
H62   H     H_    0.001883 0.173934 0.840491 0.068018
O62   O     O_2   0.004378 0.225353 0.874918 -0.555020
C207  C     C_2   0.808684 0.002943 0.881410 0.426788
H63   H     H_    0.826065 0.002280 0.840505 0.068035
O63   O     O_2   0.774647 0.004683 0.874949 -0.555062
C208  C     C_2   0.996992 0.808686 0.881413 0.426828
H64   H     H_    0.997647 0.826067 0.840508 0.068031
O64   O     O_2   0.995236 0.774649 0.874954 -0.555011
C209  C     C_2   0.191313 0.573208 0.493010 0.431589
H65   H     H_    0.173851 0.598254 0.493441 0.072968
O65   O     O_2   0.225328 0.577236 0.489733 -0.550762
C210  C     C_2   0.573209 0.808686 0.493118 0.431579
H66   H     H_    0.598255 0.826149 0.493498 0.072983
O66   O     O_2   0.577241 0.774667 0.489945 -0.550858
C211  C     C_2   0.808686 0.426794 0.493000 0.431559
H67   H     H_    0.826145 0.401746 0.493488 0.072989
O67   O     O_2   0.774673 0.422767 0.489657 -0.550797
C212  C     C_2   0.426791 0.191319 0.493330 0.431515
H68   H     H_    0.401745 0.173857 0.493755 0.073039
O68   O     O_2   0.422758 0.225339 0.490191 -0.551094
C213  C     C_2   0.807540 0.571366 0.501821 0.443587
H69   H     H_    0.824627 0.596594 0.505062 0.082830
O69   O     O_2   0.773455 0.575004 0.499403 -0.556706
C214  C     C_2   0.428633 0.807542 0.501850 0.443608
H70   H     H_    0.403402 0.824633 0.504967 0.082821
O70   O     O_2   0.424998 0.773453 0.499579 -0.556691
C215  C     C_2   0.192460 0.428635 0.501861 0.443599
H71   H     H_    0.175372 0.403406 0.505060 0.082831
O71   O     O_2   0.226547 0.424999 0.499512 -0.556717
C216  C     C_2   0.571375 0.192453 0.501747 0.443597
H72   H     H_    0.596607 0.175359 0.504791 0.082815
O72   O     O_2   0.575010 0.226542 0.499495 -0.556631
C217  C     C_2   0.691315 0.073209 0.993155 0.431580
H73   H     H_    0.673852 0.098255 0.993558 0.072998
O73   O     O_2   0.725333 0.077241 0.989974 -0.550910
C218  C     C_2   0.073211 0.308687 0.993137 0.431584
H74   H     H_    0.098258 0.326148 0.993590 0.073000
O74   O     O_2   0.077242 0.274671 0.989894 -0.550921
C219  C     C_2   0.308681 0.926790 0.993340 0.431534
H75   H     H_    0.326145 0.901745 0.993727 0.073032
O75   O     O_2   0.274660 0.922757 0.990258 -0.551116
C220  C     C_2   0.926789 0.691314 0.993133 0.431590
H76   H     H_    0.901743 0.673852 0.993585 0.072989
O76   O     O_2   0.922759 0.725330 0.989883 -0.550861
C221  C     C_2   0.307547 0.071375 0.001727 0.443575
H77   H     H_    0.324639 0.096606 0.004822 0.082820
O77   O     O_2   0.273459 0.075011 0.999407 -0.556631
C222  C     C_2   0.928634 0.307541 0.001778 0.443522
H78   H     H_    0.903404 0.324629 0.004965 0.082846
O78   O     O_2   0.924998 0.273454 0.999393 -0.556717
C223  C     C_2   0.692458 0.928631 0.001814 0.443579
H79   H     H_    0.675367 0.903400 0.004938 0.082827
O79   O     O_2   0.726546 0.924996 0.999518 -0.556691
C224  C     C_2   0.071366 0.692459 0.001818 0.443551
H80   H     H_    0.096597 0.675369 0.004949 0.082835
O80   O     O_2   0.075000 0.726548 0.999519 -0.556723

loop_
_geom_bond_atom_site_label_1
_geom_bond_atom_site_label_2
_ccdc_geom_bond_type
C159  C199  S    
C130  C146  A    
O40   Zn10  S    
C89   O19   A    
C90   O20   A    
C10   C154  A    
O36   Zn9   S    
C96   C145  S    
O39   Zn10  S    
C114  H4    S    
C46   C62   A    
C81   O37   A    
C15   C163  A    
C82   O34   A    
C87   O47   A    
C83   O39   A    
C63   H47   S    
C98   C114  A    
C60   C72   A    
C62   C70   A    
C130  C141  A    
C48   C224  S    
C158  C174  A    
C106  C133  A    
C18   C26   T    
C196  H52   S    
O29   Zn5   S    
C117  H7    S    
C61   C71   A    
C143  C151  A    
C37   C75   A    
C85   O41   A    
C42   C58   A    
C84   C185  S    
C95   C146  S    
C128  H14   S    
C108  C124  A    
C27   C75   S    
C183  C189  A    
C210  H66   S    
C205  O61   D    
C176  C188  A    
O3    Zn3   S    
C88   C189  S    
C59   H43   S    
O47   Zn12  S    
C6    O10   A    
C181  H29   S    
C195  H51   S    
C177  C189  A    
C218  O74   D    
C199  O55   D    
C58   C70   A    
C129  C142  A    
C20   C28   T    
O5    Zn1   S    
C21   C29   T    
C8    O16   A    
C38   C214  S    
C40   C76   A    
C23   C31   T    
C100  I4    S    
C173  H21   S    
C24   C32   T    
C168  C208  S    
C107  C136  A    
C32   C80   S    
C101  C138  A    
C12   C20   S    
O48   Zn12  S    
C13   C21   S    
C198  H54   S    
C92   O24   A    
C33   C73   A    
C84   O36   A    
C35   C51   A    
C217  H73   S    
C50   H34   S    
C161  C177  A    
C215  H71   S    
C90   O18   A    
C91   O23   A    
C11   C157  A    
C179  H27   S    
O23   Zn3   S    
C82   O40   A    
C177  H25   S    
C165  C181  A    
C43   C219  S    
O44   Zn11  S    
C17   C25   T    
C127  H13   S    
C101  C117  A    
C209  H65   S    
C99   C115  A    
O38   Zn10  S    
C10   C18   S    
C156  C172  A    
C113  H3    S    
C112  C131  A    
C204  H60   S    
C98   I2    S    
C97   C142  A    
C64   H48   S    
O2    Zn2   S    
O30   Zn8   S    
C199  H55   S    
O43   Zn11  S    
C179  C191  A    
O11   Zn7   S    
C92   C149  S    
C162  C202  S    
C182  C190  A    
C156  C196  S    
O35   Zn9   S    
C214  H70   S    
O20   Zn4   S    
C166  C182  A    
C118  H8    S    
C221  H77   S    
O17   Zn1   S    
C16   C164  A    
C154  C170  A    
C47   C223  S    
C155  C195  S    
C208  H64   S    
C122  H12   S    
C110  C129  A    
C40   C216  S    
C212  H68   S    
C105  I9    S    
C89   C152  S    
C63   C69   A    
C107  I11   S    
C84   O38   A    
C1    C65   S    
C133  C147  A    
C14   C166  A    
C10   C158  A    
C91   O21   A    
C43   C59   A    
C116  H2    S    
C9    C153  A    
C197  O53   D    
C173  C187  A    
C12   C156  A    
C83   O35   A    
C88   O44   A    
O25   Zn5   S    
O42   Zn11  S    
C87   O43   A    
C201  O57   D    
C123  H9    S    
C222  H78   S    
C121  H11   S    
C108  C135  A    
C1    O7    A    
O34   Zn9   S    
C4    C68   S    
C161  C201  S    
O24   Zn2   S    
C113  C126  A    
C52   C68   A    
C56   C68   A    
O1    Zn1   S    
C125  H15   S    
C115  C128  A    
C7    O11   A    
C195  O51   D    
C102  C137  A    
C194  O50   D    
O28   Zn8   S    
C117  C122  A    
C170  H18   S    
C106  C122  A    
C206  O62   D    
C86   O42   A    
C51   C67   A    
O27   Zn7   S    
C2    O2    A    
O31   Zn7   S    
C224  H80   S    
C136  C148  A    
C110  C126  A    
C135  C147  A    
O45   Zn12  S    
C163  C179  A    
C220  O76   D    
C83   C188  S    
C49   H33   S    
C81   C186  S    
C207  H63   S    
C42   C218  S    
C38   C74   A    
C109  C125  A    
C8    O12   A    
C22   C30   T    
C129  C145  A    
C2    C66   S    
C35   C211  S    
C54   C66   A    
O9    Zn5   S    
C200  O56   D    
C5    O15   A    
C144  C152  A    
C103  C140  A    
O16   Zn6   S    
C131  C145  A    
C25   C73   S    
C39   C73   A    
C53   C67   A    
O33   Zn9   S    
C162  C178  A    
C39   C215  S    
O37   Zn10  S    
C29   C77   S    
C202  H58   S    
C183  H31   S    
O7    Zn3   S    
C15   C165  A    
C196  O52   D    
C54   H38   S    
O32   Zn6   S    
C160  C200  S    
C100  C116  A    
C107  C123  A    
C134  C137  A    
C210  O66   D    
C205  H61   S    
C11   C19   S    
C47   C63   A    
C178  C190  A    
C48   C64   A    
C93   O25   A    
C108  I12   S    
C33   C49   A    
C211  H67   S    
C164  C204  S    
C93   C148  S    
C53   H37   S    
C142  C152  A    
C193  O49   D    
C5    C69   S    
C55   C65   A    
C52   H36   S    
C39   C55   A    
C126  H16   S    
C40   C56   A    
C116  C127  A    
O21   Zn1   S    
C120  H6    S    
C134  C148  A    
C184  C192  A    
C164  C180  A    
C120  C123  A    
O18   Zn2   S    
C132  C143  A    
C165  C205  S    
C133  C138  A    
C136  C139  A    
C135  C140  A    
C102  I6    S    
C103  C119  A    
C8    C72   S    
C157  C197  S    
C55   H39   S    
C99   C144  A    
C44   C80   A    
C6    O14   A    
O15   Zn7   S    
C203  H59   S    
C46   C78   A    
C106  I10   S    
C85   C190  S    
C201  H57   S    
C182  H30   S    
C139  C149  A    
C124  H10   S    
C174  H22   S    
C175  H23   S    
C14   C162  A    
O13   Zn5   S    
C5    O9    A    
C175  C185  A    
C34   C210  S    
C38   C54   A    
O6    Zn4   S    
C170  C186  A    
C45   C79   A    
C12   C160  A    
C204  O60   D    
C85   O45   A    
C34   C74   A    
C45   C221  S    
C44   C220  S    
C51   H35   S    
C13   C161  A    
C28   C76   S    
C158  C198  S    
C214  O70   D    
C6    C70   S    
C109  I13   S    
C119  H5    S    
C178  H26   S    
C46   C222  S    
C198  O54   D    
C218  H74   S    
C58   H42   S    
C100  C143  A    
C91   C150  S    
C219  H75   S    
C95   O31   A    
C93   O27   A    
O8    Zn2   S    
C94   O28   A    
C62   H46   S    
C104  C139  A    
O26   Zn6   S    
C101  I5    S    
C132  C146  A    
C87   C192  S    
C216  H72   S    
C2    O6    A    
C41   C57   A    
C153  C193  S    
C41   C77   A    
C181  C191  A    
C14   C22   S    
C208  O64   D    
C44   C60   A    
C45   C61   A    
O22   Zn4   S    
C81   O33   A    
C212  O68   D    
C112  C128  A    
C169  C185  A    
C33   C209  S    
C153  C169  A    
C217  O73   D    
C3    O5    A    
C96   O30   A    
C131  C144  A    
C172  C188  A    
C157  C173  A    
C105  C134  A    
C104  C120  A    
C112  I16   S    
C167  C207  S    
O10   Zn6   S    
C197  H53   S    
C216  O72   D    
C60   H44   S    
O41   Zn11  S    
C119  C124  A    
C138  C150  A    
C35   C75   A    
C86   C191  S    
C104  I8    S    
C49   C65   A    
C37   C213  S    
C222  O78   D    
O14   Zn8   S    
C209  O65   D    
C7    C71   S    
C13   C167  A    
C9    C159  A    
C43   C79   A    
C56   H40   S    
C4    O8    A    
C36   C76   A    
O4    Zn4   S    
C167  C183  A    
C168  C184  A    
C163  C203  S    
C223  H79   S    
C176  H24   S    
C19   C27   T    
C224  O80   D    
C102  C118  A    
C223  O79   D    
C115  H1    S    
C16   C24   S    
C159  C175  A    
C7    O13   A    
C160  C176  A    
O46   Zn12  S    
C221  O77   D    
C95   O29   A    
C94   O26   A    
C34   C50   A    
C213  O69   D    
C89   O17   A    
C180  C192  A    
C114  C125  A    
C154  C194  S    
C211  O67   D    
C90   C151  S    
C118  C121  A    
C215  O71   D    
C88   O46   A    
C203  O59   D    
C171  H19   S    
C111  I15   S    
O19   Zn3   S    
C169  H17   S    
C41   C217  S    
C105  C121  A    
C207  O63   D    
C3    O3    A    
C50   C66   A    
C213  H69   S    
C1    O1    A    
C9    C17   S    
C137  C149  A    
C202  O58   D    
C42   C78   A    
C103  I7    S    
C98   C141  A    
C111  C127  A    
C180  H28   S    
C97   I1    S    
C47   C77   A    
C97   C113  A    
C140  C150  A    
C99   I3    S    
C141  C151  A    
C166  C206  S    
C94   C147  S    
C184  H32   S    
O12   Zn8   S    
C86   O48   A    
C3    C67   S    
C172  H20   S    
C36   C52   A    
C57   H41   S    
C31   C79   S    
C11   C155  A    
C96   O32   A    
C36   C212  S    
C171  C187  A    
C82   C187  S    
C61   H45   S    
C194  H50   S    
C48   C80   A    
C37   C53   A    
C174  C186  A    
C219  O75   D    
C16   C168  A    
C15   C23   S    
C206  H62   S    
C26   C74   S    
C4    O4    A    
C64   C72   A    
C193  H49   S    
C30   C78   S    
C155  C171  A    
C111  C132  A    
C200  H56   S    
C109  C130  A    
C220  H76   S    
C110  I14   S    
C57   C69   A    
C92   O22   A    
C59   C71   A    
