data_mof_unit_pretest_1333.cif
_audit_creation_date              2012-12-11T15:34:00-0500
_audit_creation_method            fapswitch 2.2
_symmetry_space_group_name_H-M    P1
_symmetry_Int_Tables_number       1
_space_group_crystal_system       triclinic
_cell_length_a                    15.053723
_cell_length_b                    15.065572
_cell_length_c                    34.968437
_cell_angle_alpha                 90.697181
_cell_angle_beta                  90.235531
_cell_angle_gamma                 60.08459
_cell_volume                      6873.41701587

loop_
_atom_site_label
_atom_site_type_symbol
_atom_type_description
_atom_site_fract_x
_atom_site_fract_y
_atom_site_fract_z
_atom_type_partial_charge
C1    C     C_R   0.302729 0.608222 0.555784 0.545123
C2    C     C_R   0.210975 0.723902 0.391427 -0.127312
C3    C     C_R   0.750837 0.112596 0.268532 -0.104456
C4    C     C_R   0.755923 0.106054 0.228767 -0.126513
C5    C     C_R   0.680764 0.184988 0.206461 0.007305
C6    C     C_R   0.734005 0.205155 0.351319 -0.108655
C7    C     C_R   0.714508 0.229829 0.390153 -0.116807
C8    C     C_R   0.549280 0.239876 0.383399 -0.121888
C9    C     C_R   0.740212 0.583131 0.647897 -0.122868
C10   C     C_R   0.568194 0.216843 0.344609 -0.114040
C11   C     C_R   0.658924 0.203009 0.328162 0.031347
C12   C     C_R   0.620136 0.251412 0.406165 0.019248
C13   C     C_R   0.180615 0.733908 0.353403 -0.116031
C14   C     C_R   0.081116 0.710789 0.094549 0.019644
C15   C     C_R   0.096254 0.619722 0.111042 -0.112814
C16   C     C_R   0.127697 0.598013 0.148951 -0.085686
C17   C     C_R   0.144008 0.667232 0.170842 0.047426
C18   C     C_R   0.136022 0.754406 0.153466 -0.111129
C19   C     C_R   0.105368 0.775730 0.115583 -0.120816
C20   C     C_R   0.225745 0.681450 0.230847 -0.095061
C21   C     C_R   0.179710 0.652239 0.334137 0.032159
C22   C     C_R   0.566953 0.727262 0.649456 -0.123304
C23   C     C_R   0.241338 0.631752 0.410552 0.022430
C24   C     C_R   0.735596 0.026067 0.943349 0.575491
C25   C     C_R   0.745917 0.722917 0.945020 0.545531
C26   C     C_R   0.038023 0.734045 0.948284 0.537314
C27   C     C_R   0.723586 0.037845 0.053162 0.552748
C28   C     C_R   0.733771 0.734649 0.054731 0.548420
C29   C     C_R   0.658704 0.662091 0.668546 0.032550
C30   C     C_R   0.027212 0.745095 0.057945 0.541324
C31   C     C_R   0.553890 0.708136 0.611326 -0.130982
C32   C     C_R   0.674350 0.675463 0.787812 0.344568
C33   C     C_R   0.666313 0.669986 0.710346 0.343404
C34   C     C_R   0.762306 0.599354 0.849387 -0.114085
C35   C     C_R   0.778442 0.609878 0.888020 -0.119367
C36   C     C_R   0.628781 0.779689 0.888798 -0.131220
C37   C     C_R   0.612531 0.769058 0.850156 -0.123764
C38   C     C_R   0.681622 0.680460 0.829738 0.032362
C39   C     C_R   0.610875 0.588501 0.555191 0.556559
C40   C     C_R   0.231441 0.681075 0.270491 -0.128799
C41   C     C_R   0.714362 0.701851 0.907659 0.024064
C42   C     C_R   0.722229 0.070892 0.904797 0.009175
C43   C     C_R   0.649461 0.066177 0.880706 -0.166586
C44   C     C_R   0.647943 0.083442 0.841810 -0.136399
C45   C     C_R   0.719230 0.105741 0.825647 -0.021964
C46   C     C_R   0.786784 0.119019 0.849656 -0.091236
C47   C     C_R   0.788046 0.103623 0.889236 0.258933
C48   C     C_R   0.733095 0.193343 0.767485 -0.108735
C49   C     C_R   0.726641 0.206460 0.727966 -0.109898
C50   C     C_R   0.708784 0.141307 0.704084 0.024274
C51   C     C_R   0.171142 0.653627 0.292360 0.019782
C52   C     C_R   0.590706 0.300265 0.553481 0.542653
C53   C     C_R   0.701944 0.060146 0.720102 -0.115507
C54   C     C_R   0.709290 0.046456 0.759557 -0.110151
C55   C     C_R   0.722197 0.114569 0.783694 0.028445
C56   C     C_R   0.601246 0.169791 0.646112 -0.116564
C57   C     C_R   0.572181 0.208343 0.609277 -0.123611
C58   C     C_R   0.722238 0.227823 0.604889 -0.123319
C59   C     C_R   0.750703 0.190127 0.641753 -0.120680
C60   C     C_R   0.688716 0.163962 0.663076 0.029983
C61   C     C_R   0.630593 0.241040 0.588856 0.021959
C62   C     C_R   0.106981 0.623888 0.274098 -0.080785
C63   C     C_R   0.090829 0.697573 0.911123 0.016831
C64   C     C_R   0.299270 0.610582 0.446367 0.541656
C65   C     C_R   0.122498 0.757653 0.891305 -0.108132
C66   C     C_R   0.145724 0.740576 0.852462 -0.115057
C67   C     C_R   0.138992 0.662401 0.832857 0.027078
C68   C     C_R   0.116833 0.596185 0.853277 -0.115706
C69   C     C_R   0.092662 0.613758 0.892170 -0.123552
C70   C     C_R   0.208838 0.562221 0.772094 -0.107169
C71   C     C_R   0.217894 0.558125 0.732298 -0.105899
C72   C     C_R   0.163770 0.647594 0.710589 0.032225
C73   C     C_R   0.100783 0.624836 0.234336 -0.076014
C74   C     C_R   0.098303 0.740559 0.729402 -0.109282
C75   C     C_R   0.090143 0.744757 0.769131 -0.107355
C76   C     C_R   0.608234 0.590507 0.445650 0.594730
C77   C     C_R   0.146538 0.655978 0.790804 0.030006
C78   C     C_R   0.193014 0.723754 0.652229 -0.116064
C79   C     C_R   0.225107 0.715129 0.614370 -0.122776
C80   C     C_R   0.230385 0.552217 0.608378 -0.123534
C81   C     C_R   0.197794 0.561108 0.646257 -0.118234
C82   C     C_R   0.182221 0.645286 0.668940 0.032569
C83   C     C_R   0.247788 0.627497 0.592504 0.022277
C84   C     C_R   0.159318 0.654781 0.212429 0.041783
C85   C     C_R   0.695610 0.720971 0.091546 0.023102
C86   C     C_R   0.622968 0.807104 0.112359 -0.113969
C87   C     C_R   0.606119 0.798397 0.150938 -0.064357
C88   C     C_R   0.587771 0.302665 0.443790 0.540257
C89   C     C_R   0.661246 0.703636 0.168900 0.072689
C90   C     C_R   0.726751 0.616011 0.147535 -0.065051
C91   C     C_R   0.744208 0.624612 0.109037 -0.101799
C92   C     C_R   0.600486 0.652832 0.225078 -0.157465
C93   C     C_R   0.594966 0.642882 0.264312 -0.115660
C94   C     C_R   0.645684 0.675813 0.289505 -0.024374
C95   C     C_R   0.199647 0.564353 0.354259 -0.103422
C96   C     C_R   0.702362 0.718681 0.275004 -0.093815
C97   C     C_R   0.708052 0.729720 0.235505 0.291054
C98   C     C_R   0.655938 0.696657 0.210442 -0.001912
C99   C     C_R   0.542110 0.698576 0.347342 -0.134540
C100  C     C_R   0.632426 0.623594 0.591716 0.025990
C101  C     C_R   0.534261 0.679310 0.385454 -0.175153
C102  C     C_R   0.719538 0.598257 0.392498 0.263134
C103  C     C_R   0.726294 0.618372 0.353821 -0.090026
C104  C     C_R   0.638146 0.665567 0.330958 -0.015407
C105  C     C_R   0.622371 0.625701 0.408168 0.016175
C106  C     C_R   0.230331 0.554109 0.392333 -0.105782
C107  C     C_R   0.702267 0.096503 0.089255 0.023374
C108  C     C_R   0.777568 0.114403 0.105573 -0.115216
C109  C     C_R   0.767843 0.149073 0.143294 -0.103923
C110  C     C_R   0.682331 0.167326 0.165012 0.080103
C111  C     C_R   0.604169 0.155552 0.148159 -0.033304
C112  C     C_R   0.727220 0.564101 0.609818 -0.126759
C113  C     C_R   0.613656 0.121038 0.110440 -0.109558
C114  C     C_R   0.601846 0.273747 0.224454 0.253056
C115  C     C_R   0.596303 0.278196 0.264393 -0.098393
C116  C     C_R   0.669487 0.197458 0.286419 -0.018233
Cr1   Cr    Cr6+3 0.421670 0.426920 0.499620 1.022212
Cr2   Cr    Cr6+3 0.427030 0.651190 0.500980 1.023166
Cr3   Cr    Cr6+3 0.651280 0.421870 0.499380 1.062181
Cr4   Cr    Cr6+3 0.910810 0.908010 0.001130 1.111489
Cr5   Cr    Cr6+3 0.682800 0.909890 0.998370 1.023068
Cr6   Cr    Cr6+3 0.908370 0.682300 0.002180 1.025096
H1    H     H_    0.789586 0.499109 0.595289 0.133830
H2    H     H_    0.840591 0.138615 0.837380 0.159593
H3    H     H_    0.480112 0.755730 0.598037 0.130000
H4    H     H_    0.769391 0.251635 0.589791 0.130745
H5    H     H_    0.122857 0.822171 0.905134 0.172222
H6    H     H_    0.068614 0.566073 0.906640 0.131724
H7    H     H_    0.188066 0.500485 0.658180 0.106781
H8    H     H_    0.270180 0.485628 0.718678 0.107133
H9    H     H_    0.252827 0.492905 0.788336 0.110746
H10   H     H_    0.164746 0.791221 0.837315 0.121424
H11   H     H_    0.054231 0.810317 0.713421 0.108370
H12   H     H_    0.819133 0.184991 0.654179 0.108410
H13   H     H_    0.039652 0.817527 0.783005 0.115673
H14   H     H_    0.182568 0.789148 0.669020 0.107895
H15   H     H_    0.844683 0.548260 0.901834 0.139693
H16   H     H_    0.237867 0.774423 0.603013 0.129828
H17   H     H_    0.111581 0.535180 0.838652 0.113356
H18   H     H_    0.246613 0.484041 0.592161 0.128391
H19   H     H_    0.584580 0.882357 0.099658 0.129261
H20   H     H_    0.800108 0.556980 0.093593 0.133914
H21   H     H_    0.800575 0.593867 0.341088 0.154098
H22   H     H_    0.551801 0.608487 0.275043 0.150058
H23   H     H_    0.730843 0.270459 0.716208 0.118204
H24   H     H_    0.561339 0.626391 0.206017 0.176071
H25   H     H_    0.554108 0.866218 0.167238 0.134576
H26   H     H_    0.740805 0.744601 0.294603 0.158007
H27   H     H_    0.812557 0.532717 0.661617 0.133497
H28   H     H_    0.473081 0.736661 0.330258 0.121662
H29   H     H_    0.458740 0.701582 0.396506 0.144543
H30   H     H_    0.768700 0.542207 0.161208 0.127706
H31   H     H_    0.846738 0.096146 0.089970 0.135706
H32   H     H_    0.554732 0.107357 0.098781 0.130486
H33   H     H_    0.509969 0.214499 0.327008 0.120941
H34   H     H_    0.742244 0.247354 0.785407 0.122757
H35   H     H_    0.534932 0.344701 0.278604 0.124129
H36   H     H_    0.503117 0.789510 0.664487 0.132913
H37   H     H_    0.829018 0.157312 0.156109 0.111863
H38   H     H_    0.808076 0.050058 0.285301 0.144298
H39   H     H_    0.816735 0.037541 0.215293 0.153058
H40   H     H_    0.804531 0.194437 0.338883 0.122375
H41   H     H_    0.770555 0.237972 0.407040 0.147385
H42   H     H_    0.538703 0.167321 0.164888 0.153550
H43   H     H_    0.475951 0.255826 0.394838 0.135176
H44   H     H_    0.078905 0.567842 0.095331 0.135974
H45   H     H_    0.592288 0.076664 0.824145 0.123033
H46   H     H_    0.094558 0.846410 0.103609 0.134662
H47   H     H_    0.163445 0.803133 0.338378 0.113095
H48   H     H_    0.815851 0.529337 0.834579 0.141159
H49   H     H_    0.283807 0.701299 0.284112 0.108258
H50   H     H_    0.273045 0.702950 0.214590 0.135863
H51   H     H_    0.135371 0.529251 0.161577 0.129332
H52   H     H_    0.060190 0.602198 0.290600 0.136587
H53   H     H_    0.047673 0.605530 0.220847 0.157573
H54   H     H_    0.199102 0.500629 0.339800 0.116204
H55   H     H_    0.252474 0.482532 0.406516 0.136654
H56   H     H_    0.689272 0.008441 0.702131 0.115786
H57   H     H_    0.147173 0.809639 0.169767 0.105553
H58   H     H_    0.217394 0.785550 0.404919 0.132866
H59   H     H_    0.577749 0.851368 0.903220 0.129316
H60   H     H_    0.548945 0.832455 0.835908 0.132976
H61   H     H_    0.596514 0.043335 0.891422 0.144233
H62   H     H_    0.947292 0.216948 0.911923 0.368102
H63   H     H_    0.887907 0.752731 0.172248 0.364447
H64   H     H_    0.873060 0.544873 0.479043 0.365683
H65   H     H_    0.414399 0.489851 0.241757 0.341423
H66   H     H_    0.703121 0.983525 0.771279 0.118864
H67   H     H_    0.552005 0.150451 0.662187 0.109441
H68   H     H_    0.501363 0.217439 0.597646 0.129847
N1    N     N_R   0.751030 0.598091 0.767498 -0.234498
N2    N     N_R   0.746930 0.595241 0.729561 -0.236066
N3    N     N_R   0.589634 0.747593 0.730635 -0.238243
N4    N     N_R   0.593865 0.750590 0.768617 -0.237584
O1    O     O_R   0.502070 0.323090 0.541280 -0.516813
O2    O     O_R   0.831550 0.656950 0.958960 -0.516654
O3    O     O_R   0.998590 0.685540 0.963930 -0.508487
O4    O     O_R   0.338340 0.520690 0.539540 -0.500279
O5    O     O_R   0.008220 0.831200 0.045060 -0.518298
O6    O     O_R   0.813270 0.997930 0.038810 -0.492132
O7    O     O_R   0.657500 0.016560 0.039940 -0.519136
O8    O     O_R   0.685680 0.820940 0.038120 -0.503676
O9    O     O_R   0.822130 0.666070 0.043610 -0.511564
O10   O     O_R   0.989860 0.694000 0.042400 -0.502256
O11   O     O_3   0.833990 0.833400 0.000560 -0.258443
O12   O     O_R   0.520720 0.641670 0.461580 -0.515668
O13   O     O_R   0.324760 0.674070 0.543580 -0.518993
O14   O     O_R   0.522400 0.640310 0.540110 -0.501906
O15   O     O_R   0.675940 0.500630 0.542210 -0.511316
O16   O     O_R   0.641790 0.337020 0.538150 -0.505715
O17   O     O_R   0.500260 0.324550 0.456580 -0.518693
O18   O     O_R   0.336660 0.522040 0.461020 -0.501594
O19   O     O_R   0.322940 0.675540 0.458880 -0.522745
O20   O     O_2   0.821209 0.175754 0.955195 -0.276218
O21   O     O_2   0.968703 0.029013 0.924562 -0.287704
O22   O     O_3   0.899728 0.208362 0.894652 -0.545729
O23   O     O_R   0.674120 0.502090 0.457500 -0.437698
O24   O     O_2   0.708650 0.891066 0.204860 -0.306470
O25   O     O_2   0.846877 0.789271 0.249775 -0.311637
O26   O     O_3   0.855634 0.713788 0.181789 -0.544301
O27   O     O_2   0.872300 0.426131 0.421201 -0.280913
O28   O     O_2   0.913591 0.557350 0.402086 -0.289174
O29   O     O_3   0.809149 0.588084 0.464671 -0.517383
O30   O     O_2   0.557758 0.392475 0.162338 -0.241611
O31   O     O_2   0.421651 0.366323 0.187954 -0.309057
O32   O     O_3   0.467949 0.488336 0.224963 -0.545212
O33   O     O_R   0.640110 0.338380 0.459630 -0.500363
O34   O     O_3   0.499990 0.499990 0.499990 -0.251740
O35   O     O_R   0.017640 0.822070 0.960410 -0.480927
O36   O     O_R   0.822000 0.989470 0.960340 -0.420408
O37   O     O_R   0.666920 0.007430 0.955290 -0.533213
O38   O     O_R   0.694410 0.812480 0.959650 -0.505799
S1    S     S_3+6 0.871384 0.128061 0.917584 0.006946
S2    S     S_3+6 0.780686 0.784431 0.218441 -0.027433
S3    S     S_3+6 0.833294 0.539363 0.419922 0.014566
S4    S     S_3+6 0.510585 0.380867 0.198365 -0.008334

loop_
_geom_bond_atom_site_label_1
_geom_bond_atom_site_label_2
_ccdc_geom_bond_type
C16   H51   S    
C48   C55   A    
H64   O29   S    
C63   C65   A    
Cr1   O34   S    
C76   C105  S    
Cr5   O37   S    
C22   C29   A    
C80   C81   A    
C5    C114  A    
C24   C42   S    
C54   C55   A    
C1    O4    A    
O21   S1    D    
C26   C63   S    
Cr5   O11   S    
C113  H32   S    
C95   H54   S    
C24   O37   A    
C53   H56   S    
C92   C93   A    
C81   C82   A    
C85   C91   A    
Cr3   O33   S    
C25   O38   A    
C53   C54   A    
C108  C109  A    
N3    N4    A    
C52   O1    A    
C9    H27   S    
C93   C94   A    
C87   H25   S    
C115  H35   S    
C33   N2    A    
Cr4   O11   S    
C65   H5    S    
O26   S2    S    
C36   C37   A    
H63   O26   S    
Cr5   O8    S    
C34   C35   A    
C24   O36   A    
C52   C61   S    
C20   C40   A    
C75   H13   S    
H62   O22   S    
C88   O33   A    
C5    C110  S    
C97   S2    S    
C115  C116  A    
C62   H52   S    
C74   H11   S    
C29   C33   S    
Cr4   O5    S    
O32   S4    S    
C56   C57   A    
C39   O15   A    
C102  C105  A    
C18   C19   A    
Cr6   O10   S    
C57   C61   A    
C26   O3    A    
C2    C13   A    
C110  C111  A    
C107  C113  A    
C46   C47   A    
C108  H31   S    
C63   C69   A    
C69   H6    S    
C16   C17   A    
C88   O17   A    
C67   C77   S    
C107  C108  A    
C62   C73   A    
C70   C71   A    
C32   C38   S    
Cr6   O11   S    
C106  H55   S    
C34   H48   S    
C9    C29   A    
C91   H20   S    
C9    C112  A    
C13   H47   S    
C30   O5    A    
C48   H34   S    
C94   C104  S    
C102  S3    S    
Cr5   O38   S    
C54   H66   S    
O27   S3    D    
C70   C77   A    
C52   O16   A    
O22   S1    S    
O31   S4    D    
O25   S2    D    
C46   H2    S    
C36   C41   A    
C51   C62   A    
C2    H58   S    
C14   C30   S    
C80   C83   A    
C1    O13   A    
C15   H44   S    
C76   O12   A    
Cr3   O34   S    
C97   C98   A    
C66   H10   S    
C26   O35   A    
C101  C105  A    
C7    C12   A    
C96   H26   S    
C99   H28   S    
O28   S3    D    
Cr3   O15   S    
C50   C53   A    
C22   C31   A    
C12   C88   S    
C92   H24   S    
N1    N2    A    
C6    H40   S    
C64   O19   A    
Cr1   O17   S    
C13   C21   A    
C66   C67   A    
O24   S2    D    
C112  H1    S    
C72   C74   A    
C10   C11   A    
C25   C41   S    
C6    C11   A    
H65   O32   S    
C78   C79   A    
C68   C69   A    
C114  S4    S    
C21   C95   A    
Cr2   O34   S    
C58   C59   A    
C85   C86   A    
C23   C106  A    
C7    H41   S    
C101  H29   S    
C15   C16   A    
C56   C60   A    
C32   N1    A    
C20   H50   S    
C43   H61   S    
C44   H45   S    
Cr6   O9    S    
C73   H53   S    
Cr2   O14   S    
C43   C44   A    
C37   C38   A    
Cr1   O1    S    
C95   C106  A    
C78   C82   A    
C81   H7    S    
C27   C107  S    
C76   O23   A    
C8    C12   A    
C96   C97   A    
C2    C23   A    
C27   O7    A    
C17   C18   A    
C49   H23   S    
C111  C113  A    
C31   C100  A    
C94   C96   A    
C11   C116  S    
C75   C77   A    
C25   O2    A    
O29   S3    S    
C90   H30   S    
C67   C68   A    
C99   C101  A    
C4    H39   S    
C18   H57   S    
C58   H4    S    
C87   C89   A    
C3    H38   S    
C27   O6    A    
O20   S1    D    
C42   C43   A    
C31   H3    S    
Cr4   O36   S    
C3    C4    A    
C109  H37   S    
C21   C51   S    
C30   O10   A    
C44   C45   A    
C86   C87   A    
C39   O14   A    
C56   H67   S    
C23   C64   S    
Cr3   O16   S    
C73   C84   A    
Cr2   O12   S    
C34   C38   A    
C28   O9    A    
C14   C19   A    
Cr1   O18   S    
C111  H42   S    
Cr6   O2    S    
C4    C5    A    
C103  H21   S    
C10   H33   S    
C114  C115  A    
C6    C7    A    
C1    C83   S    
C40   C51   A    
C22   H36   S    
C59   H12   S    
C89   C98   S    
C3    C116  A    
C17   C84   S    
C28   O8    A    
C32   N4    A    
C20   C84   A    
Cr2   O13   S    
O30   S4    D    
C50   C60   S    
C57   H68   S    
C80   H18   S    
C109  C110  A    
C35   H15   S    
C71   H8    S    
C79   C83   A    
Cr5   O7    S    
C39   C100  S    
C58   C61   A    
C48   C49   A    
C37   H60   S    
C93   H22   S    
C70   H9    S    
Cr4   O6    S    
C99   C104  A    
Cr2   O19   S    
C42   C47   A    
C65   C66   A    
Cr6   O3    S    
C102  C103  A    
C35   C41   A    
C28   C85   S    
C8    H43   S    
C92   C98   A    
C33   N3    A    
C45   C46   A    
C59   C60   A    
C79   H16   S    
C71   C72   A    
C74   C75   A    
C45   C55   S    
C8    C10   A    
C49   C50   A    
C19   H46   S    
C103  C104  A    
Cr3   O23   S    
C14   C15   A    
C64   O18   A    
C68   H17   S    
C36   H59   S    
C100  C112  A    
C89   C90   A    
Cr4   O35   S    
C78   H14   S    
C40   H49   S    
C72   C82   S    
Cr1   O4    S    
C90   C91   A    
C86   H19   S    
C47   S1    S    
