data_mof_unit_pretest_1390.cif
_audit_creation_date              2012-12-11T15:33:41-0500
_audit_creation_method            fapswitch 2.2
_symmetry_space_group_name_H-M    P1
_symmetry_Int_Tables_number       1
_space_group_crystal_system       triclinic
_cell_length_a                    27.042569
_cell_length_b                    7.200557
_cell_length_c                    22.81611
_cell_angle_alpha                 89.979742
_cell_angle_beta                  101.159716
_cell_angle_gamma                 89.985381
_cell_volume                      4358.78144185

loop_
_atom_site_label
_atom_site_type_symbol
_atom_type_description
_atom_site_fract_x
_atom_site_fract_y
_atom_site_fract_z
_atom_type_partial_charge
O1    O     O_R   0.207310 0.594030 0.676830 -0.541630
O2    O     O_R   0.792690 0.405970 0.323170 -0.541625
O3    O     O_R   0.292690 0.094030 0.823170 -0.541620
O4    O     O_R   0.707310 0.905970 0.176830 -0.541617
O5    O     O_R   0.197320 0.262370 0.795700 -0.545040
O6    O     O_R   0.802680 0.737630 0.204300 -0.545040
O7    O     O_R   0.302680 0.762370 0.704300 -0.544878
O8    O     O_R   0.697320 0.237630 0.295700 -0.544872
C1    C     C_R   0.184836 0.432443 0.812177 0.671366
C2    C     C_R   0.815163 0.567557 0.187823 0.671369
C3    C     C_R   0.315166 0.932451 0.687826 0.670785
C4    C     C_R   0.684834 0.067549 0.312174 0.670785
O9    O     O_R   0.201410 0.264250 0.675590 -0.526697
O10   O     O_R   0.798590 0.735750 0.324410 -0.526704
O11   O     O_R   0.298590 0.764250 0.824410 -0.526192
O12   O     O_R   0.701410 0.235750 0.175590 -0.526189
O13   O     O_R   0.296810 0.094940 0.702210 -0.532012
O14   O     O_R   0.703190 0.905060 0.297790 -0.532014
O15   O     O_R   0.203190 0.594940 0.797790 -0.531880
O16   O     O_R   0.796810 0.405060 0.202210 -0.531880
C5    C     C_R   0.189839 0.432684 0.653532 0.745130
C6    C     C_R   0.810161 0.567316 0.346467 0.745149
C7    C     C_R   0.310169 0.932580 0.846470 0.744671
C8    C     C_R   0.689831 0.067420 0.153530 0.744671
O17   O     O_3   0.281300 0.427390 0.758870 -0.375328
O18   O     O_3   0.718700 0.572610 0.241130 -0.375327
O19   O     O_3   0.218700 0.927390 0.741130 -0.375514
O20   O     O_3   0.781300 0.072610 0.258870 -0.375517
V1    V     V_3+5 0.244190 0.152150 0.748350 1.432969
V2    V     V_3+5 0.755810 0.847850 0.251650 1.432969
V3    V     V_3+5 0.255810 0.652150 0.751650 1.433909
V4    V     V_3+5 0.744190 0.347850 0.248350 1.433930
C9    C     C_R   0.655401 0.061152 0.094944 -0.135000
C10   C     C_R   0.344599 0.938850 0.905056 -0.135002
C11   C     C_R   0.844580 0.560522 0.405045 -0.134471
C12   C     C_R   0.155420 0.439478 0.594955 -0.134477
C13   C     C_R   0.640701 0.107452 0.987958 -0.235948
C14   C     C_R   0.359298 0.892570 0.012043 -0.235942
C15   C     C_R   0.859011 0.601332 0.512233 -0.236289
C16   C     C_R   0.140989 0.398656 0.487767 -0.236274
C17   C     C_R   0.673924 0.100823 0.043035 0.452822
C18   C     C_R   0.326075 0.899202 0.956966 0.452817
C19   C     C_R   0.825868 0.596311 0.457072 0.452341
C20   C     C_R   0.174132 0.403672 0.542927 0.452343
C21   C     C_R   0.603855 0.023040 0.091066 -0.293188
C22   C     C_R   0.396145 0.976945 0.908933 -0.293187
C23   C     C_R   0.896226 0.524486 0.408845 -0.293425
C24   C     C_R   0.103776 0.475528 0.591154 -0.293416
C25   C     C_R   0.569373 0.028177 0.035294 0.093809
C26   C     C_R   0.430627 0.971815 0.964705 0.093809
C27   C     C_R   0.930614 0.527741 0.464694 0.093911
C28   C     C_R   0.069387 0.472269 0.535305 0.093910
C29   C     C_R   0.589086 0.071669 0.983669 0.070994
C30   C     C_R   0.410914 0.928336 0.016331 0.070990
C31   C     C_R   0.910718 0.567441 0.516463 0.071186
C32   C     C_R   0.089283 0.432561 0.483537 0.071179
C33   C     C_R   0.516160 0.994447 0.028936 0.071939
C34   C     C_R   0.483841 0.005542 0.971063 0.071939
C35   C     C_R   0.983897 0.495574 0.471010 0.071915
C36   C     C_R   0.016104 0.504439 0.528989 0.071915
C37   C     C_R   0.505841 0.049722 0.921543 -0.183461
C38   C     C_R   0.494159 0.950273 0.078457 -0.183459
C39   C     C_R   0.993927 0.544944 0.578653 -0.183485
C40   C     C_R   0.006074 0.455066 0.421346 -0.183484
C41   C     C_R   0.557228 0.081516 0.927875 -0.172766
C42   C     C_R   0.442772 0.918488 0.072125 -0.172765
C43   C     C_R   0.942473 0.575239 0.572357 -0.172837
C44   C     C_R   0.057527 0.424764 0.427642 -0.172835
H1    H     H_    0.572215 0.115207 0.888392 0.127958
H2    H     H_    0.427784 0.884806 0.111608 0.127958
H3    H     H_    0.927346 0.606038 0.611953 0.127956
H4    H     H_    0.072654 0.393959 0.388047 0.127957
H5    H     H_    0.408025 0.005974 0.867459 0.116924
H6    H     H_    0.591976 0.993993 0.132539 0.116925
H7    H     H_    0.091772 0.501866 0.632717 0.116665
H8    H     H_    0.908229 0.498161 0.367282 0.116663
H9    H     H_    0.655418 0.142599 0.948409 0.135948
H10   H     H_    0.344580 0.857439 0.051593 0.135953
H11   H     H_    0.844149 0.633566 0.551905 0.135769
H12   H     H_    0.155850 0.366412 0.448095 0.135779
H13   H     H_    0.484323 0.061580 0.876802 0.123600
H14   H     H_    0.515677 0.938419 0.123198 0.123600
H15   H     H_    0.015352 0.554942 0.623488 0.123616
H16   H     H_    0.984649 0.445066 0.376511 0.123616
C45   C     C_R   0.630426 0.881935 0.368826 -0.135053
C46   C     C_R   0.369575 0.118065 0.631175 -0.135054
C47   C     C_R   0.869542 0.381972 0.131134 -0.135320
C48   C     C_R   0.130459 0.618027 0.868866 -0.135315
H17   H     H_    0.645788 0.754313 0.354708 0.129050
H18   H     H_    0.354214 0.245688 0.645295 0.129045
H19   H     H_    0.854161 0.254354 0.145230 0.128714
H20   H     H_    0.145840 0.745646 0.854772 0.128717
C49   C     C_R   0.594588 0.868985 0.405435 -0.143367
C50   C     C_R   0.405412 0.131015 0.594566 -0.143370
C51   C     C_R   0.905378 0.369026 0.094525 -0.143885
C52   C     C_R   0.094622 0.630973 0.905475 -0.143879
H21   H     H_    0.583624 0.732314 0.418081 0.131944
H22   H     H_    0.416377 0.267686 0.581921 0.131943
H23   H     H_    0.916322 0.232361 0.081857 0.131862
H24   H     H_    0.083679 0.767638 0.918144 0.131863
C53   C     C_R   0.573297 0.029526 0.425413 0.022244
C54   C     C_R   0.426702 0.970473 0.574586 0.022246
C55   C     C_R   0.926695 0.529560 0.074575 0.022394
C56   C     C_R   0.073305 0.470439 0.925424 0.022392
C57   C     C_R   0.589029 0.203838 0.407712 -0.136678
C58   C     C_R   0.410970 0.796162 0.592286 -0.136674
C59   C     C_R   0.910985 0.703867 0.092302 -0.136545
C60   C     C_R   0.089014 0.296133 0.907697 -0.136545
H25   H     H_    0.573608 0.330714 0.422266 0.139119
H26   H     H_    0.426389 0.669286 0.577730 0.139118
H27   H     H_    0.926425 0.830739 0.077769 0.139021
H28   H     H_    0.073574 0.169260 0.922229 0.139022
C61   C     C_R   0.624971 0.216939 0.370961 -0.176896
C62   C     C_R   0.375028 0.783061 0.629037 -0.176899
C63   C     C_R   0.875042 0.716966 0.129052 -0.176589
C64   C     C_R   0.124957 0.283034 0.870947 -0.176595
H29   H     H_    0.636189 0.353471 0.358504 0.121541
H30   H     H_    0.363809 0.646529 0.641493 0.121534
H31   H     H_    0.863840 0.853495 0.141528 0.121208
H32   H     H_    0.136159 0.146505 0.858470 0.121209
C65   C     C_R   0.646169 0.056006 0.350863 -0.041744
C66   C     C_R   0.353831 0.943994 0.649137 -0.041739
C67   C     C_R   0.853824 0.556032 0.149128 -0.041271
C68   C     C_R   0.146176 0.443967 0.850872 -0.041277
N1    N     N_R   0.514201 0.168575 0.483987 -0.280148
N2    N     N_R   0.485798 0.831426 0.516012 -0.280148
N3    N     N_R   0.985825 0.668577 0.016037 -0.280185
N4    N     N_R   0.014175 0.331422 0.983963 -0.280185
N5    N     N_R   0.479991 0.154501 0.518772 -0.284944
N6    N     N_R   0.520008 0.845499 0.481228 -0.284944
N7    N     N_R   0.020038 0.654484 0.981257 -0.284989
N8    N     N_R   0.979961 0.345516 0.018742 -0.284990
C69   C     C_R   0.464973 0.985651 0.535608 0.513691
C70   C     C_R   0.535026 0.014349 0.464391 0.513691
C71   C     C_R   0.035031 0.485631 0.964397 0.513659
C72   C     C_R   0.964969 0.514369 0.035603 0.513659
O21   O     O_3   0.275960 0.853052 0.953433 -0.556474
C73   C     C_3   0.249489 0.014276 0.964147 -0.249832
H33   H     H_    0.252115 0.124577 0.930666 0.136309
H34   H     H_    0.263110 0.067728 0.010210 0.143744
H35   H     H_    0.209048 0.978425 0.959913 0.165259
O22   O     O_3   0.724037 0.147001 0.046570 -0.556472
C74   C     C_3   0.750513 0.985805 0.035840 -0.249842
H36   H     H_    0.736893 0.932390 0.989773 0.143743
H37   H     H_    0.747890 0.875470 0.069312 0.136305
H38   H     H_    0.790953 0.021678 0.040077 0.165261
O23   O     O_3   0.224390 0.359762 0.546384 -0.556796
C75   C     C_3   0.250330 0.522342 0.535755 -0.249219
H39   H     H_    0.247288 0.632083 0.569254 0.136709
H40   H     H_    0.236582 0.575747 0.489697 0.143592
H41   H     H_    0.290895 0.488319 0.540044 0.165325
O24   O     O_3   0.775608 0.640196 0.453615 -0.556801
C76   C     C_3   0.749678 0.477616 0.464268 -0.249206
H42   H     H_    0.763419 0.424318 0.510340 0.143597
H43   H     H_    0.752738 0.367808 0.430796 0.136699
H44   H     H_    0.709109 0.511600 0.459956 0.165321

loop_
_geom_bond_atom_site_label_1
_geom_bond_atom_site_label_2
_ccdc_geom_bond_type
N1    C70   A    
O17   V3    S    
C74   H38   S    
C48   C52   A    
O1    C5    A    
C56   C71   S    
C47   H19   S    
O19   V1    S    
C9    C21   A    
O3    C7    A    
O23   C75   S    
C10   C18   A    
C75   H41   S    
C48   C68   A    
O15   V3    S    
C1    C68   S    
C25   C33   A    
C33   C38   A    
C5    C12   S    
C53   C70   S    
O7    C3    A    
C6    C11   S    
C35   C40   A    
C26   C30   A    
C58   C62   A    
C36   C39   A    
C40   C44   A    
C57   C61   A    
C75   H40   S    
C23   H8    S    
C14   C18   A    
N7    C71   A    
C58   H26   S    
O4    C8    A    
C51   H23   S    
C44   H4    S    
C50   H22   S    
C74   H36   S    
O1    V3    S    
C20   O23   S    
O13   V1    S    
O2    V4    S    
O3    V1    S    
C40   H16   S    
C46   C50   A    
C45   C49   A    
C1    O15   A    
C15   C31   A    
C4    C65   S    
C48   H20   S    
N2    C69   A    
C2    O16   A    
C16   C32   A    
C47   C51   A    
O2    C6    A    
C16   H12   S    
C45   C65   A    
C10   C22   A    
C76   H43   S    
C11   C19   A    
C16   C20   A    
C43   H3    S    
N8    C72   A    
C13   C29   A    
C34   C37   A    
O11   C7    A    
C38   H14   S    
C11   C23   A    
C35   C36   A    
O12   C8    A    
C18   O21   S    
C24   H7    S    
N6    C70   A    
O10   V2    S    
N4    N8    A    
C51   C55   A    
O5    V1    S    
C53   C57   A    
C39   C43   A    
O7    V3    S    
C38   C42   A    
C26   C34   A    
C63   C67   A    
C75   H39   S    
C2    C67   S    
C46   H18   S    
N4    C71   A    
C49   C53   A    
C45   H17   S    
O18   V4    S    
C15   C19   A    
C14   H10   S    
C32   C44   A    
C13   H9    S    
C64   H32   S    
C39   H15   S    
C21   H6    S    
O8    V4    S    
C55   C72   S    
O5    C1    A    
C37   C41   A    
C31   C43   A    
C14   C30   A    
C21   C25   A    
O8    C4    A    
C7    C10   S    
O9    C5    A    
N3    C72   A    
C76   H44   S    
C59   C63   A    
C62   H30   S    
C73   H34   S    
C61   H29   S    
O6    V2    S    
C63   H31   S    
C52   C56   A    
N1    N5    A    
O14   V2    S    
N5    C69   A    
C12   C20   A    
C3    C66   S    
C27   C35   A    
C49   H21   S    
C56   C60   A    
C29   C41   A    
O16   V4    S    
O9    V1    S    
C74   H37   S    
C57   H25   S    
C3    O13   A    
C64   C68   A    
C59   H27   S    
C73   H35   S    
O6    C2    A    
C23   C27   A    
O11   V3    S    
C30   C42   A    
O12   V4    S    
O21   C73   S    
C22   C26   A    
C8    C9    S    
C9    C17   A    
O10   C6    A    
O20   V2    S    
C54   C69   S    
C17   O22   S    
C37   H13   S    
C47   C67   A    
C60   C64   A    
C33   C34   A    
C42   H2    S    
C41   H1    S    
C52   H24   S    
C12   C24   A    
C27   C31   A    
C13   C17   A    
C46   C66   A    
N3    N7    A    
C25   C29   A    
C73   H33   S    
C62   C66   A    
C60   H28   S    
C24   C28   A    
C61   C65   A    
O24   C76   S    
C50   C54   A    
C28   C36   A    
C54   C58   A    
C4    O14   A    
N2    N6    A    
O22   C74   S    
C55   C59   A    
C76   H42   S    
C22   H5    S    
O4    V2    S    
C19   O24   S    
C28   C32   A    
C15   H11   S    
