data_mof_unit_pretest_1068.cif
_audit_creation_date              2012-12-11T17:07:56-0500
_audit_creation_method            fapswitch 2.2
_symmetry_space_group_name_H-M    P1
_symmetry_Int_Tables_number       1
_space_group_crystal_system       triclinic
_cell_length_a                    17.130197
_cell_length_b                    17.130197
_cell_length_c                    17.243469
_cell_angle_alpha                 89.999957
_cell_angle_beta                  89.999939
_cell_angle_gamma                 90.0
_cell_volume                      5059.98646924

loop_
_atom_site_label
_atom_site_type_symbol
_atom_type_description
_atom_site_fract_x
_atom_site_fract_y
_atom_site_fract_z
_atom_type_partial_charge
C1    C     C_R   0.393978 0.301642 0.899127 -0.157143
C2    C     C_R   0.198358 0.893978 0.399127 -0.157142
C3    C     C_R   0.773013 0.865376 0.198277 -0.199525
C4    C     C_R   0.134624 0.226987 0.801723 -0.199525
C5    C     C_R   0.319800 0.772926 0.648625 -0.203204
C6    C     C_R   0.865376 0.773013 0.801723 -0.199525
C7    C     C_R   0.680200 0.227074 0.648625 -0.203203
C8    C     C_R   0.634624 0.273014 0.698276 -0.199525
C9    C     C_R   0.819800 0.727074 0.851374 -0.203204
C10   C     C_R   0.365376 0.726987 0.698276 -0.199525
C11   C     C_R   0.180200 0.272926 0.851374 -0.203203
C12   C     C_R   0.727074 0.819800 0.148626 -0.203204
C13   C     C_R   0.076620 0.169590 0.355493 -0.147197
C14   C     C_R   0.726986 0.365376 0.301723 -0.199526
C15   C     C_R   0.272927 0.180200 0.148626 -0.203205
C16   C     C_R   0.273013 0.634624 0.301723 -0.199525
C17   C     C_R   0.801642 0.106022 0.399127 -0.157142
C18   C     C_R   0.893978 0.198358 0.600873 -0.157142
C19   C     C_R   0.169590 0.076620 0.644506 -0.147197
C20   C     C_R   0.106022 0.801642 0.600873 -0.157142
C21   C     C_R   0.830410 0.923380 0.644506 -0.147197
C22   C     C_3   0.859384 0.347483 0.694453 -0.525596
C23   C     C_3   0.689118 0.896254 0.751223 -0.522797
C24   C     C_3   0.140617 0.652516 0.694453 -0.525595
C25   C     C_R   0.669590 0.423380 0.855493 -0.147198
C26   C     C_3   0.310882 0.103746 0.751223 -0.522796
C27   C     C_3   0.896254 0.689118 0.248776 -0.522795
C28   C     C_3   0.652517 0.140616 0.305547 -0.525595
C29   C     C_3   0.103745 0.310881 0.248775 -0.522801
C30   C     C_3   0.347484 0.859383 0.305547 -0.525596
C31   C     C_3   0.396253 0.810881 0.251222 -0.522798
C32   C     C_3   0.152514 0.359382 0.194450 -0.525599
C33   C     C_3   0.603747 0.189118 0.251222 -0.522798
C34   C     C_3   0.847485 0.640617 0.194451 -0.525595
C35   C     C_3   0.359383 0.152516 0.805548 -0.525594
C36   C     C_R   0.606022 0.698358 0.899127 -0.157143
C37   C     C_3   0.189118 0.603747 0.748778 -0.522797
C38   C     C_3   0.640617 0.847484 0.805548 -0.525597
C39   C     C_3   0.810882 0.396253 0.748778 -0.522796
C40   C     C_R   0.420338 0.671156 0.855724 -0.126050
C41   C     C_R   0.302000 0.392508 0.897786 -0.140973
C42   C     C_R   0.579662 0.328844 0.855724 -0.126050
C43   C     C_R   0.698000 0.607492 0.897786 -0.140973
C44   C     C_R   0.392508 0.302000 0.102214 -0.140973
C45   C     C_R   0.328844 0.579662 0.144276 -0.126049
C46   C     C_R   0.607492 0.698000 0.102214 -0.140972
C47   C     C_R   0.330410 0.576620 0.855493 -0.147197
C48   C     C_R   0.671156 0.420338 0.144276 -0.126049
C49   C     C_R   0.892508 0.198000 0.397786 -0.140972
C50   C     C_R   0.828844 0.920338 0.355725 -0.126050
C51   C     C_R   0.107492 0.802000 0.397786 -0.140972
C52   C     C_R   0.171156 0.079662 0.355724 -0.126049
C53   C     C_R   0.920338 0.828844 0.644275 -0.126049
C54   C     C_R   0.802000 0.107492 0.602214 -0.140972
C55   C     C_R   0.079662 0.171156 0.644275 -0.126049
C56   C     C_R   0.198000 0.892508 0.602214 -0.140972
C57   C     C_R   0.316360 0.314480 0.882756 0.083174
C58   C     C_R   0.423380 0.669590 0.144507 -0.147197
C59   C     C_R   0.639009 0.362863 0.811932 0.072690
C60   C     C_R   0.683640 0.685519 0.882756 0.083174
C61   C     C_R   0.360991 0.637137 0.811932 0.072690
C62   C     C_R   0.362863 0.639009 0.188068 0.072690
C63   C     C_R   0.685520 0.683640 0.117244 0.083174
C64   C     C_R   0.637137 0.360991 0.188068 0.072689
C65   C     C_R   0.314480 0.316360 0.117244 0.083174
C66   C     C_R   0.862862 0.860991 0.311933 0.072690
C67   C     C_R   0.185519 0.816360 0.382756 0.083173
C68   C     C_R   0.137137 0.139009 0.311932 0.072690
C69   C     C_R   0.698358 0.606022 0.100873 -0.157143
C70   C     C_R   0.814481 0.183639 0.382756 0.083173
C71   C     C_R   0.816361 0.185519 0.617244 0.083173
C72   C     C_R   0.139009 0.137138 0.688067 0.072690
C73   C     C_R   0.183640 0.814481 0.617244 0.083173
C74   C     C_R   0.860991 0.862863 0.688068 0.072690
C75   C     C_R   0.739902 0.365465 0.708059 0.166487
C76   C     C_R   0.715505 0.820511 0.841354 0.162783
C77   C     C_R   0.260099 0.634535 0.708059 0.166487
C78   C     C_R   0.284495 0.179489 0.841353 0.162783
C79   C     C_R   0.820511 0.715505 0.158646 0.162783
C80   C     C_R   0.576620 0.330410 0.144507 -0.147197
C81   C     C_R   0.634535 0.260098 0.291941 0.166488
C82   C     C_R   0.179489 0.284494 0.158646 0.162785
C83   C     C_R   0.365465 0.739901 0.291941 0.166488
C84   C     C_R   0.320511 0.784495 0.341353 0.162784
C85   C     C_R   0.134535 0.239901 0.208058 0.166489
C86   C     C_R   0.679489 0.215505 0.341353 0.162783
C87   C     C_R   0.865465 0.760099 0.208059 0.166487
C88   C     C_R   0.239901 0.134535 0.791941 0.166487
C89   C     C_R   0.215505 0.679489 0.658647 0.162784
C90   C     C_R   0.760099 0.865465 0.791941 0.166488
C91   C     C_R   0.301642 0.393978 0.100873 -0.157143
C92   C     C_R   0.784495 0.320511 0.658647 0.162783
C93   C     C_R   0.668705 0.337048 0.736658 0.032149
C94   C     C_R   0.740559 0.745791 0.862753 0.030896
C95   C     C_R   0.331295 0.662952 0.736658 0.032149
C96   C     C_R   0.259441 0.254209 0.862753 0.030895
C97   C     C_R   0.745791 0.740559 0.137247 0.030895
C98   C     C_R   0.662952 0.331295 0.263342 0.032149
C99   C     C_R   0.254209 0.259440 0.137247 0.030895
C100  C     C_R   0.337048 0.668705 0.263342 0.032149
C101  C     C_R   0.245791 0.759441 0.362753 0.030896
C102  C     C_R   0.923380 0.830410 0.355494 -0.147197
C103  C     C_R   0.162952 0.168705 0.236658 0.032149
C104  C     C_R   0.754209 0.240559 0.362753 0.030896
C105  C     C_R   0.837048 0.831295 0.236658 0.032149
C106  C     C_R   0.168705 0.162952 0.763342 0.032149
C107  C     C_R   0.240559 0.754209 0.637247 0.030896
C108  C     C_R   0.831295 0.837048 0.763342 0.032149
C109  C     C_R   0.759441 0.245791 0.637247 0.030896
C110  C     C_R   0.227074 0.680200 0.351374 -0.203204
C111  C     C_R   0.226987 0.134624 0.198277 -0.199525
C112  C     C_R   0.772926 0.319800 0.351374 -0.203203
H1    H     H_    0.421865 0.245813 0.907846 0.100178
H2    H     H_    0.254187 0.921865 0.407846 0.100178
H3    H     H_    0.035134 0.213482 0.338561 0.111556
H4    H     H_    0.745813 0.078135 0.407846 0.100178
H5    H     H_    0.921865 0.254187 0.592154 0.100178
H6    H     H_    0.213482 0.035134 0.661439 0.111556
H7    H     H_    0.078135 0.745813 0.592154 0.100178
H8    H     H_    0.786518 0.964866 0.661439 0.111556
H9    H     H_    0.891699 0.300369 0.725122 0.199529
H10   H     H_    0.681081 0.960016 0.760290 0.192410
H11   H     H_    0.108301 0.699631 0.725121 0.199529
H12   H     H_    0.713482 0.464866 0.838561 0.111556
H13   H     H_    0.318919 0.039984 0.760290 0.192410
H14   H     H_    0.960016 0.681081 0.239709 0.192410
H15   H     H_    0.699631 0.108301 0.274878 0.199529
H16   H     H_    0.039983 0.318917 0.239707 0.192412
H17   H     H_    0.300370 0.891699 0.274879 0.199529
H18   H     H_    0.460015 0.818919 0.260289 0.192411
H19   H     H_    0.199628 0.391699 0.225119 0.199530
H20   H     H_    0.539985 0.181080 0.260288 0.192411
H21   H     H_    0.800371 0.608301 0.225120 0.199529
H22   H     H_    0.391699 0.199630 0.774879 0.199529
H23   H     H_    0.578135 0.754187 0.907846 0.100178
H24   H     H_    0.181081 0.539985 0.739711 0.192411
H25   H     H_    0.608301 0.800370 0.774879 0.199530
H26   H     H_    0.818920 0.460015 0.739712 0.192410
H27   H     H_    0.894929 0.383168 0.653790 0.189688
H28   H     H_    0.683950 0.876167 0.690098 0.200005
H29   H     H_    0.105072 0.616832 0.653789 0.189688
H30   H     H_    0.316050 0.123833 0.690098 0.200004
H31   H     H_    0.876168 0.683949 0.309902 0.200004
H32   H     H_    0.616832 0.105071 0.346210 0.189688
H33   H     H_    0.123831 0.316050 0.309900 0.200005
H34   H     H_    0.286518 0.535134 0.838561 0.111556
H35   H     H_    0.383168 0.894928 0.346211 0.189688
H36   H     H_    0.376166 0.816050 0.190097 0.200005
H37   H     H_    0.116830 0.394926 0.153786 0.189689
H38   H     H_    0.623834 0.183950 0.190097 0.200005
H39   H     H_    0.883170 0.605073 0.153787 0.189688
H40   H     H_    0.394928 0.116831 0.846212 0.189688
H41   H     H_    0.183950 0.623834 0.809903 0.200005
H42   H     H_    0.605072 0.883169 0.846212 0.189688
H43   H     H_    0.816050 0.376166 0.809903 0.200005
H44   H     H_    0.172626 0.656017 0.372059 0.124912
H45   H     H_    0.464866 0.713482 0.161439 0.111556
H46   H     H_    0.247746 0.077084 0.213853 0.126711
H47   H     H_    0.827373 0.343983 0.372060 0.124912
H48   H     H_    0.752254 0.922915 0.213852 0.126711
H49   H     H_    0.077084 0.247746 0.786148 0.126711
H50   H     H_    0.343983 0.827374 0.627940 0.124912
H51   H     H_    0.922916 0.752255 0.786148 0.126711
H52   H     H_    0.656017 0.172627 0.627940 0.124912
H53   H     H_    0.577084 0.252255 0.713851 0.126711
H54   H     H_    0.843983 0.672626 0.872059 0.124912
H55   H     H_    0.422916 0.747745 0.713851 0.126711
H56   H     H_    0.754187 0.578135 0.092154 0.100178
H57   H     H_    0.156017 0.327374 0.872059 0.124911
H58   H     H_    0.672626 0.843983 0.127941 0.124912
H59   H     H_    0.747745 0.422916 0.286149 0.126712
H60   H     H_    0.327374 0.156017 0.127942 0.124912
H61   H     H_    0.252255 0.577084 0.286148 0.126711
H62   H     H_    0.457505 0.719386 0.839575 0.093137
H63   H     H_    0.245434 0.419979 0.902684 0.083525
H64   H     H_    0.542495 0.280614 0.839575 0.093137
H65   H     H_    0.754566 0.580021 0.902684 0.083525
H66   H     H_    0.419979 0.245434 0.097315 0.083525
H67   H     H_    0.535134 0.286518 0.161439 0.111556
H68   H     H_    0.280614 0.542495 0.160425 0.093137
H69   H     H_    0.580021 0.754566 0.097316 0.083525
H70   H     H_    0.719386 0.457504 0.160425 0.093137
H71   H     H_    0.919979 0.254566 0.402684 0.083526
H72   H     H_    0.780614 0.957505 0.339575 0.093137
H73   H     H_    0.080021 0.745434 0.402684 0.083525
H74   H     H_    0.219386 0.042495 0.339575 0.093137
H75   H     H_    0.957505 0.780614 0.660425 0.093137
H76   H     H_    0.745434 0.080021 0.597316 0.083525
H77   H     H_    0.042495 0.219386 0.660425 0.093137
H78   H     H_    0.245813 0.421865 0.092154 0.100178
H79   H     H_    0.254566 0.919979 0.597316 0.083525
H80   H     H_    0.964866 0.786518 0.338561 0.111556
N1    N     N_R   0.425360 0.368540 0.922560 -0.035711
N2    N     N_R   0.131460 0.925360 0.422560 -0.035711
N3    N     N_R   0.074640 0.131460 0.422560 -0.041779
N4    N     N_R   0.868540 0.074640 0.422560 -0.035711
N5    N     N_R   0.925360 0.131460 0.577440 -0.035711
N6    N     N_R   0.131460 0.074640 0.577440 -0.041779
N7    N     N_R   0.074640 0.868540 0.577440 -0.035711
N8    N     N_R   0.868540 0.925360 0.577440 -0.041779
N9    N     N_R   0.425340 0.631500 0.922560 -0.041455
N10   N     N_R   0.368500 0.425340 0.922560 -0.036374
N11   N     N_R   0.574660 0.368500 0.922560 -0.041455
N12   N     N_R   0.631460 0.425360 0.922560 -0.041779
N13   N     N_R   0.631500 0.574660 0.922560 -0.036374
N14   N     N_R   0.425340 0.368500 0.077440 -0.036374
N15   N     N_R   0.368500 0.574660 0.077440 -0.041455
N16   N     N_R   0.574660 0.631500 0.077440 -0.036374
N17   N     N_R   0.631500 0.425340 0.077440 -0.041455
N18   N     N_R   0.925340 0.131500 0.422560 -0.036374
N19   N     N_R   0.868500 0.925340 0.422560 -0.041455
N20   N     N_R   0.074660 0.868500 0.422560 -0.036374
N21   N     N_R   0.131500 0.074660 0.422560 -0.041455
N22   N     N_R   0.925340 0.868500 0.577440 -0.041455
N23   N     N_R   0.574640 0.631460 0.922560 -0.035711
N24   N     N_R   0.868500 0.074660 0.577440 -0.036374
N25   N     N_R   0.074660 0.131500 0.577440 -0.041455
N26   N     N_R   0.131500 0.925340 0.577440 -0.036374
N27   N     N_R   0.368540 0.574640 0.922560 -0.041779
N28   N     N_R   0.425360 0.631460 0.077440 -0.041779
N29   N     N_R   0.631460 0.574640 0.077440 -0.035711
N30   N     N_R   0.574640 0.368540 0.077440 -0.041779
N31   N     N_R   0.368540 0.425360 0.077440 -0.035711
N32   N     N_R   0.925360 0.868540 0.422560 -0.041779
Ni1   Ni    Ni4+2 0.500000 0.369720 0.000000 0.207972
Ni2   Ni    Ni4+2 0.630280 0.500000 0.000000 0.207972
Ni3   Ni    Ni4+2 0.500000 0.630280 0.000000 0.207972
Ni4   Ni    Ni4+2 0.369720 0.500000 0.000000 0.207972
Ni5   Ni    Ni4+2 0.000000 0.869720 0.500000 0.207972
Ni6   Ni    Ni4+2 0.130280 0.000000 0.500000 0.207972
Ni7   Ni    Ni4+2 0.000000 0.130280 0.500000 0.207972
Ni8   Ni    Ni4+2 0.869720 0.000000 0.500000 0.207972

loop_
_geom_bond_atom_site_label_1
_geom_bond_atom_site_label_2
_ccdc_geom_bond_type
C11   C96   A    
C58   C62   A    
C40   H62   S    
N11   N12   A    
C53   N22   A    
N17   N30   A    
C112  H47   S    
C43   N13   A    
C82   C99   A    
N2    Ni6   S    
C1    N1    A    
C53   C74   A    
C68   C103  S    
C25   N12   A    
C86   C104  A    
C24   C89   S    
C6    C9    A    
C56   N26   A    
C42   N11   A    
C16   C110  A    
C7    C8    A    
C55   N25   A    
C38   C76   S    
C3    C105  A    
C54   N24   A    
C77   C89   A    
N15   N28   A    
C1    H1    S    
C82   C85   A    
C55   H77   S    
C46   H69   S    
C9    H54   S    
C111  H46   S    
C31   H18   S    
C33   H38   S    
C36   N23   A    
C29   H33   S    
C30   C31   S    
C27   H14   S    
C70   C104  S    
C92   C109  A    
C73   C107  S    
C41   C57   A    
C81   C98   A    
C22   C39   S    
C13   N3    A    
C21   H8    S    
C71   C109  S    
C45   C62   A    
C31   C83   S    
C103  C111  A    
C40   N9    A    
C66   C102  A    
N26   Ni6   S    
C80   N30   A    
C3    C12   A    
C45   H68   S    
C76   C94   A    
C49   H71   S    
C58   N28   A    
C51   N20   A    
C32   H37   S    
N4    Ni8   S    
C19   H6    S    
C78   C96   A    
C10   H55   S    
C57   C96   S    
C49   N18   A    
C15   H60   S    
N8    N22   A    
N18   Ni7   S    
C28   H32   S    
C39   C75   S    
N27   Ni4   S    
N14   N31   A    
C29   C85   S    
C81   C86   A    
C52   C68   A    
C28   H15   S    
N4    N18   A    
C64   C98   S    
C41   H63   S    
C39   H26   S    
C17   C70   A    
C45   N15   A    
C54   H76   S    
C30   C84   S    
C84   C101  A    
C64   C80   A    
C44   C65   A    
N7    N26   A    
C52   H74   S    
N14   Ni1   S    
C47   N27   A    
C35   H22   S    
C79   C87   A    
C90   C108  A    
C14   C98   A    
C23   H10   S    
N5    Ni7   S    
C27   C34   S    
C33   C81   S    
C91   H78   S    
C23   C90   S    
N3    N21   A    
N19   Ni8   S    
C54   C71   A    
C102  N32   A    
C80   H67   S    
C15   C111  A    
C23   H28   S    
C30   H35   S    
C19   C72   A    
C65   C99   S    
C2    C67   A    
N22   Ni5   S    
C44   H66   S    
C104  C112  A    
N31   Ni4   S    
C16   C100  A    
N10   Ni4   S    
C34   H21   S    
N16   N29   A    
C4    C106  A    
N29   Ni2   S    
C77   C95   A    
C24   H11   S    
C40   C61   A    
C7    C109  A    
N28   Ni3   S    
C39   H43   S    
C2    N2    A    
C26   H13   S    
C14   C112  A    
C20   N7    A    
C46   N16   A    
C51   H73   S    
C1    C57   A    
C34   C79   S    
C88   C106  A    
N15   Ni4   S    
C102  H80   S    
C83   C84   A    
C87   C105  A    
C24   H29   S    
C89   C107  A    
C18   N5    A    
C44   N14   A    
C24   C37   S    
C37   H24   S    
N3    Ni7   S    
N13   Ni2   S    
C51   C67   A    
C48   N17   A    
C4    C11   A    
C27   C87   S    
C50   C66   A    
C18   H5    S    
N9    N27   A    
C12   C97   A    
C13   H3    S    
N5    N24   A    
C43   C60   A    
C62   C100  S    
C31   H36   S    
C75   C92   A    
C33   H20   S    
C26   C88   S    
C72   C106  S    
C28   C33   S    
C11   H57   S    
C28   C86   S    
C49   C70   A    
C16   H61   S    
C47   H34   S    
C3    H48   S    
N6    N25   A    
C35   H40   S    
C38   H42   S    
C66   C105  S    
C91   N31   A    
C21   C74   A    
C36   H23   S    
N6    Ni6   S    
N11   Ni1   S    
C67   C101  S    
C22   H9    S    
N9    Ni3   S    
C5    C107  A    
C78   C88   A    
C18   C71   A    
C65   C91   A    
C43   H65   S    
C19   N6    A    
C6    C108  A    
C56   C73   A    
C79   C97   A    
C110  H44   S    
C50   H72   S    
C8    C93   A    
C55   C72   A    
C101  C110  A    
C15   C99   A    
C14   H59   S    
C36   C60   A    
C58   H45   S    
C85   C103  A    
C42   C59   A    
C47   C61   A    
C12   H58   S    
C34   H39   S    
C61   C95   S    
C29   C32   S    
C30   H17   S    
C32   C82   S    
C7    H52   S    
C35   C78   S    
N30   Ni1   S    
C23   C38   S    
C46   C63   A    
C83   C100  A    
C59   C93   S    
C5    H50   S    
C37   H41   S    
C53   H75   S    
C69   H56   S    
N1    Ni1   S    
C63   C69   A    
N16   Ni3   S    
C42   H64   S    
N32   Ni5   S    
N25   Ni7   S    
C48   H70   S    
N20   Ni5   S    
C2    H2    S    
C37   C77   S    
C10   C95   A    
C75   C93   A    
C27   H31   S    
N19   N32   A    
C22   H27   S    
C52   N21   A    
N24   Ni8   S    
C38   H25   S    
C20   C73   A    
C69   N29   A    
C20   H7    S    
N7    Ni5   S    
C25   H12   S    
C56   H79   S    
N2    N20   A    
C48   C64   A    
C8    H53   S    
N1    N10   A    
C74   C108  S    
N23   Ni3   S    
C26   C35   S    
C5    C10   A    
N8    Ni8   S    
C6    H51   S    
N13   N23   A    
C63   C97   S    
N17   Ni2   S    
C29   H16   S    
C22   C92   S    
C4    H49   S    
C17   N4    A    
C25   C59   A    
C21   N8    A    
C41   N10   A    
C26   H30   S    
C50   N19   A    
N12   Ni2   S    
C9    C94   A    
C32   H19   S    
N21   Ni6   S    
C17   H4    S    
C76   C90   A    
C13   C68   A    
C60   C94   S    
