data_mof_unit_pretest_1857.cif
_audit_creation_date              2013-03-05T16:41:23-0500
_audit_creation_method            fapswitch 2.2
_symmetry_space_group_name_H-M    P1
_symmetry_Int_Tables_number       1
_space_group_crystal_system       triclinic
_cell_length_a                    17.762821
_cell_length_b                    16.547318
_cell_length_c                    11.710784
_cell_angle_alpha                 89.999988
_cell_angle_beta                  91.64034
_cell_angle_gamma                 90.000015
_cell_volume                      3440.70561739

loop_
_atom_site_label
_atom_site_type_symbol
_atom_site_description
_atom_site_fract_x
_atom_site_fract_y
_atom_site_fract_z
_atom_type_partial_charge
O1    O     O_R   0.391260 0.567930 0.500000 -0.565567
O2    O     O_R   0.608740 0.432070 0.500000 -0.563161
O3    O     O_R   0.608740 0.567930 0.500000 -0.565567
O4    O     O_R   0.391260 0.432070 0.500000 -0.563159
C1    C     C_R   0.355416 0.500018 0.500970 0.863006
C2    C     C_R   0.644584 0.500018 0.499030 0.863006
O5    O     O_R   0.500010 0.567910 0.337200 -0.554092
O6    O     O_R   0.499990 0.432090 0.662800 -0.549718
O7    O     O_R   0.499990 0.567910 0.662800 -0.554092
O8    O     O_R   0.500010 0.432090 0.337200 -0.549718
C3    C     C_R   0.499821 0.499997 0.283722 0.840543
C4    C     C_R   0.500179 0.499997 0.716278 0.840543
Cu1   Cu    Cu3+1 0.500000 0.580420 0.500000 1.065926
Cu2   Cu    Cu3+1 0.500000 0.419580 0.500000 1.069963
C5    C     C_R   0.543201 0.829563 0.580087 -0.254938
C6    C     C_R   0.465502 0.169871 0.411202 -0.256541
C7    C     C_R   0.456799 0.829564 0.419913 -0.254938
C8    C     C_R   0.534498 0.169871 0.588798 -0.256541
H1    H     H_    0.577453 0.861444 0.643527 0.197535
H2    H     H_    0.437928 0.137854 0.340929 0.198410
H3    H     H_    0.422547 0.861444 0.356473 0.197535
H4    H     H_    0.562073 0.137854 0.659072 0.198409
C9    C     C_R   0.542988 0.744018 0.579202 0.467274
C10   C     C_R   0.465122 0.255454 0.412241 0.464777
C11   C     C_R   0.457012 0.744018 0.420798 0.467273
C12   C     C_R   0.534879 0.255454 0.587758 0.464778
N1    N     N_R   0.500000 0.701220 0.500000 -0.297231
N2    N     N_R   0.500000 0.298780 0.500000 -0.291243
C13   C     C_1   0.500000 0.962627 0.500000 0.068761
C14   C     C_1   0.500000 0.036810 0.500000 0.068861
C15   C     C_1   0.499852 0.499978 0.162186 -0.056603
C16   C     C_1   0.500148 0.499978 0.837814 -0.056601
C17   C     C_1   0.499934 0.499962 0.059819 0.081771
C18   C     C_1   0.500066 0.499962 0.940181 0.081771
C19   C     C_R   0.500000 0.873448 0.500000 0.003717
C20   C     C_R   0.500000 0.125995 0.500000 0.005107
C21   C     C_R   0.845243 0.573857 0.479087 0.310249
C22   C     C_R   0.153508 0.427638 0.486069 0.308440
C23   C     C_R   0.154757 0.573857 0.520913 0.310249
C24   C     C_R   0.846492 0.427638 0.513930 0.308439
C25   C     C_R   0.766516 0.572593 0.480796 -0.177118
C26   C     C_R   0.232273 0.427968 0.488989 -0.186132
C27   C     C_R   0.233484 0.572593 0.519204 -0.177118
C28   C     C_R   0.767727 0.427968 0.511010 -0.186132
H5    H     H_    0.735686 0.628301 0.466560 0.221245
H6    H     H_    0.261988 0.371645 0.477382 0.231627
H7    H     H_    0.264314 0.628301 0.533440 0.221244
H8    H     H_    0.738012 0.371645 0.522617 0.231628
C29   C     C_R   0.727407 0.500171 0.496974 -0.156737
C30   C     C_R   0.272592 0.500171 0.503025 -0.156737
C31   C     C_R   0.885465 0.501024 0.497375 -0.137429
C32   C     C_R   0.114535 0.501024 0.502624 -0.137429
C33   C     C_1   0.966219 0.501463 0.499187 0.199775
C34   C     C_1   0.033781 0.501463 0.500812 0.199775
N3    N     N_R   0.588407 0.703161 0.663425 0.148217
O9    O     O_R   0.659101 0.690646 0.643688 -0.326804
O10   O     O_R   0.566959 0.703172 0.768707 -0.326557
N4    N     N_R   0.427735 0.295351 0.318612 0.147730
O11   O     O_R   0.360555 0.324405 0.331312 -0.338255
O12   O     O_R   0.451133 0.283270 0.215737 -0.324115
N5    N     N_R   0.411593 0.703162 0.336575 0.148218
O13   O     O_R   0.340900 0.690646 0.356312 -0.326803
O14   O     O_R   0.433041 0.703173 0.231293 -0.326556
N6    N     N_R   0.572266 0.295351 0.681387 0.147730
O15   O     O_R   0.639447 0.324402 0.668687 -0.338256
O16   O     O_R   0.548866 0.283273 0.784263 -0.324115
N7    N     N_R   0.883003 0.649340 0.458663 0.161477
O17   O     O_R   0.852743 0.717072 0.490331 -0.258030
O18   O     O_R   0.942514 0.651864 0.396497 -0.279421
N8    N     N_R   0.114385 0.352554 0.465458 0.165762
O19   O     O_R   0.144268 0.284732 0.500141 -0.267913
O20   O     O_R   0.054204 0.350250 0.399520 -0.275638
N9    N     N_R   0.116997 0.649340 0.541337 0.161477
O21   O     O_R   0.147257 0.717072 0.509670 -0.258031
O22   O     O_R   0.057486 0.651863 0.603503 -0.279421
N10   N     N_R   0.885615 0.352554 0.534540 0.165762
O23   O     O_R   0.855731 0.284732 0.499857 -0.267913
O24   O     O_R   0.945796 0.350250 0.600478 -0.275638

loop_
_geom_bond_atom_site_label_1
_geom_bond_atom_site_label_2
_geom_bond_distance
_ccdc_geom_bond_type
C28   C29   1.400233 A    
C31   C33   1.433996 S    
N3    O9    1.299902 A    
C22   N8    1.440580 S    
N9    O21   1.301532 A    
C8    C12   1.416241 A    
O3    C2    1.291811 A    
C33   C34   1.199689 T    
O5    C3    1.286461 A    
O1    C1    1.291812 A    
N10   O24   1.301233 A    
C22   C26   1.398531 A    
C21   C31   1.414223 A    
C22   C32   1.413911 A    
N4    O12   1.301080 A    
C26   H6    1.081574 S    
C25   C29   1.400761 A    
N5    O14   1.300830 A    
C12   N6    1.427384 S    
O7    Cu1   1.917726 S    
C15   C17   1.198832 T    
N8    O19   1.301492 A    
C9    N1    1.379975 A    
O3    Cu1   1.942555 S    
C6    H2    1.083866 S    
C5    C9    1.415591 A    
C23   C32   1.414223 A    
C3    C15   1.423307 S    
C6    C10   1.416241 A    
Cu1   Cu2   2.661472 S    
C4    C16   1.423307 S    
O4    Cu2   1.942555 S    
N9    O22   1.301247 A    
O2    C2    1.292319 A    
C5    C19   1.398072 A    
C32   C34   1.433996 S    
N7    O17   1.301535 A    
N10   O23   1.301492 A    
O8    Cu2   1.917726 S    
C23   C27   1.399293 A    
N4    O11   1.298998 A    
C7    H3    1.083760 S    
C24   N10   1.440581 S    
N7    O18   1.301247 A    
C16   C18   1.198832 T    
C5    H1    1.083761 S    
C13   C14   1.227528 T    
O5    Cu1   1.917726 S    
O6    C4    1.286370 A    
C17   C18   1.401132 S    
C11   N5    1.426613 S    
C26   C30   1.400234 A    
N3    O10   1.300831 A    
C1    C30   1.472060 S    
O1    Cu1   1.942555 S    
O6    Cu2   1.917726 S    
C8    H4    1.083865 S    
C10   N2    1.384769 A    
O4    C1    1.292320 A    
C27   C30   1.400761 A    
C9    N3    1.426612 S    
C11   N1    1.379977 A    
C24   C31   1.413911 A    
C13   C19   1.475673 S    
C12   N2    1.384767 A    
C14   C20   1.475776 S    
C7    C11   1.415591 A    
N6    O15   1.298996 A    
C6    C20   1.395531 A    
C8    C20   1.395532 A    
C21   N7    1.440954 S    
C23   N9    1.440955 S    
C2    C29   1.472060 S    
C21   C25   1.399295 A    
N5    O13   1.299902 A    
O2    Cu2   1.942555 S    
O7    C4    1.286461 A    
O8    C3    1.286370 A    
C24   C28   1.398529 A    
C10   N4    1.427384 S    
C25   H5    1.082691 S    
Cu1   N1    1.998914 S    
N8    O20   1.301235 A    
C7    C19   1.398072 A    
Cu2   N2    1.998914 S    
C27   H7    1.082692 S    
C28   H8    1.081574 S    
N6    O16   1.301082 A    
