data_mof_unit_pretest_1119.cif
_audit_creation_date              2012-12-10T20:51:43-0500
_audit_creation_method            fapswitch 2.2
_symmetry_space_group_name_H-M    P1
_symmetry_Int_Tables_number       1
_space_group_crystal_system       triclinic
_cell_length_a                    8.091917
_cell_length_b                    8.934999
_cell_length_c                    16.950552
_cell_angle_alpha                 89.547705
_cell_angle_beta                  96.118438
_cell_angle_gamma                 90.030848
_cell_volume                      1218.52733309

loop_
_atom_site_label
_atom_site_type_symbol
_atom_type_description
_atom_site_fract_x
_atom_site_fract_y
_atom_site_fract_z
_atom_type_partial_charge
C1    C     C_R   0.499949 0.217933 0.500009 0.943094
C2    C     C_R   0.500049 0.782067 0.499990 0.937019
C3    C     C_R   0.524285 0.495279 0.653692 0.920220
C4    C     C_R   0.475755 0.505343 0.346208 0.913496
C5    C     C_R   0.544925 0.501920 0.739655 -0.163841
C6    C     C_R   0.456987 0.508920 0.259906 -0.193639
C7    C     C_R   0.422318 0.578145 0.775763 -0.238379
C8    C     C_R   0.589410 0.451692 0.222556 -0.245553
C9    C     C_R   0.434336 0.590441 0.857159 -0.141864
C10   C     C_R   0.585129 0.456442 0.141198 -0.121112
C11   C     C_R   0.569345 0.525088 0.903900 0.269200
C12   C     C_R   0.447513 0.519467 0.095291 0.241061
C13   C     C_R   0.695279 0.454440 0.868458 -0.262100
C14   C     C_R   0.312335 0.571442 0.131436 -0.248210
C15   C     C_R   0.684433 0.439359 0.786371 0.394610
C16   C     C_R   0.314933 0.569107 0.213796 0.437123
C17   C     C_1   0.499948 0.065174 0.500010 -0.130956
C18   C     C_1   0.500053 0.934825 0.500002 -0.133431
H1    H     H_    0.697590 0.402976 0.256416 0.217176
H2    H     H_    0.316723 0.629055 0.740879 0.204902
H3    H     H_    0.689813 0.411087 0.114413 0.180993
H4    H     H_    0.337094 0.649074 0.883565 0.174685
H5    H     H_    0.798371 0.405531 0.905868 0.179376
H6    H     H_    0.206594 0.617345 0.094618 0.206226
N1    N     N_1   0.073640 0.500030 0.499990 0.025056
N2    N     N_1   0.926360 0.499970 0.500010 0.022869
N3    N     N_2   0.578239 0.520567 0.987053 -0.164397
N4    N     N_2   0.439842 0.530860 0.012227 -0.171697
O1    O     O_R   0.636850 0.285340 0.500000 -0.598703
O2    O     O_R   0.363150 0.714660 0.500000 -0.599199
O3    O     O_R   0.363100 0.285350 0.500000 -0.618969
O4    O     O_R   0.636900 0.714650 0.500000 -0.621651
O5    O     O_R   0.652140 0.498630 0.616140 -0.559297
O6    O     O_R   0.347860 0.501370 0.383860 -0.551446
O7    O     O_R   0.378390 0.498650 0.616130 -0.620824
O8    O     O_R   0.621610 0.501350 0.383870 -0.625636
Zn1   Zn    Zn3+2 0.682780 0.499990 0.500010 1.087751
Zn2   Zn    Zn3+2 0.317220 0.500010 0.499990 1.093244
S1    S     S_3+6 0.841513 0.334039 0.746455 0.045877
O9    O     O_2   0.763313 0.223658 0.687275 -0.263748
O10   O     O_2   0.952067 0.437690 0.705491 -0.305132
O11   O     O_3   0.957822 0.239368 0.818538 -0.524599
H7    H     H_    0.044656 0.310867 0.839895 0.358828
S2    S     S_3+6 0.142414 0.648788 0.254810 0.025265
O12   O     O_2   0.047589 0.526962 0.291920 -0.307626
O13   O     O_2   0.202343 0.761301 0.316878 -0.294626
O14   O     O_3   0.014522 0.734822 0.183804 -0.561288
H8    H     H_    0.916957 0.765402 0.210522 0.389850

loop_
_geom_bond_atom_site_label_1
_geom_bond_atom_site_label_2
_ccdc_geom_bond_type
O3    Zn2   S    
N2    Zn1   S    
C3    O7    A    
N1    Zn2   S    
C2    C18   S    
C9    C11   A    
C16   S2    S    
C1    C17   S    
O14   H8    S    
S2    O14   S    
C11   N3    S    
C2    O2    A    
C1    O1    A    
C17   C18   T    
S1    O10   D    
O4    Zn1   S    
C11   C13   A    
C15   S1    S    
C10   C12   A    
C12   N4    S    
C8    C10   A    
O8    Zn1   S    
S2    O13   D    
C7    H2    S    
S1    O11   S    
C14   C16   A    
C13   C15   A    
C10   H3    S    
C4    O6    A    
C9    H4    S    
C5    C15   A    
C8    H1    S    
O11   H7    S    
C3    O5    A    
C14   H6    S    
S1    O9    D    
C7    C9    A    
C1    O3    A    
O7    Zn2   S    
S2    O12   D    
C13   H5    S    
C2    O4    A    
C4    C6    S    
O1    Zn1   S    
N3    N4    D    
C5    C7    A    
C6    C8    A    
O2    Zn2   S    
N1    N2    T    
O6    Zn2   S    
C6    C16   A    
O5    Zn1   S    
C4    O8    A    
C12   C14   A    
C3    C5    S    
