data_mof_unit_pretest_1602.cif
_audit_creation_date              2012-10-26T19:20:18-0400
_audit_creation_method            fapswitch 2.2
_symmetry_space_group_name_H-M    P1
_symmetry_Int_Tables_number       1
_space_group_crystal_system       triclinic
_cell_length_a                    15.865504
_cell_length_b                    10.937601
_cell_length_c                    9.724457
_cell_angle_alpha                 90.116666
_cell_angle_beta                  90.269719
_cell_angle_gamma                 90.081047
_cell_volume                      1687.46648797

loop_
_atom_site_label
_atom_site_type_symbol
_atom_type_description
_atom_site_fract_x
_atom_site_fract_y
_atom_site_fract_z
_atom_type_partial_charge
Br1   Br    Br    0.067220 0.334445 0.243428 -0.421646
Br2   Br    Br    0.582223 0.611910 0.907327 -0.395099
Br3   Br    Br    0.069905 0.387321 0.789548 -0.426716
C1    C     C_R   0.500991 0.265457 0.499972 0.551756
C2    C     C_2   0.494874 0.866557 0.502595 -0.105783
C3    C     C_2   0.497737 0.066750 0.387160 -0.144773
C4    C     C_R   0.339913 0.500073 0.499720 0.545695
C5    C     C_2   0.505164 0.133482 0.502271 -0.104549
C6    C     C_2   0.434154 0.478771 0.924186 0.050818
C7    C     C_2   0.432395 0.504393 0.076305 0.018931
C8    C     C_R   0.499019 0.734553 0.500192 0.553753
C9    C     C_R   0.660100 0.500085 0.500286 0.552887
C10   C     C_3   0.971655 0.384371 0.514181 -0.062026
C11   C     C_3   0.027076 0.432377 0.395661 0.173004
C12   C     C_3   0.082890 0.500457 0.499598 0.047119
C13   C     C_1   0.250181 0.500331 0.499218 0.020100
C14   C     C_1   0.749860 0.500062 0.500818 0.012073
C15   C     C_3   0.028181 0.453939 0.617948 0.171693
C16   C     C_3   0.972220 0.568857 0.605788 -0.090976
C17   C     C_3   0.917122 0.499957 0.500567 -0.011677
C18   C     C_3   0.027913 0.615633 0.486035 -0.154465
C19   C     C_3   0.971105 0.547027 0.380783 -0.089895
C20   C     C_1   0.174618 0.500508 0.499211 0.029206
C21   C     C_1   0.825439 0.500021 0.500880 -0.017751
C22   C     C_2   0.501437 0.932806 0.387323 -0.146216
Cu1   Cu    Cu3+1 0.500020 0.500020 0.638630 1.064018
Cu2   Cu    Cu3+1 0.499980 0.499980 0.361370 0.994262
H1    H     H_    0.516228 0.092762 0.601984 0.114060
H2    H     H_    0.484473 0.907650 0.602328 0.119314
H3    H     H_    0.489918 0.111155 0.288094 0.163064
H4    H     H_    0.376966 0.443497 0.877245 0.125925
H5    H     H_    0.371876 0.522385 0.123277 0.151402
H6    H     H_    0.551289 0.458660 0.109697 0.259199
H7    H     H_    0.947806 0.289498 0.525748 0.155844
H8    H     H_    0.946481 0.584778 0.282648 0.159669
H9    H     H_    0.052041 0.710354 0.474478 0.143274
H10   H     H_    0.948511 0.624592 0.692906 0.157522
H11   H     H_    0.508516 0.887968 0.288265 0.172937
N1    N     N_2   0.499090 0.498660 0.846910 -0.110384
N2    N     N_2   0.499070 0.498630 0.153040 -0.323850
O1    O     O_R   0.500010 0.321960 0.617040 -0.498221
O2    O     O_R   0.499990 0.321920 0.382900 -0.501168
O3    O     O_R   0.379090 0.500010 0.617050 -0.508276
O4    O     O_R   0.379060 0.499970 0.382910 -0.503780
O5    O     O_R   0.500010 0.678080 0.617100 -0.460379
O6    O     O_R   0.499990 0.678040 0.382960 -0.486272
O7    O     O_R   0.620940 0.500030 0.617090 -0.450734
O8    O     O_R   0.620910 0.499990 0.382950 -0.492890

loop_
_geom_bond_atom_site_label_1
_geom_bond_atom_site_label_2
_ccdc_geom_bond_type
C9    C14   S    
Cu2   O8    S    
C12   C15   S    
C4    O3    A    
C22   H11   S    
C6    C7    S    
Br2   N1    S    
C16   C17   S    
C10   C17   S    
C1    C5    S    
Cu2   N2    S    
C9    O8    A    
C11   C19   S    
C12   C20   S    
C10   H7    S    
C18   H9    S    
C4    O4    A    
C19   H8    S    
Cu2   O2    S    
Cu1   Cu2   S    
C1    O2    A    
C10   C15   S    
C9    O7    A    
C2    C22   D    
Cu1   O7    S    
Cu2   O6    S    
C4    C13   S    
C3    H3    S    
C17   C19   S    
Cu1   O3    S    
C2    C8    S    
C13   C20   T    
C2    H2    S    
C5    H1    S    
Cu1   N1    S    
C8    O5    A    
C14   C21   T    
C1    O1    A    
C6    H4    S    
C10   C11   S    
H6    N2    S    
C7    H5    S    
C12   C18   S    
Br3   C15   S    
C7    N2    D    
C15   C16   S    
C3    C22   S    
C11   C12   S    
C8    O6    A    
C3    C5    D    
Br1   C11   S    
C16   H10   S    
Cu1   O5    S    
C16   C18   S    
C18   C19   S    
Cu2   O4    S    
C6    N1    D    
C17   C21   S    
Cu1   O1    S    
