data_mof_unit_pretest_1165.cif
_audit_creation_date              2012-12-11T14:58:38-0500
_audit_creation_method            fapswitch 2.2
_symmetry_space_group_name_H-M    P1
_symmetry_Int_Tables_number       1
_space_group_crystal_system       triclinic
_cell_length_a                    10.88679
_cell_length_b                    10.944293
_cell_length_c                    18.751633
_cell_angle_alpha                 90.42584
_cell_angle_beta                  90.413754
_cell_angle_gamma                 60.03563
_cell_volume                      1935.51944452

loop_
_atom_site_label
_atom_site_type_symbol
_atom_type_description
_atom_site_fract_x
_atom_site_fract_y
_atom_site_fract_z
_atom_type_partial_charge
C1    C     C_R   0.357972 0.774487 0.397635 0.542714
C2    C     C_R   0.246897 0.442900 0.198631 -0.153357
C3    C     C_R   0.245554 0.450568 0.272873 -0.033473
C4    C     C_R   0.386475 0.355340 0.387136 0.531663
C5    C     C_R   0.877450 0.798161 0.369352 -0.118570
C6    C     C_R   0.928003 0.661501 0.394534 -0.099214
C7    C     C_R   0.046664 0.547913 0.363160 -0.045789
C8    C     C_R   0.118354 0.570248 0.307097 0.058323
C9    C     C_R   0.364237 0.344923 0.310834 -0.002369
C10   C     C_R   0.954711 0.306721 0.307716 -0.154398
C11   C     C_R   0.982897 0.300007 0.235448 -0.126106
C12   C     C_R   0.616786 0.125103 0.163980 0.059112
C13   C     C_R   0.873999 0.333374 0.185691 0.039403
C14   C     C_R   0.735494 0.380739 0.207415 -0.147071
C15   C     C_R   0.706503 0.391731 0.279686 -0.115378
C16   C     C_R   0.778269 0.378120 0.403279 0.534736
C17   C     C_R   0.816397 0.353849 0.329500 0.039687
C18   C     C_R   0.455746 0.821242 0.288298 -0.143406
C19   C     C_R   0.436121 0.863699 0.217117 -0.136769
C20   C     C_R   0.299021 0.933929 0.188277 0.023949
C21   C     C_R   0.182120 0.968916 0.232161 -0.149417
C22   C     C_R   0.201279 0.930050 0.303168 -0.141748
C23   C     C_R   0.360743 0.333121 0.161823 -0.003605
C24   C     C_R   0.338074 0.849393 0.330637 0.025296
C25   C     C_R   0.387931 0.196785 0.693041 -0.132760
C26   C     C_R   0.378788 0.184131 0.765336 -0.113806
C27   C     C_R   0.296450 0.304208 0.807672 0.035720
C28   C     C_R   0.344466 0.769340 0.604782 0.546239
C29   C     C_R   0.212679 0.435588 0.776059 -0.139331
C30   C     C_R   0.223288 0.448777 0.703135 -0.128815
C31   C     C_R   0.317400 0.330135 0.662404 0.027489
C32   C     C_R   0.756998 0.473187 0.731562 -0.140293
C33   C     C_R   0.761577 0.463106 0.804630 -0.163269
C34   C     C_R   0.482470 0.242314 0.273040 -0.152258
C35   C     C_R   0.804081 0.333283 0.837352 0.012697
C36   C     C_R   0.815875 0.219179 0.795466 0.232869
C37   C     C_R   0.808646 0.231391 0.721178 -0.068200
C38   C     C_R   0.784296 0.356788 0.688906 -0.015473
C39   C     C_R   0.200921 0.831897 0.713353 -0.130141
C40   C     C_R   0.367683 0.350119 0.594883 0.546445
C41   C     C_R   0.193534 0.840640 0.786688 -0.121417
C42   C     C_R   0.303895 0.839679 0.825793 0.026206
C43   C     C_R   0.424639 0.823697 0.790875 -0.145516
C44   C     C_R   0.432058 0.814953 0.717318 -0.144170
C45   C     C_R   0.485317 0.237412 0.199274 -0.026368
C46   C     C_R   0.321143 0.816967 0.678218 0.031550
C47   C     C_R   0.910329 0.316377 0.111676 0.526250
C48   C     C_R   0.330046 0.295435 0.091703 0.530574
C49   C     C_R   0.271834 0.963164 0.112186 0.561365
C50   C     C_R   0.876364 0.311239 0.906373 0.540132
C51   C     C_R   0.291991 0.283652 0.883372 0.550621
C52   C     C_R   0.756859 0.380429 0.612556 0.548069
C53   C     C_R   0.276797 0.891974 0.898328 0.558868
C54   C     C_R   0.850469 0.908554 0.091334 -0.104549
C55   C     C_R   0.787446 0.047203 0.066985 -0.079035
C56   C     C_R   0.066056 0.708679 0.282205 -0.089832
C57   C     C_R   0.672891 0.155482 0.103625 -0.057790
C58   C     C_R   0.946494 0.821683 0.313287 -0.118906
C59   C     C_R   0.682109 0.984862 0.188251 -0.103037
C60   C     C_R   0.797737 0.877409 0.151885 -0.127315
Cr1   Cr    Cr6+3 0.601770 0.606860 0.505860 0.997202
Cr2   Cr    Cr6+3 0.291380 0.601660 0.495070 1.020760
Cr3   Cr    Cr6+3 0.606880 0.291510 0.499120 1.009066
Cr4   Cr    Cr6+3 0.062440 0.063090 0.008210 0.993343
Cr5   Cr    Cr6+3 0.062880 0.375170 0.998920 1.007322
Cr6   Cr    Cr6+3 0.374700 0.061720 0.992470 1.019789
H1    H     H_    0.577972 0.167573 0.301016 0.141355
H2    H     H_    0.527661 0.833345 0.183732 0.136238
H3    H     H_    0.075434 0.021372 0.210570 0.141522
H4    H     H_    0.845660 0.769643 0.170345 0.123386
H5    H     H_    0.109526 0.955278 0.335449 0.133038
H6    H     H_    0.458589 0.103984 0.662194 0.127164
H7    H     H_    0.439270 0.079936 0.788222 0.142571
H8    H     H_    0.144708 0.527891 0.807831 0.122883
H9    H     H_    0.166744 0.553128 0.679959 0.134572
H10   H     H_    0.731275 0.573697 0.708668 0.142523
H11   H     H_    0.745109 0.554511 0.835192 0.138417
H12   H     H_    0.785269 0.885912 0.393510 0.110341
H13   H     H_    0.820071 0.143754 0.688937 0.144270
H14   H     H_    0.114288 0.832002 0.684501 0.134336
H15   H     H_    0.907382 0.927763 0.293893 0.113282
H16   H     H_    0.098591 0.854408 0.812321 0.177814
H17   H     H_    0.510625 0.824048 0.820152 0.120136
H18   H     H_    0.525994 0.802820 0.691298 0.118806
H19   H     H_    0.939405 0.825117 0.062948 0.112644
H20   H     H_    0.826465 0.070550 0.019162 0.135961
H21   H     H_    0.624247 0.261931 0.083199 0.089465
H22   H     H_    0.118431 0.729390 0.238958 0.119830
H23   H     H_    0.876006 0.643894 0.438925 0.131977
H24   H     H_    0.641918 0.957804 0.234521 0.102305
H25   H     H_    0.152660 0.517602 0.169677 0.136002
H26   H     H_    0.792878 0.115974 0.872239 0.330008
H27   H     H_    0.085485 0.443381 0.384257 0.095428
H28   H     H_    0.039650 0.274863 0.346176 0.097822
H29   H     H_    0.090252 0.265068 0.218071 0.119350
H30   H     H_    0.650640 0.410935 0.168986 0.103751
H31   H     H_    0.598141 0.432187 0.297011 0.126110
H32   H     H_    0.562856 0.757930 0.308511 0.138222
O1    O     O_R   0.748800 0.497470 0.428000 -0.529226
O2    O     O_R   0.417600 0.174890 0.067840 -0.511487
O3    O     O_R   0.375320 0.946260 0.070860 -0.497495
O4    O     O_R   0.476420 0.724060 0.429470 -0.508853
O5    O     O_R   0.160600 0.919630 0.926660 -0.508701
O6    O     O_R   0.933060 0.190520 0.936020 -0.504143
O7    O     O_R   0.908880 0.403460 0.925020 -0.519049
O8    O     O_R   0.179600 0.361450 0.918490 -0.498260
O9    O     O_R   0.391510 0.170860 0.907530 -0.527972
O10   O     O_R   0.351130 0.942530 0.922260 -0.505716
O11   O     O_3   0.166667 0.166667 0.999870 -0.263531
O12   O     O_R   0.300070 0.471040 0.567100 -0.508998
O13   O     O_R   0.264580 0.744340 0.416750 -0.506645
O14   O     O_R   0.309380 0.472470 0.418200 -0.494414
O15   O     O_R   0.501710 0.260430 0.414300 -0.532406
O16   O     O_R   0.728090 0.305600 0.428960 -0.503786
O17   O     O_R   0.738760 0.495930 0.588610 -0.526904
O18   O     O_R   0.467110 0.722640 0.578360 -0.508712
O19   O     O_R   0.254530 0.742800 0.577360 -0.528286
O20   O     O_3   0.837187 0.094715 0.824442 -0.714517
O21   O     O_R   0.491670 0.258900 0.574910 -0.518763
O22   O     O_R   0.718780 0.304180 0.577850 -0.502941
O23   O     O_3   0.500010 0.500010 0.500020 -0.244350
O24   O     O_R   0.186690 0.923650 0.086970 -0.521268
O25   O     O_R   0.957250 0.194250 0.084630 -0.534123
O26   O     O_R   0.934970 0.407490 0.085330 -0.514726
O27   O     O_R   0.203780 0.365190 0.067090 -0.510767

loop_
_geom_bond_atom_site_label_1
_geom_bond_atom_site_label_2
_ccdc_geom_bond_type
C25   C31   A    
Cr4   O5    S    
C50   O6    A    
C23   C45   A    
C27   C29   A    
C43   H17   S    
C41   C42   A    
Cr5   O8    S    
C19   C20   A    
Cr6   O9    S    
C8    C56   A    
C47   O26   A    
C7    C8    A    
C39   C41   A    
C54   C60   A    
C37   H13   S    
C28   C46   S    
C26   C27   A    
C29   C30   A    
C5    C58   A    
C18   C24   A    
C36   C37   A    
C37   C38   A    
C28   O19   A    
C42   C53   S    
C49   O3    A    
C30   C31   A    
C56   H22   S    
C38   C52   S    
C10   H28   S    
C10   C17   A    
Cr6   O2    S    
C26   H7    S    
C31   C40   S    
Cr1   O23   S    
C18   C19   A    
Cr5   O26   S    
C14   H30   S    
H26   O20   S    
Cr2   O19   S    
Cr3   O22   S    
C28   O18   A    
C48   O27   A    
C12   C59   A    
Cr2   O13   S    
C35   C36   A    
C27   C51   S    
C16   C17   S    
Cr1   O17   S    
C50   O7    A    
C32   C38   A    
C36   O20   S    
C4    O14   A    
C59   C60   A    
C21   C22   A    
Cr3   O16   S    
Cr6   O3    S    
Cr1   O1    S    
C15   H31   S    
C7    H27   S    
Cr5   O7    S    
Cr3   O23   S    
C44   C46   A    
C48   O2    A    
C4    O15   A    
C3    C8    S    
C58   H15   S    
C13   C47   S    
C40   O12   A    
C29   H8    S    
C25   C26   A    
C57   H21   S    
C21   H3    S    
C59   H24   S    
Cr5   O27   S    
C43   C44   A    
C20   C49   S    
C3    C9    A    
Cr3   O21   S    
C47   O25   A    
Cr2   O12   S    
C60   H4    S    
C35   C50   S    
C19   H2    S    
C25   H6    S    
Cr5   O11   S    
C34   C45   A    
C39   C46   A    
C12   C57   A    
C52   O22   A    
C55   C57   A    
C9    C34   A    
C22   C24   A    
C42   C43   A    
Cr4   O25   S    
C22   H5    S    
C52   O17   A    
C11   H29   S    
C15   C17   A    
C54   C55   A    
C23   C48   S    
Cr1   O18   S    
Cr4   O6    S    
Cr6   O10   S    
C12   C45   S    
C44   H18   S    
C16   O16   A    
C34   H1    S    
C32   H10   S    
C54   H19   S    
C16   O1    A    
C6    C7    A    
C6    H23   S    
C32   C33   A    
C55   H20   S    
Cr1   O4    S    
C4    C9    S    
C41   H16   S    
C39   H14   S    
C30   H9    S    
C11   C13   A    
C53   O10   A    
C33   H11   S    
Cr4   O11   S    
C5    C6    A    
C53   O5    A    
C51   O8    A    
Cr4   O24   S    
C49   O24   A    
C33   C35   A    
C56   C58   A    
C2    C3    A    
Cr6   O11   S    
C2    H25   S    
C10   C11   A    
Cr3   O15   S    
C40   O21   A    
Cr2   O14   S    
C20   C21   A    
C1    C24   S    
C51   O9    A    
C2    C23   A    
C14   C15   A    
C18   H32   S    
C5    H12   S    
C13   C14   A    
C1    O4    A    
Cr2   O23   S    
C1    O13   A    
