data_mof_unit_pretest_1253.cif
_audit_creation_date              2012-12-10T18:35:23-0500
_audit_creation_method            fapswitch 2.2
_symmetry_space_group_name_H-M    P1
_symmetry_Int_Tables_number       1
_space_group_crystal_system       triclinic
_cell_length_a                    15.083086
_cell_length_b                    13.873943
_cell_length_c                    10.781521
_cell_angle_alpha                 90.018867
_cell_angle_beta                  90.142499
_cell_angle_gamma                 90.001487
_cell_volume                      2256.1542035

loop_
_atom_site_label
_atom_site_type_symbol
_atom_type_description
_atom_site_fract_x
_atom_site_fract_y
_atom_site_fract_z
_atom_type_partial_charge
C1    C     C_R   0.329989 0.499994 0.499880 0.821016
C2    C     C_R   0.456893 0.790559 0.408502 0.086856
C3    C     C_R   0.432382 0.209344 0.444708 0.085040
C4    C     C_R   0.543053 0.790607 0.591544 0.091675
C5    C     C_R   0.499950 0.054657 0.500054 0.131328
C6    C     C_R   0.499943 0.945274 0.500053 0.130788
C7    C     C_R   0.499989 0.500002 0.262844 0.796000
C8    C     C_R   0.499953 0.500010 0.737156 0.796013
C9    C     C_R   0.336115 0.499847 0.128671 -0.159802
C10   C     C_R   0.663806 0.500327 0.871325 -0.155086
C11   C     C_R   0.336078 0.499493 0.870315 -0.146245
C12   C     C_R   0.670123 0.499996 0.500084 0.824278
C13   C     C_R   0.663842 0.500901 0.129694 -0.140588
C14   C     C_R   0.256090 0.499630 0.063723 -0.140915
C15   C     C_R   0.743805 0.500622 0.936297 -0.143249
C16   C     C_R   0.256072 0.499368 0.934756 -0.139194
C17   C     C_R   0.743823 0.501177 0.065229 -0.141392
C18   C     C_R   0.418195 0.499802 0.934437 0.070320
C19   C     C_R   0.581724 0.500388 0.065568 0.069866
C20   C     C_R   0.418212 0.499885 0.065055 0.066812
C21   C     C_R   0.581707 0.500271 0.934944 0.066377
C22   C     C_R   0.499946 0.500019 0.870891 -0.177185
C23   C     C_R   0.048912 0.499953 0.499689 -0.007605
C24   C     C_R   0.499977 0.500057 0.129110 -0.177097
C25   C     C_R   0.094574 0.571669 0.433168 0.479803
C26   C     C_R   0.905286 0.424493 0.441601 0.499443
C27   C     C_R   0.905580 0.575461 0.558107 0.499528
C28   C     C_R   0.094792 0.428206 0.566168 0.479876
C29   C     C_R   0.187555 0.569952 0.432394 -0.322808
C30   C     C_R   0.812819 0.423553 0.445244 -0.298768
C31   C     C_R   0.813087 0.576383 0.554769 -0.290736
C32   C     C_R   0.187764 0.429929 0.567009 -0.329509
C33   C     C_R   0.233608 0.499965 0.499762 -0.140459
C34   C     C_R   0.951754 0.499985 0.499767 -0.012559
C35   C     C_R   0.766685 0.499974 0.500052 -0.174772
C36   C     C_3   0.076793 0.731703 0.378238 -0.251460
C37   C     C_3   0.951393 0.364629 0.257164 -0.352814
C38   C     C_3   0.952533 0.635362 0.742436 -0.353192
C39   C     C_3   0.077090 0.268122 0.620684 -0.254503
C40   C     C_R   0.569193 0.107926 0.555571 -0.275525
C41   C     C_R   0.456600 0.891990 0.406274 -0.281039
C42   C     C_R   0.430724 0.107911 0.444526 -0.282332
C43   C     C_R   0.543292 0.892038 0.593821 -0.277200
C44   C     C_R   0.567585 0.209358 0.555338 0.089237
Cu1   Cu    Cu3+1 0.500000 0.596430 0.500000 0.937589
Cu2   Cu    Cu3+1 0.500000 0.403570 0.500000 0.936674
H1    H     H_    0.806004 0.501880 0.115551 0.132431
H2    H     H_    0.777257 0.364211 0.402710 0.177336
H3    H     H_    0.777728 0.635706 0.597431 0.173005
H4    H     H_    0.224621 0.378408 0.622121 0.162163
H5    H     H_    0.625284 0.072033 0.597800 0.132157
H6    H     H_    0.423449 0.927866 0.330171 0.128890
H7    H     H_    0.374614 0.072011 0.402324 0.126399
H8    H     H_    0.576411 0.927953 0.669953 0.130430
H9    H     H_    0.621051 0.248521 0.599408 0.128517
H10   H     H_    0.422666 0.751258 0.336165 0.121229
H11   H     H_    0.378923 0.248494 0.400638 0.124965
H12   H     H_    0.193881 0.499106 0.884359 0.143489
H13   H     H_    0.577272 0.751343 0.663885 0.122765
H14   H     H_    0.023173 0.781915 0.350107 0.189226
H15   H     H_    0.134531 0.746227 0.317337 0.139281
H16   H     H_    0.093283 0.747910 0.476911 0.179530
H17   H     H_    0.992820 0.307964 0.213610 0.194413
H18   H     H_    0.981272 0.435645 0.233148 0.170899
H19   H     H_    0.883527 0.358523 0.217310 0.164679
H20   H     H_    0.982481 0.564337 0.766443 0.171193
H21   H     H_    0.884846 0.641522 0.782401 0.162016
H22   H     H_    0.994182 0.692018 0.785887 0.195678
H23   H     H_    0.805974 0.500363 0.886371 0.131815
H24   H     H_    0.023532 0.217922 0.648722 0.188532
H25   H     H_    0.135069 0.253412 0.681460 0.143703
H26   H     H_    0.093156 0.252076 0.521941 0.177037
H27   H     H_    0.193916 0.499637 0.113725 0.142990
H28   H     H_    0.332901 0.499976 0.228843 0.119483
H29   H     H_    0.667057 0.500090 0.771145 0.119689
H30   H     H_    0.332839 0.499379 0.770133 0.123654
H31   H     H_    0.667120 0.501160 0.229885 0.124237
H32   H     H_    0.224256 0.621451 0.377289 0.156646
N1    N     N_R   0.500000 0.258690 0.500000 -0.173382
N2    N     N_R   0.500000 0.741310 0.500000 -0.172235
O1    O     O_R   0.371460 0.581430 0.500010 -0.582797
O2    O     O_3   0.950601 0.349323 0.386388 -0.569431
O3    O     O_3   0.951181 0.650621 0.613203 -0.568651
O4    O     O_3   0.046637 0.363438 0.637797 -0.582640
O5    O     O_R   0.628540 0.418570 0.499990 -0.593843
O6    O     O_R   0.628540 0.581430 0.499990 -0.580894
O7    O     O_R   0.371460 0.418570 0.500010 -0.595151
O8    O     O_R   0.499990 0.581440 0.319660 -0.587872
O9    O     O_R   0.500010 0.418560 0.680340 -0.576765
O10   O     O_R   0.500010 0.581440 0.680340 -0.588821
O11   O     O_R   0.499990 0.418560 0.319660 -0.575993
O12   O     O_3   0.046162 0.636393 0.361471 -0.582489

loop_
_geom_bond_atom_site_label_1
_geom_bond_atom_site_label_2
_ccdc_geom_bond_type
C1    O7    A    
C5    C42   A    
C3    C42   A    
C38   O3    S    
C28   O4    S    
C3    N1    A    
C1    C33   S    
C11   C18   A    
Cu2   O9    S    
Cu1   Cu2   S    
C30   C35   A    
C30   H2    S    
C19   C21   A    
C39   O4    S    
C4    N2    A    
C11   H30   S    
C42   H7    S    
C5    C6    S    
C2    C41   A    
C1    O1    A    
C7    C24   S    
C29   C33   A    
C11   C16   A    
C43   H8    S    
C26   C34   A    
C29   H32   S    
C38   H20   S    
C6    C41   A    
C37   H19   S    
C8    C22   S    
C39   H26   S    
C41   H6    S    
C18   C20   A    
Cu2   O5    S    
C36   O12   S    
C27   C34   A    
C21   C22   A    
C31   H3    S    
C36   H16   S    
C37   H17   S    
C10   C21   A    
C25   C29   A    
C15   H23   S    
C13   H31   S    
C13   C19   A    
C27   C31   A    
C14   H27   S    
C20   C24   A    
C28   C32   A    
Cu1   O8    S    
Cu2   O11   S    
C9    C14   A    
C10   H29   S    
C9    C20   A    
C7    O8    A    
C23   C34   S    
C7    O11   A    
C16   H12   S    
C23   C28   A    
C12   C35   S    
Cu1   O10   S    
C32   H4    S    
C12   O5    A    
C38   H22   S    
C26   C30   A    
C6    C43   A    
C14   C16   A    
C37   O2    S    
C8    O10   A    
C9    H28   S    
C36   H15   S    
C3    H11   S    
C37   H18   S    
Cu2   O7    S    
C15   C17   A    
C25   O12   S    
C18   C22   A    
C44   N1    A    
Cu1   O1    S    
C17   H1    S    
C36   H14   S    
C4    C43   A    
C12   O6    A    
C40   H5    S    
C13   C17   A    
C10   C15   A    
C32   C33   A    
C27   O3    S    
Cu1   O6    S    
C2    H10   S    
C44   H9    S    
Cu2   N1    S    
C4    H13   S    
C39   H24   S    
C19   C24   A    
Cu1   N2    S    
C31   C35   A    
C23   C25   A    
C2    N2    A    
C40   C44   A    
C38   H21   S    
C26   O2    S    
C5    C40   A    
C39   H25   S    
C8    O9    A    
