data_mof_unit_pretest_529.cif
_audit_creation_date              2012-12-10T16:52:38-0500
_audit_creation_method            fapswitch 2.2
_symmetry_space_group_name_H-M    P1
_symmetry_Int_Tables_number       1
_space_group_crystal_system       triclinic
_cell_length_a                    7.834136
_cell_length_b                    8.565633
_cell_length_c                    13.601173
_cell_angle_alpha                 93.490779
_cell_angle_beta                  92.16209
_cell_angle_gamma                 94.341757
_cell_volume                      907.567677568

loop_
_atom_site_label
_atom_site_type_symbol
_atom_type_description
_atom_site_fract_x
_atom_site_fract_y
_atom_site_fract_z
_atom_type_partial_charge
C1    C     C_R   0.045303 0.794790 0.497476 0.963892
C2    C     C_R   0.937606 0.482043 0.317014 0.861230
C3    C     C_R   0.086033 0.521834 0.791163 -0.099631
C4    C     C_R   0.905539 0.446213 0.210953 -0.168454
C5    C     C_R   0.040964 0.635090 0.955096 -0.268329
C6    C     C_R   0.914919 0.276618 0.062079 -0.162914
C7    C     C_R   0.982657 0.604436 0.856972 -0.002860
C8    C     C_R   0.988210 0.330794 0.154747 -0.005471
C9    C     C_R   0.231534 0.457244 0.827729 -0.269376
C10   C     C_R   0.761689 0.508855 0.171305 -0.264261
C11   C     C_R   0.287730 0.483123 0.926302 0.091682
C12   C     C_R   0.954657 0.205190 0.502345 0.961629
C13   C     C_R   0.677090 0.441637 0.085295 0.098421
C14   C     C_R   0.194439 0.579743 0.989079 0.166946
C15   C     C_R   0.758873 0.327712 0.028546 0.116723
C16   C     C_R   0.441620 0.425263 0.961672 0.088578
C17   C     C_R   0.512458 0.483453 0.055303 0.070062
C18   C     C_2   0.147176 0.262623 0.189546 0.385634
C19   C     C_2   0.818955 0.668138 0.828117 0.402926
C20   C     C_R   0.413619 0.576555 0.117335 -0.244978
C21   C     C_R   0.526332 0.310709 0.906803 -0.134108
C22   C     C_R   0.256274 0.621916 0.084861 -0.201006
C23   C     C_R   0.682209 0.262983 0.940014 -0.195791
C24   C     C_2   0.068814 0.958542 0.495873 -0.374508
C25   C     C_2   0.931086 0.041415 0.503657 -0.378393
C26   C     C_R   0.061281 0.512633 0.683339 0.868312
H1    H     H_    0.184229 0.693031 0.134485 0.168928
H2    H     H_    0.801462 0.989655 0.511110 0.179963
H3    H     H_    0.487330 0.373526 0.427075 0.185939
H4    H     H_    0.512654 0.626518 0.572883 0.209331
H5    H     H_    0.232641 0.322226 0.246267 0.105345
H6    H     H_    0.793864 0.785781 0.855014 0.043294
H7    H     H_    0.742439 0.174050 0.896372 0.137419
H8    H     H_    0.713194 0.606479 0.212396 0.157621
H9    H     H_    0.306872 0.395807 0.775688 0.176714
H10   H     H_    0.967106 0.704055 0.005081 0.145713
H11   H     H_    0.976544 0.190204 0.017079 0.170616
H12   H     H_    0.451188 0.611804 0.192938 0.155449
H13   H     H_    0.472247 0.250940 0.839442 0.137887
H14   H     H_    0.198429 0.010302 0.488384 0.181962
N1    N     N_2   0.440860 0.456490 0.474790 -0.177664
N2    N     N_2   0.559140 0.543510 0.525210 -0.150724
O1    O     O_R   0.891570 0.738930 0.506190 -0.611446
O2    O     O_2   0.705414 0.586614 0.781614 -0.558841
O3    O     O_R   0.108430 0.261070 0.493810 -0.614648
O4    O     O_R   0.174650 0.711050 0.490030 -0.623635
O5    O     O_R   0.825350 0.288950 0.509970 -0.620544
O6    O     O_R   0.909850 0.521900 0.644940 -0.554821
O7    O     O_R   0.090150 0.478100 0.355060 -0.641948
O8    O     O_R   0.192930 0.494020 0.628780 -0.617370
O9    O     O_R   0.807070 0.505980 0.371220 -0.609705
O10   O     O_2   0.187860 0.137992 0.152585 -0.589724
Zn1   Zn    Zn3+2 0.810990 0.518620 0.510790 0.975255
Zn2   Zn    Zn3+2 0.189010 0.481380 0.489210 0.933681

loop_
_geom_bond_atom_site_label_1
_geom_bond_atom_site_label_2
_ccdc_geom_bond_type
C2    C4    S    
C16   C21   A    
C3    C9    A    
C2    O7    A    
C26   O6    A    
C20   H12   S    
N1    N2    D    
C3    C7    A    
C21   H13   S    
C13   C17   A    
C12   C25   S    
C4    C8    A    
O4    Zn2   S    
C26   O8    A    
C15   C23   A    
C6    H11   S    
C18   O10   D    
C10   H8    S    
C24   C25   D    
C25   H2    S    
N1    Zn2   S    
C9    C11   A    
C14   C22   A    
C5    C14   A    
O8    Zn2   S    
C12   O5    A    
O5    Zn1   S    
C24   H14   S    
C20   C22   A    
O3    Zn2   S    
C7    C19   S    
C22   H1    S    
C13   C15   A    
C21   C23   A    
O6    Zn1   S    
C1    O4    A    
C11   C14   A    
N2    Zn1   S    
C16   C17   A    
C2    O9    A    
C19   H6    S    
C4    C10   A    
O7    Zn2   S    
C5    H10   S    
C17   C20   A    
C19   O2    D    
C23   H7    S    
C1    C24   S    
C5    C7    A    
C11   C16   A    
C9    H9    S    
H4    N2    S    
C6    C8    A    
C18   H5    S    
H3    N1    S    
C6    C15   A    
O1    Zn1   S    
C1    O1    A    
C3    C26   S    
C8    C18   S    
C12   O3    A    
O9    Zn1   S    
C10   C13   A    
