data_mof_unit_pretest_10.cif
_audit_creation_date              2012-10-26T20:17:36-0400
_audit_creation_method            fapswitch 2.2
_symmetry_space_group_name_H-M    P1
_symmetry_Int_Tables_number       1
_space_group_crystal_system       triclinic
_cell_length_a                    27.814574
_cell_length_b                    8.726955
_cell_length_c                    7.427534
_cell_angle_alpha                 102.929022
_cell_angle_beta                  94.052349
_cell_angle_gamma                 91.937266
_cell_volume                      1750.5484567

loop_
_atom_site_label
_atom_site_type_symbol
_atom_type_description
_atom_site_fract_x
_atom_site_fract_y
_atom_site_fract_z
_atom_type_partial_charge
C1    C     C_R   0.496994 0.200130 0.454220 0.572653
C2    C     C_R   0.870091 0.355921 0.406673 0.026551
C3    C     C_R   0.354861 0.504818 0.510150 -0.047850
C4    C     C_R   0.645137 0.495111 0.489837 -0.047840
C5    C     C_R   0.972310 0.357073 0.421864 0.034927
C6    C     C_R   0.027674 0.642532 0.577949 0.034943
C7    C     C_R   0.976302 0.644941 0.556140 0.054808
C8    C     C_R   0.023687 0.354673 0.443601 0.054808
C9    C     C_R   0.949060 0.499883 0.486463 -0.018527
C10   C     C_R   0.050928 0.499734 0.513346 -0.018541
C11   C     C_R   0.942917 0.223312 0.327982 -0.093661
C12   C     C_R   0.503005 0.799870 0.545780 0.572660
C13   C     C_R   0.057057 0.776283 0.671934 -0.093577
C14   C     C_R   0.893077 0.220543 0.328637 -0.124740
C15   C     C_R   0.106899 0.779075 0.671348 -0.124663
C16   C     C_R   0.407552 0.501119 0.503010 0.557892
C17   C     C_R   0.592448 0.498871 0.496988 0.557895
C18   C     C_R   0.049203 0.212445 0.407447 0.230165
C19   C     C_R   0.950796 0.787189 0.592179 0.230099
C20   C     C_2   0.490210 0.032890 0.433151 0.234664
C21   C     C_2   0.509790 0.967110 0.566849 0.234664
C22   C     C_R   0.176808 0.367612 0.472960 0.460445
C23   C     C_R   0.102255 0.501918 0.523578 -0.042646
C24   C     C_R   0.823190 0.632078 0.526920 0.460406
C25   C     C_R   0.180306 0.645375 0.590030 0.465818
C26   C     C_R   0.819679 0.354304 0.409936 0.465857
C27   C     C_R   0.284394 0.551370 0.688570 0.249634
C28   C     C_R   0.715597 0.448403 0.311395 0.249600
C29   C     C_R   0.334643 0.547234 0.680948 -0.158507
C30   C     C_R   0.665351 0.452650 0.319029 -0.158508
C31   C     C_R   0.324519 0.466713 0.345830 -0.152224
C32   C     C_R   0.675481 0.533156 0.654151 -0.152207
C33   C     C_R   0.274238 0.468950 0.351142 0.253844
C34   C     C_R   0.897734 0.497724 0.476286 -0.042636
C35   C     C_R   0.725761 0.530820 0.648825 0.253860
C36   C     C_R   0.254271 0.511348 0.523030 0.317486
C37   C     C_R   0.745723 0.488383 0.476930 0.317483
C38   C     C_R   0.126218 0.362360 0.466776 -0.007570
C39   C     C_R   0.873779 0.637308 0.533048 -0.007554
C40   C     C_R   0.099659 0.219556 0.412288 -0.098969
C41   C     C_R   0.900342 0.780114 0.587404 -0.098975
C42   C     C_R   0.129893 0.643726 0.593273 0.026530
Cu1   Cu    Cu3+1 0.505380 0.517380 0.684380 1.009813
Cu2   Cu    Cu3+1 0.494620 0.482620 0.315620 1.009811
H1    H     H_    0.339822 0.434116 0.213259 0.128026
H2    H     H_    0.357861 0.577421 0.808453 0.136444
H3    H     H_    0.710214 0.378496 0.042828 0.328684
H4    H     H_    0.289769 0.621301 0.957123 0.328683
H5    H     H_    0.872502 0.112752 0.261482 0.177721
H6    H     H_    0.127467 0.886861 0.738572 0.177712
H7    H     H_    0.956897 0.120126 0.244522 0.202902
H8    H     H_    0.043055 0.879437 0.755400 0.202760
H9    H     H_    0.048514 0.981972 0.361924 0.340253
H10   H     H_    0.951508 0.017653 0.637570 0.340223
H11   H     H_    0.447118 0.013863 0.207995 0.336488
H12   H     H_    0.660181 0.565777 0.786728 0.128025
H13   H     H_    0.552882 0.986137 0.792006 0.336491
H14   H     H_    0.462442 0.378828 0.948236 0.243713
H15   H     H_    0.537558 0.621172 0.051763 0.243716
H16   H     H_    0.263043 0.391412 0.084364 0.346317
H17   H     H_    0.736968 0.608356 0.915601 0.346290
H18   H     H_    0.118297 0.110977 0.378688 0.161263
H19   H     H_    0.881710 0.888714 0.620919 0.161253
H20   H     H_    0.642130 0.422491 0.191522 0.136446
N1    N     N_R   0.202706 0.508378 0.529068 -0.344551
N2    N     N_R   0.797286 0.491316 0.470882 -0.344557
N3    N     N_2   0.486510 0.456430 0.038510 -0.239824
N4    N     N_2   0.513490 0.543570 0.961490 -0.239823
O1    O     O_R   0.503500 0.286120 0.619780 -0.458000
O2    O     O_2   0.799978 0.766690 0.576306 -0.444745
O3    O     O_2   0.793321 0.216940 0.354142 -0.434956
O4    O     O_2   0.206658 0.782754 0.645855 -0.434987
O5    O     O_3   0.243719 0.429743 0.191075 -0.633387
O6    O     O_3   0.756284 0.569969 0.808884 -0.633417
O7    O     O_3   0.736204 0.407518 0.144683 -0.641871
O8    O     O_3   0.263781 0.592141 0.855266 -0.641923
O9    O     O_3   0.025350 0.066993 0.382274 -0.688195
O10   O     O_3   0.974657 0.932603 0.617108 -0.688166
O11   O     O_3   0.461679 0.943751 0.282568 -0.705789
O12   O     O_R   0.496500 0.713880 0.380220 -0.457996
O13   O     O_3   0.538321 0.056248 0.717432 -0.705792
O14   O     O_R   0.494410 0.256780 0.308360 -0.518452
O15   O     O_R   0.505590 0.743220 0.691640 -0.518448
O16   O     O_R   0.434810 0.514700 0.655690 -0.513733
O17   O     O_R   0.565190 0.485300 0.344310 -0.513736
O18   O     O_R   0.425720 0.485350 0.344280 -0.502234
O19   O     O_R   0.574280 0.514650 0.655720 -0.502236
O20   O     O_2   0.200027 0.233018 0.423546 -0.444710

loop_
_geom_bond_atom_site_label_1
_geom_bond_atom_site_label_2
_ccdc_geom_bond_type
C35   O6    S    
C27   O8    S    
Cu1   O16   S    
C30   H20   S    
C27   C29   A    
Cu1   O15   S    
H4    O8    S    
C24   C39   A    
C24   O2    S    
C39   C41   A    
C23   C42   A    
C17   O17   A    
C35   C37   A    
C5    C11   A    
Cu2   O14   S    
C11   C14   A    
C14   H5    S    
C22   C38   A    
H16   O5    S    
C16   O16   A    
C33   C36   A    
C40   H18   S    
C15   H6    S    
C3    C29   A    
C18   C40   A    
Cu1   N4    S    
C31   C33   A    
C22   O20   S    
C24   N2    A    
C2    C34   A    
Cu1   O1    S    
C16   O18   A    
C26   O3    S    
Cu2   O18   S    
N3    N4    D    
C26   N2    A    
C32   C35   A    
Cu2   O12   S    
C25   N1    A    
C36   N1    S    
C1    O14   A    
C12   C21   S    
C1    O1    A    
C34   C39   A    
C12   O15   A    
C19   O10   S    
H9    O9    S    
Cu1   Cu2   S    
C22   N1    A    
C5    C9    A    
H15   N4    S    
C13   H8    S    
H11   O11   S    
C37   N2    S    
C2    C26   A    
C25   O4    S    
C3    C31   A    
C4    C32   A    
C4    C17   S    
C33   O5    S    
C21   O13   S    
C7    C19   A    
C13   C15   A    
C9    C34   A    
C10   C23   A    
H13   O13   S    
C41   H19   S    
Cu2   O17   S    
C7    C9    A    
C1    C20   S    
C20   O11   S    
C17   O19   A    
C15   C42   A    
C25   C42   A    
C6    C10   A    
C5    C8    A    
C6    C7    A    
H17   O6    S    
C23   C38   A    
C29   H2    S    
C27   C36   A    
Cu1   O19   S    
C28   C30   A    
H3    O7    S    
C6    C13   A    
C38   C40   A    
C28   C37   A    
C18   O9    S    
C12   O12   A    
C2    C14   A    
C8    C18   A    
C11   H7    S    
H14   N3    S    
C20   C21   D    
C8    C10   A    
C31   H1    S    
Cu2   N3    S    
C28   O7    S    
C32   H12   S    
C4    C30   A    
C3    C16   S    
C19   C41   A    
H10   O10   S    
