data_mof_unit_pretest_1673.cif
_audit_creation_date              2012-12-10T17:13:14-0500
_audit_creation_method            fapswitch 2.2
_symmetry_space_group_name_H-M    P1
_symmetry_Int_Tables_number       1
_space_group_crystal_system       triclinic
_cell_length_a                    31.115143
_cell_length_b                    30.083173
_cell_length_c                    24.721943
_cell_angle_alpha                 90.023302
_cell_angle_beta                  128.431157
_cell_angle_gamma                 90.00156
_cell_volume                      18127.4582365

loop_
_atom_site_label
_atom_site_type_symbol
_atom_type_description
_atom_site_fract_x
_atom_site_fract_y
_atom_site_fract_z
_atom_type_partial_charge
C1    C     C_R   0.691696 0.189432 0.502107 1.084163
C2    C     C_R   0.536360 0.249698 0.069716 0.294600
C3    C     C_R   0.736820 0.959339 0.630297 -0.137039
C4    C     C_R   0.820140 0.455823 0.416310 -0.161132
C5    C     C_R   0.179829 0.455914 0.583591 -0.160956
C6    C     C_R   0.320140 0.955823 0.416310 -0.161133
C7    C     C_R   0.679829 0.955914 0.583591 -0.160956
C8    C     C_R   0.845623 0.416616 0.455478 0.100538
C9    C     C_R   0.154355 0.416669 0.544451 0.100683
C10   C     C_R   0.345623 0.916616 0.455478 0.100538
C11   C     C_R   0.654355 0.916669 0.544451 0.100683
C12   C     C_R   0.812678 0.382117 0.450458 0.097183
C13   C     C_R   0.963853 0.749694 0.930283 0.294573
C14   C     C_R   0.187306 0.382173 0.549491 0.097219
C15   C     C_R   0.312678 0.882117 0.450458 0.097183
C16   C     C_R   0.687306 0.882173 0.549491 0.097219
C17   C     C_R   0.838822 0.344939 0.494644 -0.107102
C18   C     C_R   0.161169 0.344948 0.505340 -0.108505
C19   C     C_R   0.338822 0.844939 0.494644 -0.107102
C20   C     C_R   0.661169 0.844948 0.505340 -0.108505
C21   C     C_R   0.895824 0.341057 0.540168 -0.189139
C22   C     C_R   0.104167 0.341024 0.459828 -0.186642
C23   C     C_R   0.395824 0.841057 0.540168 -0.189139
C24   C     C_R   0.036360 0.749698 0.069716 0.294600
C25   C     C_R   0.604167 0.841024 0.459828 -0.186642
C26   C     C_R   0.927840 0.373761 0.542707 -0.201634
C27   C     C_R   0.072145 0.373731 0.457267 -0.199040
C28   C     C_R   0.427840 0.873761 0.542707 -0.201634
C29   C     C_R   0.572144 0.873731 0.457267 -0.199040
C30   C     C_R   0.903227 0.410907 0.500198 -0.095986
C31   C     C_R   0.096753 0.410918 0.499746 -0.097432
C32   C     C_R   0.403227 0.910907 0.500198 -0.095985
C33   C     C_R   0.596753 0.910918 0.499746 -0.097432
C34   C     C_R   0.061440 0.441500 0.499795 0.861069
C35   C     C_R   0.702515 0.172406 0.626843 0.568737
C36   C     C_R   0.938549 0.441500 0.500185 0.860900
C37   C     C_R   0.561440 0.941500 0.499795 0.861069
C38   C     C_R   0.438549 0.941500 0.500185 0.860900
C39   C     C_R   0.818343 0.251306 0.634547 1.049855
C40   C     C_R   0.181729 0.251184 0.365422 1.047736
C41   C     C_R   0.318343 0.751306 0.634547 1.049855
C42   C     C_R   0.681729 0.751184 0.365422 1.047737
C43   C     C_R   0.558686 0.061727 0.499795 1.046761
C44   C     C_R   0.441328 0.061725 0.500235 1.046489
C45   C     C_R   0.058686 0.561727 0.499795 1.046761
C46   C     C_R   0.297361 0.172090 0.373177 0.567668
C47   C     C_R   0.941328 0.561725 0.500235 1.046488
C48   C     C_R   0.648273 0.215285 0.253969 -0.259421
C49   C     C_R   0.351806 0.215288 0.746005 -0.259695
C50   C     C_R   0.148273 0.715285 0.253969 -0.259421
C51   C     C_R   0.851806 0.715288 0.746005 -0.259695
C52   C     C_R   0.613603 0.215148 0.181921 0.548968
C53   C     C_R   0.386532 0.215144 0.818055 0.549081
C54   C     C_R   0.113603 0.715148 0.181921 0.548968
C55   C     C_R   0.886532 0.715144 0.818055 0.549081
C56   C     C_R   0.575089 0.249732 0.145291 -0.028056
C57   C     C_R   0.202515 0.672406 0.626843 0.568737
C58   C     C_R   0.425088 0.249725 0.854710 -0.028224
C59   C     C_R   0.075089 0.749732 0.145291 -0.028056
C60   C     C_R   0.925087 0.749725 0.854710 -0.028224
C61   C     C_R   0.573473 0.284720 0.181517 -0.232184
C62   C     C_R   0.426692 0.284717 0.818513 -0.232265
C63   C     C_R   0.073473 0.784720 0.181517 -0.232185
C64   C     C_R   0.926691 0.784717 0.818513 -0.232265
C65   C     C_R   0.608506 0.284797 0.253277 -0.203308
C66   C     C_R   0.391602 0.284801 0.746751 -0.203412
C67   C     C_R   0.108506 0.784797 0.253277 -0.203307
C68   C     C_R   0.797361 0.672090 0.373177 0.567668
C69   C     C_R   0.891602 0.784801 0.746751 -0.203412
C70   C     C_3   0.945882 0.193066 0.713571 -0.284417
C71   C     C_3   0.054743 0.192028 0.287562 -0.203190
C72   C     C_3   0.445882 0.693066 0.713571 -0.284417
C73   C     C_3   0.554743 0.692028 0.287562 -0.203190
C74   C     C_3   0.658086 0.189378 0.142697 -0.289626
C75   C     C_3   0.342107 0.189365 0.857341 -0.290818
C76   C     C_3   0.158086 0.689378 0.142697 -0.289627
C77   C     C_3   0.842107 0.689365 0.857341 -0.290818
C78   C     C_3   0.788320 0.149601 0.673701 -0.349617
C79   C     C_R   0.694692 0.175819 0.676454 -0.292145
C80   C     C_3   0.211818 0.148749 0.326710 -0.348191
C81   C     C_3   0.288320 0.649601 0.673701 -0.349617
C82   C     C_3   0.711818 0.648749 0.326710 -0.348190
C83   C     C_3   0.532958 0.162367 0.590437 -0.288785
C84   C     C_3   0.466928 0.162321 0.409474 -0.288584
C85   C     C_3   0.032958 0.662367 0.590437 -0.288785
C86   C     C_3   0.966928 0.662321 0.409475 -0.288584
C87   C     C_R   0.305116 0.175496 0.323504 -0.291554
C88   C     C_R   0.194692 0.675819 0.676454 -0.292145
C89   C     C_R   0.308332 0.189427 0.497946 1.084831
C90   C     C_R   0.805115 0.675496 0.323504 -0.291554
C91   C     C_R   0.647073 0.159544 0.662647 -0.333678
C92   C     C_R   0.352783 0.159350 0.337309 -0.332793
C93   C     C_R   0.147073 0.659544 0.662647 -0.333678
C94   C     C_R   0.852782 0.659350 0.337309 -0.332791
C95   C     C_R   0.607524 0.137279 0.600065 0.595742
C96   C     C_R   0.392410 0.137184 0.399918 0.595502
C97   C     C_R   0.107524 0.637279 0.600065 0.595742
C98   C     C_R   0.892410 0.637184 0.399918 0.595502
C99   C     C_R   0.619321 0.128197 0.553910 -0.159638
C100  C     C_R   0.191696 0.689432 0.502107 1.084163
C101  C     C_R   0.380694 0.128140 0.446155 -0.159735
C102  C     C_R   0.119321 0.628197 0.553910 -0.159638
C103  C     C_R   0.880694 0.628140 0.446155 -0.159735
C104  C     C_R   0.661796 0.152075 0.562237 -0.174172
C105  C     C_R   0.338205 0.151958 0.437842 -0.174320
C106  C     C_R   0.161796 0.652075 0.562237 -0.174172
C107  C     C_R   0.838205 0.651958 0.437842 -0.174320
C108  C     C_R   0.662144 0.154682 0.505652 -0.180703
C109  C     C_R   0.337921 0.154671 0.494468 -0.180635
C110  C     C_R   0.162144 0.654682 0.505652 -0.180703
C111  C     C_R   0.808332 0.689427 0.497946 1.084831
C112  C     C_R   0.837921 0.654671 0.494468 -0.180636
C113  C     C_R   0.629331 0.127252 0.447895 0.297798
C114  C     C_R   0.370838 0.127364 0.552303 0.297521
C115  C     C_R   0.129331 0.627252 0.447895 0.297798
C116  C     C_R   0.870838 0.627364 0.552303 0.297522
C117  C     C_R   0.682900 0.249993 0.365353 0.902633
C118  C     C_R   0.317114 0.250000 0.634648 0.903024
C119  C     C_R   0.182900 0.749993 0.365353 0.902633
C120  C     C_R   0.817114 0.750000 0.634648 0.903024
C121  C     C_R   0.597103 0.094883 0.447948 0.310567
C122  C     C_R   0.645953 0.250013 0.289881 -0.099304
C123  C     C_R   0.403072 0.094995 0.552255 0.310695
C124  C     C_R   0.097103 0.594883 0.447948 0.310567
C125  C     C_R   0.903072 0.594995 0.552255 0.310696
C126  C     C_R   0.590457 0.096594 0.499382 -0.203758
C127  C     C_R   0.409615 0.096611 0.500720 -0.203541
C128  C     C_R   0.090457 0.596594 0.499382 -0.203758
C129  C     C_R   0.909615 0.596611 0.500720 -0.203541
C130  C     C_R   0.914006 0.246502 0.745563 0.374648
C131  C     C_R   0.087066 0.243630 0.253353 0.472189
C132  C     C_R   0.414006 0.746502 0.745563 0.374648
C133  C     C_R   0.354110 0.250021 0.710120 -0.099415
C134  C     C_R   0.587066 0.743630 0.253353 0.472189
C135  C     C_R   0.950975 0.251539 0.818103 0.300341
C136  C     C_R   0.051099 0.245534 0.180932 0.296471
C137  C     C_R   0.450975 0.751539 0.818103 0.300341
C138  C     C_R   0.551099 0.745534 0.180932 0.296471
C139  C     C_R   0.930366 0.258365 0.854642 -0.083719
C140  C     C_R   0.072403 0.254068 0.145214 -0.153951
C141  C     C_R   0.430366 0.758365 0.854642 -0.083719
C142  C     C_R   0.572403 0.754068 0.145214 -0.153951
C143  C     C_R   0.873654 0.263986 0.818903 0.395144
C144  C     C_R   0.145953 0.750013 0.289881 -0.099303
C145  C     C_R   0.128876 0.261208 0.181810 0.443423
C146  C     C_R   0.373654 0.763986 0.818903 0.395144
C147  C     C_R   0.628876 0.761208 0.181810 0.443423
C148  C     C_R   0.837913 0.262522 0.746706 -0.339126
C149  C     C_R   0.163817 0.260825 0.253994 -0.339694
C150  C     C_R   0.337913 0.762522 0.746706 -0.339126
C151  C     C_R   0.663817 0.760825 0.253994 -0.339694
C152  C     C_R   0.857508 0.253362 0.710077 -0.226988
C153  C     C_R   0.143401 0.252105 0.289802 -0.272403
C154  C     C_R   0.357508 0.753362 0.710077 -0.226988
C155  C     C_R   0.854110 0.750021 0.710120 -0.099415
C156  C     C_R   0.643401 0.752105 0.289802 -0.272403
C157  C     C_R   0.036332 0.256328 0.069911 0.343394
C158  C     C_R   0.968344 0.258611 0.930523 0.412662
C159  C     C_R   0.536332 0.756328 0.069911 0.343395
C160  C     C_R   0.468344 0.758611 0.930523 0.412662
C161  C     C_R   0.754920 0.385508 0.400765 -0.173851
C162  C     C_R   0.245065 0.385613 0.599174 -0.173875
C163  C     C_R   0.254920 0.885508 0.400765 -0.173851
C164  C     C_R   0.745065 0.885614 0.599174 -0.173875
C165  C     C_R   0.808213 0.310564 0.497262 0.864264
C166  C     C_R   0.463853 0.249694 0.930283 0.294573
C167  C     C_R   0.191787 0.310567 0.502739 0.864727
C168  C     C_R   0.308213 0.810564 0.497262 0.864264
C169  C     C_R   0.691787 0.810567 0.502739 0.864727
C170  C     C_R   0.730634 0.423805 0.360937 -0.136538
C171  C     C_R   0.269342 0.423951 0.638972 -0.136620
C172  C     C_R   0.230634 0.923805 0.360937 -0.136537
C173  C     C_R   0.769342 0.923951 0.638972 -0.136620
C174  C     C_R   0.763148 0.459201 0.369593 -0.136666
C175  C     C_R   0.236820 0.459339 0.630297 -0.137039
C176  C     C_R   0.263148 0.959201 0.369593 -0.136666
H1    H     H_    0.676845 0.188045 0.281579 0.184216
H2    H     H_    0.084337 0.312540 0.425833 0.181751
H3    H     H_    0.671823 0.658970 0.312595 0.183903
H4    H     H_    0.539927 0.194437 0.574351 0.141240
H5    H     H_    0.547941 0.164316 0.644504 0.171116
H6    H     H_    0.488114 0.157617 0.557167 0.196945
H7    H     H_    0.511761 0.157541 0.442588 0.197004
H8    H     H_    0.451826 0.164331 0.355362 0.171114
H9    H     H_    0.460069 0.194365 0.425759 0.141148
H10   H     H_    0.039927 0.694437 0.574352 0.141240
H11   H     H_    0.047941 0.664316 0.644504 0.171117
H12   H     H_    0.988115 0.657617 0.557168 0.196944
H13   H     H_    0.415657 0.812610 0.574191 0.180954
H14   H     H_    0.011761 0.657541 0.442588 0.197004
H15   H     H_    0.951826 0.664332 0.355363 0.171113
H16   H     H_    0.960070 0.694365 0.425761 0.141148
H17   H     H_    0.584337 0.812540 0.425833 0.181751
H18   H     H_    0.727952 0.358662 0.391369 0.147720
H19   H     H_    0.272039 0.358776 0.608590 0.147658
H20   H     H_    0.227952 0.858662 0.391369 0.147720
H21   H     H_    0.772039 0.858776 0.608590 0.147658
H22   H     H_    0.686404 0.426129 0.323558 0.135836
H23   H     H_    0.313572 0.426312 0.676344 0.135981
H24   H     H_    0.186404 0.926129 0.323558 0.135835
H25   H     H_    0.323202 0.188049 0.718374 0.184169
H26   H     H_    0.813572 0.926312 0.676344 0.135981
H27   H     H_    0.744174 0.489247 0.339586 0.134716
H28   H     H_    0.255788 0.489414 0.660283 0.134700
H29   H     H_    0.244174 0.989247 0.339586 0.134716
H30   H     H_    0.755788 0.989414 0.660283 0.134700
H31   H     H_    0.843719 0.484364 0.421895 0.148725
H32   H     H_    0.156241 0.484448 0.577993 0.148770
H33   H     H_    0.343719 0.984364 0.421895 0.148725
H34   H     H_    0.656241 0.984448 0.577993 0.148770
H35   H     H_    0.972031 0.369642 0.577018 0.164440
H36   H     H_    0.176845 0.688045 0.281579 0.184216
H37   H     H_    0.027955 0.369580 0.422972 0.166013
H38   H     H_    0.472031 0.869642 0.577018 0.164439
H39   H     H_    0.527955 0.869580 0.422972 0.166013
H40   H     H_    0.544379 0.311684 0.154296 0.172184
H41   H     H_    0.455816 0.311679 0.845755 0.172359
H42   H     H_    0.044379 0.811684 0.154296 0.172184
H43   H     H_    0.955816 0.811679 0.845755 0.172359
H44   H     H_    0.606348 0.312111 0.280073 0.164782
H45   H     H_    0.393753 0.312116 0.719977 0.164872
H46   H     H_    0.106348 0.812111 0.280073 0.164782
H47   H     H_    0.823202 0.688049 0.718374 0.184168
H48   H     H_    0.893753 0.812116 0.719977 0.164871
H49   H     H_    0.725577 0.191537 0.725658 0.180497
H50   H     H_    0.274130 0.191076 0.274247 0.181997
H51   H     H_    0.225577 0.691537 0.725658 0.180497
H52   H     H_    0.774130 0.691076 0.274247 0.181997
H53   H     H_    0.641119 0.164115 0.700994 0.174260
H54   H     H_    0.358680 0.163895 0.298911 0.174768
H55   H     H_    0.141119 0.664115 0.700994 0.174260
H56   H     H_    0.858680 0.663895 0.298911 0.174768
H57   H     H_    0.594329 0.055593 0.383191 0.347797
H58   H     H_    0.794304 0.267211 0.718989 0.200523
H59   H     H_    0.406011 0.055832 0.617210 0.347452
H60   H     H_    0.094329 0.555593 0.383191 0.347797
H61   H     H_    0.906011 0.555832 0.617210 0.347452
H62   H     H_    0.959087 0.186599 0.681691 0.189498
H63   H     H_    0.909456 0.171802 0.693166 0.157616
H64   H     H_    0.980189 0.183168 0.767475 0.172404
H65   H     H_    0.044692 0.186726 0.322978 0.174187
H66   H     H_    0.090568 0.170535 0.305880 0.120756
H67   H     H_    0.018537 0.181405 0.235222 0.192448
H68   H     H_    0.459087 0.686599 0.681691 0.189497
H69   H     H_    0.207297 0.266797 0.282378 0.200491
H70   H     H_    0.409456 0.671802 0.693166 0.157616
H71   H     H_    0.480189 0.683168 0.767475 0.172404
H72   H     H_    0.544693 0.686727 0.322979 0.174187
H73   H     H_    0.590568 0.670535 0.305880 0.120756
H74   H     H_    0.518537 0.681405 0.235222 0.192449
H75   H     H_    0.015648 0.253690 0.822006 0.372314
H76   H     H_    0.977137 0.229899 0.099260 0.339102
H77   H     H_    0.515648 0.753690 0.822006 0.372313
H78   H     H_    0.477137 0.729899 0.099260 0.339102
H79   H     H_    0.813427 0.272889 0.822571 0.336532
H80   H     H_    0.294304 0.767211 0.718989 0.200523
H81   H     H_    0.189026 0.273786 0.179226 0.332301
H82   H     H_    0.313427 0.772889 0.822571 0.336532
H83   H     H_    0.689026 0.773786 0.179226 0.332301
H84   H     H_    0.649780 0.220740 0.113719 0.156916
H85   H     H_    0.659348 0.161973 0.113680 0.207885
H86   H     H_    0.699003 0.190942 0.194614 0.155268
H87   H     H_    0.350460 0.220727 0.886380 0.156644
H88   H     H_    0.340858 0.161959 0.886342 0.208052
H89   H     H_    0.301169 0.190926 0.805453 0.154790
H90   H     H_    0.149780 0.720740 0.113719 0.156916
H91   H     H_    0.707297 0.766797 0.282378 0.200491
H92   H     H_    0.159348 0.661973 0.113680 0.207886
H93   H     H_    0.199004 0.690942 0.194614 0.155268
H94   H     H_    0.850460 0.720727 0.886380 0.156644
H95   H     H_    0.840858 0.661959 0.886342 0.208053
H96   H     H_    0.801169 0.690926 0.805453 0.154790
H97   H     H_    0.594383 0.122151 0.350041 0.349753
H98   H     H_    0.405899 0.122448 0.650200 0.349603
H99   H     H_    0.094384 0.622151 0.350041 0.349753
H100  H     H_    0.905899 0.622448 0.650200 0.349603
H101  H     H_    0.772946 0.121632 0.636345 0.169579
H102  H     H_    0.915657 0.312610 0.574191 0.180954
H103  H     H_    0.795940 0.138161 0.721822 0.172572
H104  H     H_    0.828312 0.160091 0.688022 0.185857
H105  H     H_    0.227560 0.120876 0.364250 0.169333
H106  H     H_    0.204106 0.137272 0.278537 0.172911
H107  H     H_    0.171823 0.158970 0.312595 0.183903
H108  H     H_    0.272946 0.621632 0.636345 0.169579
H109  H     H_    0.295940 0.638161 0.721822 0.172572
H110  H     H_    0.328312 0.660091 0.688022 0.185857
H111  H     H_    0.727560 0.620876 0.364250 0.169333
H112  H     H_    0.704106 0.637272 0.278537 0.172911
N1    N     N_R   0.517851 0.288569 0.034314 -0.188310
N2    N     N_R   0.045298 0.229365 0.033950 -0.122480
N3    N     N_R   0.459833 0.785952 0.966718 -0.101673
N4    N     N_R   0.545297 0.729365 0.033950 -0.122480
N5    N     N_R   0.993305 0.284856 0.035336 -0.146375
N6    N     N_R   0.011771 0.230429 0.965392 -0.119099
N7    N     N_R   0.493305 0.784856 0.035336 -0.146375
N8    N     N_R   0.511771 0.730429 0.965392 -0.119098
N9    N     N_R   0.482385 0.288567 0.965745 -0.188383
N10   N     N_R   0.017851 0.788569 0.034314 -0.188310
N11   N     N_R   0.982385 0.788567 0.965745 -0.188383
N12   N     N_R   0.482307 0.210867 0.965716 -0.094380
N13   N     N_R   0.517891 0.210869 0.034221 -0.094380
N14   N     N_R   0.982307 0.710867 0.965716 -0.094380
N15   N     N_R   0.017891 0.710869 0.034221 -0.094380
N16   N     N_R   0.959833 0.285952 0.966718 -0.101673
O1    O     O_R   0.678340 0.230070 0.500020 -0.632618
O2    O     O_R   0.482930 0.045810 0.557520 -0.541830
O3    O     O_R   0.017070 0.545810 0.442480 -0.541597
O4    O     O_R   0.982930 0.545810 0.557520 -0.541830
O5    O     O_R   0.574570 0.045820 0.557490 -0.631510
O6    O     O_R   0.425430 0.045820 0.442510 -0.631209
O7    O     O_R   0.074570 0.545820 0.557490 -0.631510
O8    O     O_R   0.925430 0.545820 0.442510 -0.631209
O9    O     O_R   0.730080 0.178340 0.500000 -0.596175
O10   O     O_R   0.269920 0.178340 0.500000 -0.595679
O11   O     O_R   0.230080 0.678340 0.500000 -0.596174
O12   O     O_R   0.321660 0.230070 0.499980 -0.633087
O13   O     O_R   0.769920 0.678340 0.500000 -0.595678
O14   O     O_R   0.673200 0.275870 0.398140 -0.638645
O15   O     O_R   0.326800 0.275870 0.601860 -0.638590
O16   O     O_R   0.173200 0.775870 0.398140 -0.638645
O17   O     O_R   0.826800 0.775870 0.601860 -0.638590
O18   O     O_R   0.724950 0.224150 0.398130 -0.619763
O19   O     O_R   0.275050 0.224150 0.601870 -0.619752
O20   O     O_R   0.224950 0.724150 0.398130 -0.619763
O21   O     O_R   0.775050 0.724150 0.601870 -0.619752
O22   O     O_R   0.769940 0.321680 0.500000 -0.632011
O23   O     O_R   0.178340 0.730070 0.500020 -0.632618
O24   O     O_R   0.230060 0.321680 0.500000 -0.631122
O25   O     O_R   0.269940 0.821680 0.500000 -0.632011
O26   O     O_R   0.730060 0.821680 0.500000 -0.631122
O27   O     O_R   0.821690 0.269960 0.499980 -0.618352
O28   O     O_R   0.178310 0.269960 0.500020 -0.620145
O29   O     O_R   0.321690 0.769960 0.499980 -0.618352
O30   O     O_R   0.678310 0.769960 0.500020 -0.620145
O31   O     O_R   0.775070 0.275880 0.601870 -0.620932
O32   O     O_R   0.224930 0.275880 0.398130 -0.617222
O33   O     O_R   0.275070 0.775880 0.601870 -0.620932
O34   O     O_R   0.821660 0.730070 0.499980 -0.633087
O35   O     O_R   0.724930 0.775880 0.398130 -0.617222
O36   O     O_R   0.826820 0.224150 0.601850 -0.602070
O37   O     O_R   0.173180 0.224150 0.398150 -0.608841
O38   O     O_R   0.326820 0.724150 0.601850 -0.602070
O39   O     O_R   0.673180 0.724150 0.398150 -0.608841
O40   O     O_R   0.017100 0.454190 0.442490 -0.608827
O41   O     O_R   0.982900 0.454190 0.557510 -0.610046
O42   O     O_R   0.517100 0.954190 0.442490 -0.608827
O43   O     O_R   0.482900 0.954190 0.557510 -0.610046
O44   O     O_3   0.572740 0.060994 0.399619 -0.750634
O45   O     O_R   0.074600 0.454200 0.557500 -0.639470
O46   O     O_3   0.427530 0.061196 0.600677 -0.751121
O47   O     O_3   0.072740 0.560994 0.399619 -0.750634
O48   O     O_3   0.927530 0.561196 0.600677 -0.751121
O49   O     O_3   0.933240 0.238688 0.708763 -0.606567
O50   O     O_3   0.066467 0.237550 0.288934 -0.569578
O51   O     O_3   0.433240 0.738688 0.708763 -0.606568
O52   O     O_3   0.566467 0.737550 0.288934 -0.569578
O53   O     O_3   0.007211 0.251016 0.854435 -0.740586
O54   O     O_3   0.995829 0.239071 0.147573 -0.726756
O55   O     O_3   0.507211 0.751016 0.854435 -0.740586
O56   O     O_R   0.925400 0.454200 0.442500 -0.638763
O57   O     O_3   0.495829 0.739071 0.147573 -0.726757
O58   O     O_3   0.853940 0.269959 0.855408 -0.741034
O59   O     O_3   0.148692 0.269659 0.145928 -0.729069
O60   O     O_3   0.353940 0.769959 0.855408 -0.741034
O61   O     O_3   0.648692 0.769659 0.145928 -0.729069
O62   O     O_3   0.616241 0.180240 0.147723 -0.590840
O63   O     O_3   0.383904 0.180233 0.852226 -0.590617
O64   O     O_3   0.116241 0.680240 0.147723 -0.590840
O65   O     O_3   0.883904 0.680233 0.852226 -0.590617
O66   O     O_3   0.629632 0.133002 0.392595 -0.772486
O67   O     O_R   0.574600 0.954200 0.557500 -0.639470
O68   O     O_3   0.370612 0.133219 0.607650 -0.772779
O69   O     O_3   0.129632 0.633002 0.392595 -0.772486
O70   O     O_3   0.870613 0.633219 0.607650 -0.772779
O71   O     O_3   0.751928 0.186089 0.644060 -0.640835
O72   O     O_3   0.247866 0.185484 0.355948 -0.639481
O73   O     O_3   0.251928 0.686089 0.644060 -0.640835
O74   O     O_3   0.747866 0.685484 0.355948 -0.639481
O75   O     O_3   0.556880 0.125699 0.582132 -0.593698
O76   O     O_3   0.443030 0.125635 0.417767 -0.593539
O77   O     O_3   0.056880 0.625699 0.582132 -0.593698
O78   O     O_R   0.425400 0.954200 0.442500 -0.638763
O79   O     O_3   0.943030 0.625635 0.417767 -0.593539
O80   O     O_R   0.517070 0.045810 0.442480 -0.541597
Zn1   Zn    Zn3+2 0.715460 0.284550 0.500010 0.968670
Zn2   Zn    Zn3+2 0.038380 0.500000 0.576800 1.025764
Zn3   Zn    Zn3+2 0.461620 0.000000 0.423200 1.028344
Zn4   Zn    Zn3+2 0.538380 0.000000 0.576800 1.025764
Zn5   Zn    Zn3+2 0.284540 0.284550 0.499990 0.969274
Zn6   Zn    Zn3+2 0.215460 0.784550 0.500010 0.968670
Zn7   Zn    Zn3+2 0.784540 0.784550 0.499990 0.969274
Zn8   Zn    Zn3+2 0.784560 0.215470 0.499990 0.989782
Zn9   Zn    Zn3+2 0.215440 0.215470 0.500010 0.986122
Zn10  Zn    Zn3+2 0.284560 0.715470 0.499990 0.989782
Zn11  Zn    Zn3+2 0.715440 0.715470 0.500010 0.986122
Zn12  Zn    Zn3+2 0.961620 0.500000 0.423200 1.028344

loop_
_geom_bond_atom_site_label_1
_geom_bond_atom_site_label_2
_ccdc_geom_bond_type
C21   C26   A    
C85   H11   S    
C107  C112  A    
C136  C140  A    
C7    H34   S    
C46   O72   S    
C13   C60   S    
C34   O40   A    
N12   N13   A    
C135  C139  A    
O6    Zn3   S    
C131  O50   S    
C83   H4    S    
C2    N1    A    
C15   C163  A    
C159  N7    A    
C160  N8    A    
C170  C174  A    
C95   C99   A    
C88   H51   S    
C46   C105  A    
C29   C33   A    
C72   H70   S    
C149  C153  A    
C86   O79   S    
C146  C150  A    
C136  O54   S    
C162  C171  A    
C51   H47   S    
C43   O80   A    
C68   C90   A    
O9    Zn8   S    
C61   H40   S    
O35   Zn7   S    
C93   H55   S    
C85   H12   S    
C78   O71   S    
C80   H105  S    
C28   H38   S    
O14   Zn1   S    
C84   H9    S    
C158  N16   A    
C49   H25   S    
C145  O59   S    
C25   C29   A    
C75   H87   S    
C27   C31   A    
C28   C32   A    
C35   C104  A    
H98   O68   S    
C169  O26   A    
O1    Zn1   S    
C120  C155  S    
C17   C21   A    
C47   O8    A    
C72   O51   S    
C108  C113  A    
C73   O52   S    
C42   C156  S    
C35   O71   S    
C34   O45   A    
C84   H8    S    
C16   C20   A    
C76   H93   S    
C77   H96   S    
C164  C173  A    
C65   C122  A    
N5    N16   A    
C163  C172  A    
C45   O7    A    
H61   O48   S    
O2    Zn4   S    
C22   C27   A    
C147  O61   S    
C130  C152  A    
N10   N11   A    
C45   O3    A    
O37   Zn9   S    
C100  O11   A    
C164  H21   S    
C166  N9    A    
C75   H89   S    
C90   H52   S    
C49   C133  A    
O36   Zn8   S    
C59   C63   A    
C115  O69   S    
C140  C145  A    
C53   C58   A    
C42   O39   A    
C74   H84   S    
C86   H16   S    
C30   C36   S    
C137  O55   S    
N1    N9    A    
N3    N7    A    
C163  H20   S    
H83   O61   S    
C49   C53   A    
C51   C55   A    
C74   H85   S    
C125  C129  A    
C48   C52   A    
H99   O69   S    
C80   H107  S    
C97   O77   S    
C117  O14   A    
C103  C107  A    
C38   O43   A    
C39   O31   A    
C40   O37   A    
C76   H90   S    
C111  C112  S    
C76   O64   S    
C41   O33   A    
H100  O70   S    
C94   H56   S    
O33   Zn6   S    
C16   C164  A    
C20   C169  S    
C51   C155  A    
C47   C129  S    
O15   Zn5   S    
C175  H28   S    
C102  C128  A    
O8    Zn12  S    
C123  O46   S    
C146  O60   S    
C29   H39   S    
C44   O2    A    
C13   N11   A    
C83   H5    S    
C113  O66   S    
C132  O51   S    
H78   O57   S    
C168  O29   A    
C24   N15   A    
C139  C143  A    
C162  H19   S    
C132  C154  A    
C37   O67   A    
C84   O76   S    
C79   C91   A    
C124  O47   S    
C36   O56   A    
C57   C106  A    
C12   C161  A    
C50   H36   S    
C70   H64   S    
C143  O58   S    
C50   C144  A    
H97   O66   S    
C111  O13   A    
C99   C126  A    
C73   H73   S    
C54   C59   A    
C143  C148  A    
O16   Zn6   S    
C86   H14   S    
C62   C66   A    
C62   H41   S    
N4    N8    A    
C131  C136  A    
O13   Zn11  S    
C117  O18   A    
C83   O75   S    
C64   C69   A    
C1    O1    A    
C82   H111  S    
O32   Zn5   S    
O56   Zn12  S    
C130  O49   S    
C36   O41   A    
C12   C17   A    
C147  C151  A    
C117  C122  S    
C80   O72   S    
C5    C9    A    
C61   C65   A    
C123  C127  A    
C8    C12   A    
C87   H50   S    
C31   C34   S    
C165  O22   A    
O17   Zn7   S    
C109  C114  A    
O18   Zn8   S    
C114  C123  A    
O10   Zn9   S    
C26   C30   A    
C116  C125  A    
C76   H92   S    
C13   N14   A    
C40   C153  S    
C81   H109  S    
O42   Zn3   S    
C93   C97   A    
C112  C116  A    
C46   C87   A    
C169  O30   A    
C105  C109  A    
C64   H43   S    
N2    N6    A    
C75   O63   S    
C142  C147  A    
C148  C152  A    
C71   H66   S    
C134  O52   S    
C18   C167  S    
C40   O32   A    
C166  N12   A    
C11   C33   A    
H59   O46   S    
O4    Zn2   S    
C2    C56   S    
O24   Zn5   S    
O78   Zn3   S    
C24   C59   S    
C77   O65   S    
O12   Zn5   S    
C35   C79   A    
C101  C127  A    
C172  H24   S    
C58   C166  S    
C71   O50   S    
C96   O76   S    
C91   C95   A    
C113  C121  A    
H60   O47   S    
C70   H62   S    
C23   H13   S    
C96   C101  A    
C172  C176  A    
C58   C62   A    
O80   Zn3   S    
C44   C127  S    
C100  C110  S    
C72   H68   S    
O20   Zn10  S    
C130  C135  A    
C52   O62   S    
C142  C159  S    
C6    H33   S    
C15   C19   A    
C50   C54   A    
C91   H53   S    
C78   H103  S    
C41   C154  S    
C3    C7    A    
C20   C25   A    
C94   C98   A    
C45   C128  S    
C98   C103  A    
C100  O23   A    
C119  O16   A    
C135  O53   S    
C157  N5    A    
O40   Zn12  S    
H79   O58   S    
N14   N15   A    
C134  C156  A    
C42   O35   A    
C82   H3    S    
C77   H95   S    
C68   C107  A    
C82   H112  S    
C97   C102  A    
C4    C8    A    
C124  C128  A    
O3    Zn12  S    
C99   C104  A    
C4    C174  A    
C55   C60   A    
C119  C144  S    
C5    C175  A    
C66   H45   S    
C67   C144  A    
C157  N2    A    
C90   C94   A    
O67   Zn4   S    
C57   O73   S    
C168  O25   A    
C138  C142  A    
O27   Zn8   S    
O22   Zn1   S    
C33   C37   S    
C173  H26   S    
C176  H29   S    
C14   C162  A    
C9    C14   A    
C11   C16   A    
C120  O17   A    
O7    Zn2   S    
C111  O34   A    
O5    Zn4   S    
C151  C156  A    
O29   Zn10  S    
C103  C129  A    
C141  C146  A    
C74   H86   S    
C151  H91   S    
C19   C168  S    
O45   Zn2   S    
C104  C108  A    
C25   H17   S    
C63   H42   S    
C4    H31   S    
C137  C141  A    
C75   H88   S    
C149  H69   S    
C115  C124  A    
C78   H101  S    
H77   O55   S    
C6    C10   A    
C57   C88   A    
C118  O15   A    
C8    C30   A    
C53   O63   S    
C18   C22   A    
C132  C137  A    
C71   H67   S    
C17   C165  S    
C21   H102  S    
C5    H32   S    
C118  O19   A    
H82   O60   S    
C148  H58   S    
C2    N13   A    
O25   Zn6   S    
C125  O48   S    
C27   H37   S    
C56   C61   A    
C110  C115  A    
C145  C149  A    
C81   O73   S    
C1    O9    A    
C14   C18   A    
C19   C23   A    
H75   O53   S    
C92   C96   A    
C22   H2    S    
O30   Zn11  S    
O23   Zn6   S    
C54   O64   S    
C73   H72   S    
O28   Zn9   S    
C7    C11   A    
C86   H15   S    
C69   C155  A    
C72   H71   S    
C98   O79   S    
C10   C15   A    
C48   C122  A    
O31   Zn1   S    
C89   C109  S    
C95   O75   S    
O34   Zn7   S    
C138  O57   S    
C171  H23   S    
C159  N4    A    
C85   O77   S    
C3    C173  A    
C139  C158  S    
C74   O62   S    
C47   O4    A    
C32   C38   S    
C89   O10   A    
C81   H108  S    
C43   C126  S    
C48   H1    S    
C121  O44   S    
C116  O70   S    
C60   C64   A    
O21   Zn11  S    
C101  C105  A    
C63   C67   A    
C44   O6    A    
C131  C153  A    
C71   H65   S    
O38   Zn10  S    
O43   Zn4   S    
O11   Zn10  S    
C171  C175  A    
C39   C152  S    
C82   O74   S    
H76   O54   S    
O41   Zn2   S    
C83   H6    S    
C67   H46   S    
C167  O24   A    
C41   O38   A    
C140  C157  S    
C66   C133  A    
C24   N10   A    
C141  C160  S    
C150  H80   S    
C92   H54   S    
H57   O44   S    
O26   Zn7   S    
C165  O27   A    
C26   H35   S    
C118  C133  S    
C37   O42   A    
H81   O59   S    
C161  C170  A    
C39   O36   A    
C23   C28   A    
C70   H63   S    
C160  N3    A    
C170  H22   S    
C87   C92   A    
C73   H74   S    
C106  C110  A    
C85   H10   S    
C88   C93   A    
C3    H30   S    
C43   O5    A    
C84   H7    S    
O39   Zn11  S    
C134  C138  A    
C65   H44   S    
C55   O65   S    
C70   O49   S    
C69   H48   S    
C78   H104  S    
C121  C126  A    
C167  O28   A    
C6    C176  A    
C80   H106  S    
C174  H27   S    
C38   O78   A    
C161  H18   S    
C102  C106  A    
O19   Zn9   S    
C89   O12   A    
C158  N6    A    
C9    C31   A    
C1    C108  S    
C10   C32   A    
C120  O21   A    
C119  O20   A    
C150  C154  A    
C68   O74   S    
C114  O68   S    
C77   H94   S    
C81   H110  S    
C79   H49   S    
C52   C56   A    
