data_mof_unit_pretest_159.cif
_audit_creation_date              2012-10-26T18:43:48-0400
_audit_creation_method            fapswitch 2.2
_symmetry_space_group_name_H-M    P1
_symmetry_Int_Tables_number       1
_space_group_crystal_system       triclinic
_cell_length_a                    9.636861
_cell_length_b                    10.857969
_cell_length_c                    17.257384
_cell_angle_alpha                 93.79023
_cell_angle_beta                  85.188184
_cell_angle_gamma                 90.703601
_cell_volume                      1795.41522648

loop_
_atom_site_label
_atom_site_type_symbol
_atom_type_description
_atom_site_fract_x
_atom_site_fract_y
_atom_site_fract_z
_atom_type_partial_charge
C1    C     C_R   0.502576 0.736540 0.493810 0.549559
C2    C     C_R   0.528616 0.478134 0.265904 0.009990
C3    C     C_R   0.381862 0.932056 0.488181 0.042078
C4    C     C_R   0.479585 0.490341 0.649622 0.559488
C5    C     C_R   0.508232 0.869611 0.484995 0.013804
C6    C     C_R   0.635021 0.938588 0.477045 -0.019277
C7    C     C_R   0.629032 0.067114 0.487922 -0.140090
C8    C     C_R   0.501179 0.128668 0.496449 -0.012730
C9    C     C_R   0.378082 0.060302 0.494447 0.009518
C10   C     C_3   0.276642 0.065069 0.434132 -0.272788
C11   C     C_3   0.285002 0.926644 0.424290 -0.260219
C12   C     C_R   0.333017 0.442614 0.776149 0.019587
C13   C     C_R   0.932446 0.405688 0.462956 0.104635
C14   C     C_R   0.920276 0.583979 0.547633 0.084805
C15   C     C_R   0.069726 0.587772 0.543676 0.152076
C16   C     C_R   0.499748 0.262501 0.498633 0.529815
C17   C     C_R   0.077821 0.403983 0.464909 0.101043
C18   C     C_3   0.100945 0.353242 0.382699 -0.286966
C19   C     C_3   0.943491 0.353646 0.379715 -0.108825
C20   C     C_R   0.518834 0.497510 0.350296 0.529427
C21   C     C_R   0.463407 0.470134 0.734181 0.010980
C22   C     C_R   0.584087 0.475900 0.773770 -0.160212
C23   C     C_R   0.452438 0.362450 0.151409 0.020936
C24   C     C_R   0.578293 0.470981 0.853552 -0.140910
C25   C     C_R   0.450558 0.459072 0.897111 0.009794
C26   C     C_R   0.326382 0.446428 0.858971 0.097537
C27   C     C_3   0.735962 0.601825 0.090899 -0.290817
C28   C     C_3   0.885496 0.562013 0.097944 -0.405866
C29   C     C_3   0.774662 0.883822 0.445734 -0.259012
C30   C     C_3   0.770921 0.835775 0.360865 -0.412826
C31   C     C_3   0.842340 0.673608 0.608321 -0.251982
C32   C     C_3   0.872209 0.651600 0.692258 -0.434141
C33   C     C_2   0.137601 0.692269 0.586130 0.598861
C34   C     C_R   0.444700 0.387262 0.232291 -0.101471
C35   C     C_2   0.901159 0.435125 0.318506 0.610734
C36   C     C_2   0.190434 0.436928 0.905681 0.535598
C37   C     C_3   0.363502 0.261604 0.113821 -0.262051
C38   C     C_3   0.275900 0.182100 0.169734 -0.447740
C39   C     C_3   0.206741 0.394982 0.734374 -0.245991
C40   C     C_3   0.235478 0.269166 0.691117 -0.426785
C41   C     C_R   0.622665 0.545652 0.219528 -0.067941
C42   C     C_R   0.633292 0.524167 0.138567 0.040851
C43   C     C_R   0.546209 0.433392 0.104412 0.042681
C44   C     C_2   0.447867 0.464933 0.982799 -0.121981
C45   C     C_2   0.549034 0.416310 0.019480 -0.162500
Cu1   Cu    Cu3+1 0.359330 0.500020 0.500000 0.971220
Cu2   Cu    Cu3+1 0.640670 0.499980 0.500000 0.942112
H1    H     H_    0.684939 0.483681 0.742817 0.139073
H2    H     H_    0.899043 0.258628 0.374282 0.104305
H3    H     H_    0.687580 0.615501 0.246341 0.141454
H4    H     H_    0.637387 0.369392 0.987864 0.133093
H5    H     H_    0.360647 0.509915 0.017033 0.152400
H6    H     H_    0.674748 0.481667 0.881357 0.117747
H7    H     H_    0.912315 0.575462 0.159235 0.214193
H8    H     H_    0.899123 0.463334 0.077599 0.186284
H9    H     H_    0.958193 0.618799 0.061535 0.146708
H10   H     H_    0.716855 0.596409 0.028274 0.149129
H11   H     H_    0.724087 0.700524 0.111747 0.137478
H12   H     H_    0.725275 0.119850 0.483832 0.134231
H13   H     H_    0.696638 0.757443 0.356056 0.176189
H14   H     H_    0.738902 0.910318 0.325140 0.140932
H15   H     H_    0.876159 0.804045 0.337540 0.169159
H16   H     H_    0.858941 0.954585 0.447900 0.127793
H17   H     H_    0.808246 0.810542 0.480765 0.184298
H18   H     H_    0.897441 0.553367 0.698341 0.148991
H19   H     H_    0.959954 0.709986 0.710966 0.191818
H20   H     H_    0.780701 0.679079 0.732880 0.137017
H21   H     H_    0.870429 0.770307 0.597277 0.147773
H22   H     H_    0.730398 0.672369 0.606998 0.219077
H23   H     H_    0.173154 0.098320 0.459901 0.138618
H24   H     H_    0.159066 0.876831 0.602793 0.335162
H25   H     H_    0.982835 0.592385 0.366804 0.300257
H26   H     H_    0.994813 0.501347 0.928594 0.325980
H27   H     H_    0.343443 0.135599 0.207821 0.142650
H28   H     H_    0.196627 0.239177 0.205720 0.159530
H29   H     H_    0.220234 0.109798 0.135575 0.158723
H30   H     H_    0.291337 0.305062 0.077133 0.205265
H31   H     H_    0.433103 0.198749 0.075217 0.160427
H32   H     H_    0.145336 0.240636 0.657858 0.140412
H33   H     H_    0.329662 0.271408 0.649858 0.174528
H34   H     H_    0.319802 0.111061 0.381534 0.128138
H35   H     H_    0.250822 0.198984 0.733567 0.154513
H36   H     H_    0.113517 0.380944 0.774797 0.168050
H37   H     H_    0.171468 0.462287 0.695137 0.206102
H38   H     H_    0.183915 0.880689 0.439015 0.192424
H39   H     H_    0.337180 0.892849 0.366980 0.121776
H40   H     H_    0.158721 0.418529 0.344599 0.158711
H41   H     H_    0.375336 0.335070 0.270445 0.114073
H42   H     H_    0.144078 0.258996 0.377491 0.099194
N1    N     N_R   0.852130 0.499070 0.499500 -0.244739
N2    N     N_R   0.148040 0.499110 0.499500 -0.272913
O1    O     O_R   0.381190 0.680360 0.500000 -0.463998
O2    O     O_R   0.115169 0.812761 0.566811 -0.764132
O3    O     O_2   0.844179 0.387534 0.263442 -0.502125
O4    O     O_R   0.930752 0.561712 0.320693 -0.709935
O5    O     O_2   0.171459 0.357075 0.952228 -0.553804
O6    O     O_R   0.083870 0.519174 0.895571 -0.717763
O7    O     O_R   0.618770 0.680320 0.499990 -0.539804
O8    O     O_R   0.367430 0.500040 0.613600 -0.459988
O9    O     O_R   0.605020 0.500000 0.613590 -0.526698
O10   O     O_R   0.381230 0.319680 0.500010 -0.508791
O11   O     O_R   0.618810 0.319640 0.500000 -0.509451
O12   O     O_R   0.394980 0.500000 0.386410 -0.524143
O13   O     O_R   0.632570 0.499960 0.386400 -0.463975
O14   O     O_2   0.202358 0.675210 0.642131 -0.515425

loop_
_geom_bond_atom_site_label_1
_geom_bond_atom_site_label_2
_ccdc_geom_bond_type
C22   H1    S    
Cu1   O8    S    
C29   H16   S    
C13   N1    A    
C41   C42   A    
C17   N2    A    
C14   C31   S    
C28   H9    S    
C7    C8    A    
C20   O12   A    
C38   H29   S    
H26   O6    S    
C29   C30   S    
Cu2   O7    S    
C1    C5    S    
C39   H37   S    
C5    C6    A    
Cu1   O1    S    
C45   H4    S    
C2    C41   A    
C23   C43   A    
C18   C19   S    
C19   H2    S    
C14   N1    A    
H25   O4    S    
C8    C9    A    
C30   H13   S    
C40   H33   S    
C36   O6    S    
C9    C10   S    
C2    C34   A    
C29   H17   S    
C8    C16   S    
Cu2   O11   S    
C21   C22   A    
C25   C44   S    
C7    H12   S    
C28   H8    S    
C38   H28   S    
C31   H21   S    
Cu1   O10   S    
C13   C19   S    
C2    C20   S    
C40   H35   S    
C33   O14   D    
C24   C25   A    
C27   H10   S    
C39   C40   S    
C28   H7    S    
Cu1   N2    S    
C24   H6    S    
C23   C37   S    
C37   H30   S    
C12   C21   A    
Cu2   O9    S    
C12   C26   A    
C37   C38   S    
C3    C9    A    
C36   O5    D    
C31   C32   S    
C23   C34   A    
C17   C18   S    
C40   H32   S    
C34   H41   S    
C43   C45   S    
C32   H20   S    
H24   O2    S    
C10   H23   S    
C16   O11   A    
C1    O1    A    
C4    O9    A    
Cu2   N1    S    
C22   C24   A    
C30   H14   S    
C42   C43   A    
C41   H3    S    
C44   C45   D    
C32   H19   S    
C38   H27   S    
C35   O3    D    
C26   C36   S    
Cu1   Cu2   S    
Cu2   O13   S    
C18   H42   S    
C3    C5    A    
C27   H11   S    
C33   O2    S    
C1    O7    A    
C6    C7    A    
C20   O13   A    
C35   O4    S    
Cu1   O12   S    
C10   H34   S    
C18   H40   S    
C13   C17   A    
C12   C39   S    
C30   H15   S    
C25   C26   A    
C39   H36   S    
C19   C35   S    
C4    C21   S    
C27   C42   S    
C44   H5    S    
C11   H38   S    
C3    C11   S    
C10   C11   S    
C15   N2    A    
C16   O10   A    
C31   H22   S    
C6    C29   S    
C4    O8    A    
C27   C28   S    
C14   C15   A    
C11   H39   S    
C37   H31   S    
C15   C33   S    
C32   H18   S    
