data_mof_unit_pretest_1863.cif
_audit_creation_date              2012-12-10T20:16:40-0500
_audit_creation_method            fapswitch 2.2
_symmetry_space_group_name_H-M    P1
_symmetry_Int_Tables_number       1
_space_group_crystal_system       triclinic
_cell_length_a                    25.655903
_cell_length_b                    25.656376
_cell_length_c                    25.773332
_cell_angle_alpha                 89.999173
_cell_angle_beta                  90.065985
_cell_angle_gamma                 90.000142
_cell_volume                      16964.9622152

loop_
_atom_site_label
_atom_site_type_symbol
_atom_type_description
_atom_site_fract_x
_atom_site_fract_y
_atom_site_fract_z
_atom_type_partial_charge
C1    C     C_1   0.828229 0.671496 0.750235 0.147640
C2    C     C_1   0.171777 0.328511 0.249758 0.147618
C3    C     C_1   0.328562 0.828231 0.750263 0.146357
C4    C     C_1   0.671439 0.171768 0.249738 0.146359
C5    C     C_1   0.171430 0.328224 0.749731 0.146300
C6    C     C_1   0.828566 0.671773 0.250266 0.146296
C7    C     C_1   0.671776 0.171489 0.749758 0.147579
C8    C     C_1   0.328224 0.828510 0.250241 0.147627
C9    C     C_1   0.828293 0.328444 0.249743 0.140126
C10   C     C_1   0.171708 0.671555 0.750258 0.140122
C11   C     C_1   0.328454 0.171663 0.249753 0.153622
C12   C     C_1   0.671549 0.828340 0.750243 0.153618
C13   C     C_1   0.171544 0.671665 0.250248 0.153638
C14   C     C_1   0.828454 0.328336 0.749753 0.153584
C15   C     C_1   0.671710 0.828447 0.250261 0.140047
C16   C     C_1   0.328288 0.171551 0.749738 0.140036
C17   C     C_R   0.788471 0.711193 0.750294 -0.136644
C18   C     C_R   0.211539 0.288817 0.249697 -0.136656
C19   C     C_R   0.288890 0.788466 0.750332 -0.139419
C20   C     C_R   0.711112 0.211533 0.249669 -0.139427
C21   C     C_R   0.211099 0.288454 0.749659 -0.139446
C22   C     C_R   0.788896 0.711541 0.250337 -0.139482
C23   C     C_R   0.711538 0.211184 0.749697 -0.136710
C24   C     C_R   0.288462 0.788817 0.250303 -0.136660
C25   C     C_R   0.788497 0.288783 0.249679 -0.135390
C26   C     C_R   0.211504 0.711216 0.750322 -0.135384
C27   C     C_R   0.288792 0.211437 0.249700 -0.140802
C28   C     C_R   0.711214 0.788570 0.750294 -0.140820
C29   C     C_R   0.211206 0.711439 0.250302 -0.140803
C30   C     C_R   0.788792 0.288563 0.749699 -0.140860
C31   C     C_R   0.711509 0.788789 0.250326 -0.135467
C32   C     C_R   0.288488 0.211208 0.749671 -0.135444
C33   C     C_1   0.638407 0.861542 0.750140 -0.018740
C34   C     C_1   0.361594 0.138460 0.249858 -0.018726
C35   C     C_1   0.138486 0.638416 0.750147 -0.052625
C36   C     C_1   0.861514 0.361584 0.249854 -0.052615
C37   C     C_1   0.361513 0.138414 0.749851 -0.052662
C38   C     C_1   0.638487 0.861585 0.250148 -0.052643
C39   C     C_1   0.861595 0.361540 0.749858 -0.018743
C40   C     C_1   0.138404 0.638461 0.250142 -0.018717
C41   C     C_1   0.638320 0.138539 0.249846 -0.035266
C42   C     C_1   0.361680 0.861460 0.750154 -0.035277
C43   C     C_1   0.138554 0.361647 0.249859 -0.035875
C44   C     C_1   0.861449 0.638357 0.750137 -0.035878
C45   C     C_1   0.361446 0.861646 0.250141 -0.035869
C46   C     C_1   0.638554 0.138354 0.749859 -0.035896
C47   C     C_1   0.861682 0.638542 0.250155 -0.035289
C48   C     C_1   0.138316 0.361456 0.749843 -0.035291
C49   C     C_R   0.594972 0.967334 0.956522 0.259852
C50   C     C_R   0.405023 0.032647 0.043480 0.259811
C51   C     C_R   0.967134 0.594892 0.956362 0.260059
C52   C     C_R   0.032839 0.405102 0.043639 0.260018
C53   C     C_R   0.405145 0.967049 0.956274 0.260018
C54   C     C_R   0.594856 0.032937 0.043725 0.260032
C55   C     C_R   0.967232 0.405073 0.956363 0.259876
C56   C     C_R   0.032745 0.594930 0.043635 0.259869
C57   C     C_R   0.094964 0.532689 0.456518 0.259813
C58   C     C_R   0.905035 0.467316 0.543481 0.259844
C59   C     C_R   0.467192 0.094910 0.456362 0.259804
C60   C     C_R   0.532834 0.905096 0.543639 0.259854
C61   C     C_R   0.905135 0.532914 0.456272 0.260057
C62   C     C_R   0.094867 0.467095 0.543728 0.260006
C63   C     C_R   0.467226 0.905080 0.456364 0.260075
C64   C     C_R   0.532802 0.094915 0.543637 0.260102
C65   C     C_R   0.047569 0.488138 0.524674 -0.041893
C66   C     C_R   0.952432 0.511867 0.475326 -0.041912
C67   C     C_R   0.511805 0.047591 0.524629 -0.042320
C68   C     C_R   0.488211 0.952409 0.475373 -0.042307
C69   C     C_R   0.952388 0.488259 0.524557 -0.042396
C70   C     C_R   0.047613 0.511745 0.475442 -0.042379
C71   C     C_R   0.511820 0.952413 0.524631 -0.042143
C72   C     C_R   0.488196 0.047589 0.475372 -0.042099
C73   C     C_R   0.547565 0.011877 0.024673 -0.041954
C74   C     C_R   0.452434 0.988115 0.975326 -0.041944
C75   C     C_R   0.011775 0.547595 0.024627 -0.042151
C76   C     C_R   0.988211 0.452405 0.975371 -0.042154
C77   C     C_R   0.452383 0.011723 0.024557 -0.042384
C78   C     C_R   0.547615 0.988268 0.975443 -0.042425
C79   C     C_R   0.011820 0.452415 0.024629 -0.042267
C80   C     C_R   0.988165 0.547582 0.975369 -0.042305
C81   C     C_R   0.642794 0.982365 0.979232 -0.183649
C82   C     C_R   0.357202 0.017605 0.020774 -0.183707
C83   C     C_R   0.982075 0.642749 0.979018 -0.183794
C84   C     C_R   0.017882 0.357247 0.020989 -0.183847
C85   C     C_R   0.357268 0.981964 0.978832 -0.184200
C86   C     C_R   0.642732 0.018010 0.021171 -0.184197
C87   C     C_R   0.982232 0.357231 0.979013 -0.184104
C88   C     C_R   0.017728 0.642770 0.020992 -0.184112
C89   C     C_R   0.142789 0.517673 0.479230 -0.183667
C90   C     C_R   0.857210 0.482336 0.520770 -0.183647
C91   C     C_R   0.482166 0.142760 0.479013 -0.184078
C92   C     C_R   0.517876 0.857244 0.520983 -0.184022
C93   C     C_R   0.857263 0.517975 0.478827 -0.184197
C94   C     C_R   0.142738 0.482037 0.521176 -0.184200
C95   C     C_R   0.482226 0.857235 0.479006 -0.183869
C96   C     C_R   0.517817 0.142763 0.520989 -0.183879
C97   C     C_R   0.999966 0.484902 0.552289 -0.074555
C98   C     C_R   0.000035 0.515101 0.447710 -0.074553
C99   C     C_R   0.515106 0.000002 0.552308 -0.074520
C100  C     C_R   0.484903 0.999998 0.447694 -0.074518
C101  C     C_R   0.499960 0.015098 0.052289 -0.074542
C102  C     C_R   0.500038 0.984897 0.947710 -0.074545
C103  C     C_R   0.015097 0.500006 0.052306 -0.074516
C104  C     C_R   0.984894 0.499993 0.947692 -0.074516
C105  C     C_R   0.505680 0.000001 0.609477 0.867958
C106  C     C_R   0.494322 0.999999 0.390523 0.867981
C107  C     C_R   0.999980 0.494323 0.609470 0.868058
C108  C     C_R   0.000020 0.505678 0.390529 0.868015
C109  C     C_R   0.005678 0.500001 0.109477 0.867980
C110  C     C_R   0.994320 0.499998 0.890522 0.867954
C111  C     C_R   0.499979 0.005678 0.109470 0.868013
C112  C     C_R   0.500021 0.994321 0.890529 0.868002
C113  C     C_R   0.599049 0.098994 0.749970 0.836545
C114  C     C_R   0.400951 0.901006 0.250029 0.836517
C115  C     C_R   0.900951 0.598994 0.750029 0.836595
C116  C     C_R   0.099049 0.401006 0.249971 0.836527
C117  C     C_R   0.401021 0.900965 0.750031 0.835918
C118  C     C_R   0.598978 0.099035 0.249969 0.835914
C119  C     C_R   0.098978 0.400965 0.749969 0.835858
C120  C     C_R   0.901022 0.599035 0.250031 0.835894
C121  C     C_R   0.599012 0.900984 0.250022 0.814357
C122  C     C_R   0.400988 0.099016 0.749978 0.814316
C123  C     C_R   0.900988 0.400984 0.249978 0.814378
C124  C     C_R   0.099012 0.599016 0.750022 0.814377
C125  C     C_R   0.400984 0.099011 0.249977 0.858297
C126  C     C_R   0.599016 0.900989 0.750023 0.858348
C127  C     C_R   0.099016 0.599011 0.250023 0.858300
C128  C     C_R   0.900984 0.400989 0.749977 0.858319
C129  C     C_R   0.757528 0.718902 0.705830 0.218565
C130  C     C_R   0.242835 0.281463 0.293978 0.218554
C131  C     C_R   0.282347 0.756373 0.706537 0.222672
C132  C     C_R   0.717666 0.243614 0.293471 0.222690
C133  C     C_R   0.243518 0.282391 0.706066 0.231613
C134  C     C_R   0.756658 0.717784 0.294043 0.231631
C135  C     C_R   0.718898 0.242315 0.705335 0.227414
C136  C     C_R   0.281194 0.757592 0.294599 0.227403
C137  C     C_R   0.756443 0.282332 0.293474 0.225890
C138  C     C_R   0.243569 0.717655 0.706534 0.225898
C139  C     C_R   0.281546 0.242675 0.293984 0.230702
C140  C     C_R   0.718814 0.757686 0.705827 0.230729
C141  C     C_R   0.242465 0.718808 0.294599 0.224202
C142  C     C_R   0.757626 0.281101 0.705336 0.224178
C143  C     C_R   0.717858 0.756494 0.294030 0.219509
C144  C     C_R   0.282319 0.243682 0.706080 0.219496
C145  C     C_R   0.257534 0.218808 0.205395 0.224183
C146  C     C_R   0.742123 0.780849 0.794780 0.224156
C147  C     C_R   0.781914 0.256724 0.205854 0.219508
C148  C     C_R   0.218077 0.743285 0.794140 0.219496
C149  C     C_R   0.743801 0.782578 0.206654 0.225848
C150  C     C_R   0.256014 0.217238 0.793229 0.225818
C151  C     C_R   0.218451 0.742679 0.206024 0.230693
C152  C     C_R   0.781455 0.257416 0.794043 0.230714
C153  C     C_R   0.256875 0.781997 0.794152 0.231664
C154  C     C_R   0.743116 0.218012 0.205843 0.231653
C155  C     C_R   0.780852 0.742064 0.794779 0.227403
C156  C     C_R   0.218807 0.257594 0.205394 0.227411
C157  C     C_R   0.742743 0.218629 0.794038 0.218553
C158  C     C_R   0.257163 0.781465 0.206029 0.218570
C159  C     C_R   0.217236 0.255954 0.793225 0.222640
C160  C     C_R   0.782579 0.743860 0.206657 0.222670
O1    O     O_3   0.500000 0.000000 0.750000 -0.526422
O2    O     O_3   0.500000 0.000000 0.250000 -0.526440
O3    O     O_3   1.000000 0.500000 0.750000 -0.526430
O4    O     O_3   0.000000 0.500000 0.250000 -0.526438
O5    O     O_R   0.500000 0.957290 0.634170 -0.617002
O6    O     O_R   0.500000 0.042710 0.365830 -0.616977
O7    O     O_R   0.042710 0.500000 0.634170 -0.615605
O8    O     O_R   0.957290 0.500000 0.365830 -0.615626
O9    O     O_R   0.500000 0.042710 0.634170 -0.615741
O10   O     O_R   0.500000 0.957290 0.365830 -0.615726
O11   O     O_R   0.957290 0.500000 0.634170 -0.617037
O12   O     O_R   0.042710 0.500000 0.365830 -0.617043
O13   O     O_R   1.000000 0.457290 0.134170 -0.615699
O14   O     O_R   0.000000 0.542710 0.865830 -0.615724
O15   O     O_R   0.542710 0.000000 0.134170 -0.615634
O16   O     O_R   0.457290 0.000000 0.865830 -0.615638
O17   O     O_R   1.000000 0.542710 0.134170 -0.617008
O18   O     O_R   0.000000 0.457290 0.865830 -0.617023
O19   O     O_R   0.457290 0.000000 0.134170 -0.617031
O20   O     O_R   0.542710 0.000000 0.865830 -0.617052
O21   O     O_R   0.560130 0.102810 0.719600 -0.593648
O22   O     O_R   0.439870 0.897190 0.280400 -0.593645
O23   O     O_R   0.897190 0.560130 0.719600 -0.622030
O24   O     O_R   0.102810 0.439870 0.280400 -0.622003
O25   O     O_R   0.439870 0.897190 0.719600 -0.621947
O26   O     O_R   0.560130 0.102810 0.280400 -0.621918
O27   O     O_R   0.102810 0.439870 0.719600 -0.593435
O28   O     O_R   0.897190 0.560130 0.280400 -0.593471
O29   O     O_R   0.560130 0.897190 0.280400 -0.617839
O30   O     O_R   0.439870 0.102810 0.719600 -0.617841
O31   O     O_R   0.897190 0.439870 0.280400 -0.617489
O32   O     O_R   0.102810 0.560130 0.719600 -0.617468
O33   O     O_R   0.439870 0.102810 0.280400 -0.597520
O34   O     O_R   0.560130 0.897190 0.719600 -0.597561
O35   O     O_R   0.102810 0.560130 0.280400 -0.597973
O36   O     O_R   0.897190 0.439870 0.719600 -0.598009
O37   O     O_R   0.060130 0.602810 0.219600 -0.597506
O38   O     O_R   0.939870 0.397190 0.780400 -0.597506
O39   O     O_R   0.397190 0.060130 0.219600 -0.597963
O40   O     O_R   0.602810 0.939870 0.780400 -0.598016
O41   O     O_R   0.939870 0.397190 0.219600 -0.617873
O42   O     O_R   0.060130 0.602810 0.780400 -0.617903
O43   O     O_R   0.602810 0.939870 0.219600 -0.617489
O44   O     O_R   0.397190 0.060130 0.780400 -0.617474
O45   O     O_R   0.060130 0.397190 0.780400 -0.621895
O46   O     O_R   0.939870 0.602810 0.219600 -0.621891
O47   O     O_R   0.397190 0.939870 0.780400 -0.593464
O48   O     O_R   0.602810 0.060130 0.219600 -0.593482
O49   O     O_R   0.939870 0.602810 0.780400 -0.593703
O50   O     O_R   0.060130 0.397190 0.219600 -0.593652
O51   O     O_R   0.602810 0.060130 0.780400 -0.622028
O52   O     O_R   0.397190 0.939870 0.219600 -0.621992
Zn1   Zn    Zn3+2 0.561040 0.000000 0.793350 1.070780
Zn2   Zn    Zn3+2 0.438960 0.000000 0.206650 1.070823
Zn3   Zn    Zn3+2 0.000000 0.561040 0.793350 1.061767
Zn4   Zn    Zn3+2 0.000000 0.438960 0.206650 1.061807
Zn5   Zn    Zn3+2 0.438960 0.000000 0.793350 1.061923
Zn6   Zn    Zn3+2 0.561040 0.000000 0.206650 1.061920
Zn7   Zn    Zn3+2 0.000000 0.438960 0.793350 1.070842
Zn8   Zn    Zn3+2 1.000000 0.561040 0.206650 1.070860
Zn9   Zn    Zn3+2 0.061040 0.500000 0.293350 1.070808
Zn10  Zn    Zn3+2 0.938960 0.500000 0.706650 1.070798
Zn11  Zn    Zn3+2 0.500000 0.061040 0.293350 1.070834
Zn12  Zn    Zn3+2 0.500000 0.938960 0.706650 1.070795
Zn13  Zn    Zn3+2 0.938960 0.500000 0.293350 1.061932
Zn14  Zn    Zn3+2 0.061040 0.500000 0.706650 1.061967
Zn15  Zn    Zn3+2 0.500000 0.938960 0.293350 1.061834
Zn16  Zn    Zn3+2 0.500000 0.061040 0.706650 1.061815
Br1   Br    Br    0.592979 0.907248 0.910891 -0.372059
Br2   Br    Br    0.407004 0.092736 0.089107 -0.372430
Br3   Br    Br    0.907058 0.592764 0.910659 -0.369933
Br4   Br    Br    0.092922 0.407216 0.089335 -0.370305
Br5   Br    Br    0.407324 0.906979 0.910638 -0.370909
Br6   Br    Br    0.592684 0.093012 0.089354 -0.370891
Br7   Br    Br    0.907142 0.407132 0.910673 -0.372741
Br8   Br    Br    0.092841 0.592882 0.089317 -0.372853
Br9   Br    Br    0.092959 0.592768 0.410877 -0.372346
Br10  Br    Br    0.907040 0.407234 0.589117 -0.372288
Br11  Br    Br    0.407109 0.092821 0.410664 -0.373067
Br12  Br    Br    0.592912 0.907201 0.589343 -0.372666
Br13  Br    Br    0.907289 0.592991 0.410644 -0.370953
Br14  Br    Br    0.092717 0.407016 0.589355 -0.371225
Br15  Br    Br    0.407131 0.907148 0.410681 -0.370075
Br16  Br    Br    0.592891 0.092831 0.589327 -0.369956
Br17  Br    Br    0.676151 0.768648 0.645049 -0.289772
Br18  Br    Br    0.324682 0.232188 0.354518 -0.289900
Br19  Br    Br    0.234248 0.673412 0.646679 -0.309857
Br20  Br    Br    0.765780 0.326559 0.353339 -0.309865
Br21  Br    Br    0.327062 0.235045 0.646547 -0.313865
Br22  Br    Br    0.673362 0.765378 0.353720 -0.313763
Br23  Br    Br    0.768099 0.324062 0.644735 -0.293547
Br24  Br    Br    0.232116 0.675722 0.355112 -0.293604
Br25  Br    Br    0.673492 0.234398 0.353333 -0.311116
Br26  Br    Br    0.326535 0.765574 0.646684 -0.311193
Br27  Br    Br    0.232563 0.324554 0.354491 -0.315385
Br28  Br    Br    0.768287 0.676298 0.645063 -0.315540
Br29  Br    Br    0.324340 0.768063 0.355110 -0.292677
Br30  Br    Br    0.675882 0.231716 0.644733 -0.292559
Br31  Br    Br    0.765779 0.673275 0.353772 -0.289484
Br32  Br    Br    0.234640 0.327143 0.646489 -0.289677
Br33  Br    Br    0.175665 0.268068 0.144873 -0.292849
Br34  Br    Br    0.823517 0.731113 0.855548 -0.292654
Br35  Br    Br    0.733680 0.173819 0.145953 -0.289503
Br36  Br    Br    0.266297 0.826204 0.854033 -0.289538
Br37  Br    Br    0.827075 0.734969 0.146960 -0.310844
Br38  Br    Br    0.172492 0.264599 0.852765 -0.310891
Br39  Br    Br    0.267435 0.824558 0.145525 -0.315248
Br40  Br    Br    0.732344 0.175663 0.854633 -0.315287
Br41  Br    Br    0.173890 0.734089 0.853987 -0.314112
Br42  Br    Br    0.826086 0.265934 0.145999 -0.314017
Br43  Br    Br    0.731299 0.823458 0.855548 -0.293575
Br44  Br    Br    0.267881 0.175723 0.144875 -0.293730
Br45  Br    Br    0.824470 0.268023 0.854654 -0.289650
Br46  Br    Br    0.175309 0.732199 0.145503 -0.289744
Br47  Br    Br    0.264781 0.172439 0.852772 -0.309713
Br48  Br    Br    0.734787 0.827131 0.146955 -0.309670
C161  C     C_2   0.307577 0.959917 0.958901 1.069756
O53   O     O_2   0.299546 0.957634 0.912173 -0.522592
O54   O     O_R   0.269792 0.942072 0.993691 -0.745918
H1    H     H_    0.237662 0.928066 0.975486 0.382200
C162  C     C_2   0.692426 0.040051 0.041103 1.069748
O55   O     O_2   0.700452 0.042344 0.087831 -0.522649
O56   O     O_R   0.730219 0.057878 0.006313 -0.745969
H2    H     H_    0.762350 0.071881 0.024518 0.382176
C163  C     C_2   0.960254 0.307493 0.959152 1.069814
O57   O     O_2   0.957929 0.299443 0.912436 -0.522653
O58   O     O_R   0.942513 0.269689 0.993998 -0.745876
H3    H     H_    0.928546 0.237528 0.975841 0.382069
C164  C     C_2   0.039693 0.692512 0.040857 1.069781
O59   O     O_2   0.042020 0.700557 0.087574 -0.522632
O60   O     O_R   0.057418 0.730327 0.006015 -0.745923
H4    H     H_    0.071376 0.762491 0.024175 0.382071
C165  C     C_2   0.692557 0.960414 0.959484 1.069035
O61   O     O_2   0.700634 0.958081 0.912785 -0.523791
O62   O     O_R   0.730354 0.942704 0.994418 -0.745444
H5    H     H_    0.762534 0.928752 0.976334 0.381547
C166  C     C_2   0.307435 0.039537 0.040534 1.069017
O63   O     O_2   0.299364 0.041853 0.087236 -0.523504
O64   O     O_R   0.269629 0.057246 0.005611 -0.745447
H6    H     H_    0.237447 0.071183 0.023704 0.381643
C167  C     C_2   0.960029 0.692462 0.959169 1.069074
O65   O     O_2   0.957690 0.700521 0.912455 -0.523976
O66   O     O_R   0.942240 0.730234 0.994024 -0.745458
H7    H     H_    0.928227 0.762380 0.975875 0.381588
C168  C     C_2   0.039906 0.307529 0.040851 1.069042
O67   O     O_2   0.042231 0.299478 0.087567 -0.523718
O68   O     O_R   0.057689 0.269745 0.006006 -0.745475
H8    H     H_    0.071686 0.237597 0.024164 0.381677
C169  C     C_2   0.807564 0.539996 0.458888 1.069765
O69   O     O_2   0.799536 0.542267 0.412161 -0.522591
O70   O     O_R   0.769768 0.557832 0.493670 -0.746016
H9    H     H_    0.737634 0.571821 0.475461 0.382202
C170  C     C_2   0.192437 0.460025 0.541121 1.069647
O71   O     O_2   0.200458 0.457752 0.587851 -0.522435
O72   O     O_R   0.230237 0.442198 0.506342 -0.745993
H10   H     H_    0.262370 0.428217 0.524557 0.382262
C171  C     C_2   0.460252 0.807500 0.459133 1.069107
O73   O     O_2   0.457936 0.799457 0.412412 -0.523704
O74   O     O_R   0.442510 0.769687 0.493970 -0.745509
H11   H     H_    0.428564 0.737520 0.475801 0.381616
C172  C     C_2   0.539813 0.192494 0.540852 1.069133
O75   O     O_2   0.542150 0.200536 0.587569 -0.523724
O76   O     O_R   0.557551 0.230303 0.506006 -0.745498
H12   H     H_    0.571530 0.262458 0.524165 0.381630
C173  C     C_2   0.192546 0.539628 0.459471 1.069111
O77   O     O_2   0.200623 0.541937 0.412770 -0.523518
O78   O     O_R   0.230336 0.557366 0.494393 -0.745442
H13   H     H_    0.262512 0.571316 0.476301 0.381648
C174  C     C_2   0.807451 0.460381 0.540528 1.069036
O79   O     O_2   0.799377 0.458063 0.587227 -0.523687
O80   O     O_R   0.769656 0.442654 0.505603 -0.745460
H14   H     H_    0.737478 0.428703 0.523694 0.381607
C175  C     C_2   0.460155 0.192486 0.459157 1.069709
O81   O     O_2   0.457840 0.200547 0.412442 -0.522648
O82   O     O_R   0.442373 0.230268 0.494006 -0.745829
H15   H     H_    0.428384 0.262424 0.475852 0.382113
C176  C     C_2   0.539902 0.807523 0.540835 1.069717
O83   O     O_2   0.542231 0.799463 0.587549 -0.522915
O84   O     O_R   0.557684 0.769746 0.505982 -0.745833
H16   H     H_    0.571682 0.737594 0.524133 0.382024

loop_
_geom_bond_atom_site_label_1
_geom_bond_atom_site_label_2
_ccdc_geom_bond_type
O26   Zn11  S    
O1    Zn5   S    
O39   Zn2   S    
C166  O64   S    
C77   C101  A    
O60   H4    S    
C76   C79   A    
C176  O83   D    
C118  O26   A    
C107  O11   A    
C175  O81   D    
C105  O9    A    
C106  O6    A    
O20   Zn1   S    
C91   C175  S    
C84   C168  S    
C109  O13   A    
O22   Zn15  S    
C4    C41   T    
C110  O18   A    
O1    Zn12  S    
C98   C108  S    
C49   C78   A    
O14   Zn3   S    
C89   C94   A    
C52   C84   A    
C153  Br36  S    
C51   C80   A    
O12   Zn9   S    
C134  C143  A    
C135  C142  A    
C53   C74   A    
C3    C19   S    
C60   Br12  S    
C41   C118  S    
C81   C86   A    
C83   C167  S    
C83   C88   A    
O31   Zn13  S    
C75   C103  A    
C21   C159  A    
O29   Zn15  S    
C20   C132  A    
C120  O28   A    
C21   C133  A    
C61   Br13  S    
C107  O7    A    
C37   C122  S    
O47   Zn5   S    
C150  C159  A    
O76   H12   S    
C151  C158  A    
O18   Zn7   S    
O35   Zn9   S    
O27   Zn14  S    
C117  O47   A    
C132  C137  A    
C167  O65   D    
C71   C99   A    
C149  Br48  S    
C136  C141  A    
C127  O35   A    
O66   H7    S    
C129  Br28  S    
C11   C27   S    
C27   C145  A    
C25   C147  A    
C59   C91   A    
C26   C148  A    
C121  O43   A    
C80   C104  A    
O16   Zn5   S    
C19   C153  A    
C85   C161  S    
C18   C130  A    
C148  C153  A    
C95   C171  S    
C17   C155  A    
C50   C77   A    
C51   C83   A    
C18   C156  A    
C90   C93   A    
C126  O40   A    
C152  C157  A    
C35   C124  S    
C135  Br30  S    
C142  Br23  S    
C87   C163  S    
C42   C117  S    
C82   C85   A    
C100  C106  S    
C94   C170  S    
C163  O58   S    
C131  C138  A    
C104  C110  S    
O23   Zn10  S    
O19   Zn2   S    
C31   C143  A    
C151  Br46  S    
C32   C144  A    
C38   C121  S    
O82   H15   S    
C97   C107  S    
C5    C21   S    
O2    Zn11  S    
C172  O75   D    
C53   C85   A    
C12   C33   T    
C57   Br9   S    
O3    Zn7   S    
C144  Br21  S    
C89   C173  S    
C59   Br11  S    
C90   C174  S    
O49   Zn3   S    
O30   Zn16  S    
C147  Br42  S    
C34   C125  S    
C121  O29   A    
C56   C88   A    
C49   C81   A    
C65   C70   A    
C67   C72   A    
C173  O78   S    
C8    C45   T    
C45   C114  S    
C133  Br32  S    
C113  O21   A    
C168  O68   S    
C74   C77   A    
C9    C36   T    
C10   C35   T    
C154  Br35  S    
O37   Zn8   S    
C112  O20   A    
C24   C136  A    
C91   C96   A    
C56   C75   A    
C161  O53   D    
C174  O80   S    
C79   C103  A    
C60   C92   A    
O24   Zn9   S    
C5    C48   T    
C6    C47   T    
C123  O41   A    
C51   Br3   S    
C7    C46   T    
C64   C96   A    
C54   C86   A    
O7    Zn14  S    
C27   C139  A    
O74   H11   S    
C4    C20   S    
C25   C137  A    
C68   C100  A    
O41   Zn4   S    
C165  O61   D    
C43   C116  S    
C29   C151  A    
C30   C152  A    
C29   C141  A    
C164  O59   D    
O9    Zn16  S    
C32   C150  A    
C92   C176  S    
C119  O45   A    
C47   C120  S    
C112  O16   A    
C108  O12   A    
C57   C70   A    
C54   Br6   S    
O2    Zn2   S    
C157  Br40  S    
C63   C68   A    
O45   Zn7   S    
C133  C144  A    
C158  Br39  S    
C46   C113  S    
C148  Br41  S    
C15   C31   S    
C162  O56   S    
C16   C37   T    
C1    C17   S    
C66   C98   A    
C110  O14   A    
C22   C160  A    
C7    C23   S    
C116  O24   A    
C73   C101  A    
C8    C24   S    
C50   Br2   S    
C55   C87   A    
C149  C160  A    
C128  O38   A    
C136  Br29  S    
C56   Br8   S    
C69   C97   A    
C76   C104  A    
C111  O19   A    
O2    Zn6   S    
C3    C42   T    
C78   C102  A    
C102  C112  S    
O38   Zn7   S    
C9    C25   S    
O4    Zn4   S    
C159  Br38  S    
C57   C89   A    
C12   C28   S    
C145  Br44  S    
C13   C29   S    
C146  Br43  S    
C152  Br45  S    
C31   C149  A    
C61   C93   A    
C6    C22   S    
C63   C95   A    
C166  O63   D    
C122  O44   A    
C171  O74   S    
C13   C40   T    
C116  O50   A    
C138  Br19  S    
C14   C39   T    
C145  C156  A    
O3    Zn3   S    
O4    Zn9   S    
C146  C155  A    
C134  Br31  S    
O54   H1    S    
C39   C128  S    
O42   Zn3   S    
C67   C99   A    
C59   C72   A    
C74   C102  A    
O1    Zn16  S    
C130  Br27  S    
C175  O82   S    
O72   H10   S    
O10   Zn15  S    
C130  C139  A    
C127  O37   A    
C176  O84   S    
C122  O30   A    
C48   C119  S    
C167  O66   S    
O48   Zn6   S    
C82   C166  S    
C115  O49   A    
C88   C164  S    
C36   C123  S    
C150  Br47  S    
C113  O51   A    
O62   H5    S    
C60   C71   A    
O46   Zn8   S    
C114  O22   A    
C40   C127  S    
C93   C169  S    
O68   H8    S    
C124  O42   A    
O64   H6    S    
C163  O57   D    
C54   C73   A    
C126  O34   A    
O84   H16   S    
C58   C90   A    
C132  Br25  S    
O52   Zn2   S    
C62   C94   A    
O15   Zn6   S    
C16   C32   S    
C123  O31   A    
C53   Br5   S    
C124  O32   A    
C50   C82   A    
O3    Zn10  S    
C137  Br20  S    
O43   Zn6   S    
C28   C146  A    
C55   Br7   S    
C26   C138  A    
C115  O23   A    
C58   C69   A    
C64   Br16  S    
C101  C111  S    
C30   C142  A    
C23   C135  A    
C103  C109  S    
O78   H13   S    
C117  O25   A    
C170  O71   D    
C68   C71   A    
O50   Zn4   S    
C33   C126  S    
C105  O5    A    
C49   Br1   S    
C173  O77   D    
C170  O72   S    
C156  Br33  S    
C109  O17   A    
O33   Zn11  S    
C168  O67   D    
C106  O10   A    
C141  Br24  S    
C139  Br18  S    
O5    Zn12  S    
O70   H9    S    
C143  Br22  S    
C2    C18   S    
C174  O79   D    
C28   C140  A    
C84   C87   A    
O80   H14   S    
O2    Zn15  S    
C131  Br26  S    
C169  O69   D    
C129  C140  A    
C20   C154  A    
C22   C134  A    
C111  O15   A    
C24   C158  A    
C66   C69   A    
C23   C157  A    
C114  O52   A    
C147  C154  A    
C81   C165  S    
C155  Br34  S    
C61   C66   A    
O58   H3    S    
C44   C115  S    
C172  O76   S    
O25   Zn12  S    
C73   C78   A    
C125  O33   A    
O3    Zn14  S    
C75   C80   A    
C10   C26   S    
O32   Zn14  S    
C160  Br37  S    
C14   C30   S    
C62   Br14  S    
C119  O27   A    
O21   Zn16  S    
C19   C131  A    
C99   C105  S    
C17   C129  A    
C140  Br17  S    
C64   C67   A    
O13   Zn4   S    
O28   Zn13  S    
O8    Zn13  S    
C52   Br4   S    
C162  O55   D    
C92   C95   A    
C118  O48   A    
C15   C38   T    
C1    C44   T    
C2    C43   T    
C63   Br15  S    
O40   Zn1   S    
O4    Zn13  S    
C55   C76   A    
O51   Zn1   S    
C161  O54   S    
O17   Zn8   S    
C52   C79   A    
O56   H2    S    
O11   Zn10  S    
O34   Zn12  S    
C72   C100  A    
O1    Zn1   S    
C62   C65   A    
C11   C34   T    
C128  O36   A    
O6    Zn11  S    
O44   Zn5   S    
C120  O46   A    
C65   C97   A    
C165  O62   S    
O4    Zn8   S    
C169  O70   S    
C96   C172  S    
C164  O60   S    
C86   C162  S    
C108  O8    A    
C171  O73   D    
C125  O39   A    
C58   Br10  S    
O36   Zn10  S    
C70   C98   A    
