data_mof_unit_pretest_1619.cif
_audit_creation_date              2012-12-10T18:16:22-0500
_audit_creation_method            fapswitch 2.2
_symmetry_space_group_name_H-M    P1
_symmetry_Int_Tables_number       1
_space_group_crystal_system       triclinic
_cell_length_a                    42.444544
_cell_length_b                    29.207936
_cell_length_c                    29.202728
_cell_angle_alpha                 89.997216
_cell_angle_beta                  133.935304
_cell_angle_gamma                 90.026134
_cell_volume                      26070.7308075

loop_
_atom_site_label
_atom_site_type_symbol
_atom_type_description
_atom_site_fract_x
_atom_site_fract_y
_atom_site_fract_z
_atom_type_partial_charge
C1    C     C_R   0.499976 0.586678 0.499996 0.908047
C2    C     C_1   0.834611 0.001847 0.332410 -0.042269
C3    C     C_3   0.762560 0.964698 0.232635 -0.258357
C4    C     C_1   0.372585 0.500602 0.372309 -0.204926
C5    C     C_1   0.872591 0.000891 0.372322 -0.204778
C6    C     C_1   0.120977 0.500148 0.117004 -0.174431
C7    C     C_1   0.620983 0.000209 0.117060 -0.174595
C8    C     C_3   0.259377 0.504126 0.295846 0.212182
C9    C     C_3   0.759419 0.000706 0.296044 0.212148
C10   C     C_3   0.289163 0.501553 0.283882 0.059057
C11   C     C_3   0.789171 0.002283 0.283965 0.059004
C12   C     C_3   0.245067 0.616261 0.287005 -0.787090
C13   C     C_1   0.158791 0.500510 0.150984 0.008787
C14   C     C_3   0.246002 0.395133 0.304797 -0.749434
C15   C     C_3   0.744561 0.111736 0.297184 -0.786919
C16   C     C_3   0.746617 0.890009 0.295221 -0.749779
C17   C     C_2   0.220026 0.495384 0.119716 0.423867
C18   C     C_2   0.719954 0.004609 0.119615 0.423880
C19   C     C_3   0.243243 0.511804 0.361461 -0.789179
C20   C     C_3   0.743336 0.000571 0.362082 -0.789224
C21   C     C_1   0.658799 0.000771 0.151086 0.008709
C22   C     C_1   0.499951 0.637262 0.499944 -0.222091
C23   C     C_1   0.499972 0.362738 0.499969 -0.221124
C24   C     C_1   0.999951 0.137261 0.499944 -0.222060
C25   C     C_1   0.999972 0.862738 0.499969 -0.221087
C26   C     C_1   0.499933 0.679400 0.499920 0.004552
C27   C     C_1   0.499971 0.320600 0.499962 0.005075
C28   C     C_1   0.999934 0.179400 0.499920 0.004660
C29   C     C_R   0.499979 0.413321 0.500000 0.907651
C30   C     C_1   0.999971 0.820600 0.499962 0.005012
C31   C     C_1   0.499918 0.729135 0.499907 0.007208
C32   C     C_1   0.499974 0.270864 0.499968 0.007670
C33   C     C_1   0.999919 0.229135 0.499908 0.007299
C34   C     C_1   0.999974 0.770864 0.499968 0.007595
C35   C     C_1   0.499911 0.771273 0.499907 0.007063
C36   C     C_1   0.499979 0.228727 0.499979 0.007466
C37   C     C_1   0.999911 0.271273 0.499908 0.007145
C38   C     C_1   0.999979 0.728727 0.499979 0.007384
C39   C     C_1   0.499910 0.821008 0.499917 0.005326
C40   C     C_R   0.999976 0.086678 0.499995 0.908443
C41   C     C_1   0.499984 0.178991 0.499993 0.005629
C42   C     C_1   0.999911 0.321008 0.499918 0.005408
C43   C     C_1   0.999984 0.678991 0.499993 0.005539
C44   C     C_1   0.499919 0.863147 0.499935 -0.212795
C45   C     C_1   0.499983 0.136853 0.500000 -0.212567
C46   C     C_1   0.999919 0.363147 0.499935 -0.212727
C47   C     C_1   0.999983 0.636853 0.500000 -0.212651
C48   C     C_R   0.417120 0.499772 0.417196 0.949652
C49   C     C_R   0.917119 0.999668 0.417195 0.949681
C50   C     C_1   0.635843 0.499993 0.635652 -0.220573
C51   C     C_R   0.999980 0.913321 0.500001 0.907371
C52   C     C_1   0.135843 0.999992 0.635652 -0.220574
C53   C     C_1   0.677114 0.499986 0.676911 0.017519
C54   C     C_1   0.177114 0.999986 0.676911 0.017516
C55   C     C_1   0.726260 0.499978 0.726097 0.004014
C56   C     C_1   0.226260 0.999977 0.726097 0.004010
C57   C     C_1   0.767533 0.499971 0.767420 0.003947
C58   C     C_1   0.267533 0.999972 0.767420 0.003943
C59   C     C_1   0.816679 0.499967 0.816636 0.017244
C60   C     C_1   0.316679 0.999967 0.816636 0.017237
C61   C     C_1   0.857951 0.499969 0.857966 -0.220240
C62   C     C_3   0.204324 0.501025 0.194900 0.026131
C63   C     C_1   0.357951 0.999969 0.857966 -0.220249
C64   C     C_R   0.994869 0.499999 0.081687 0.902221
C65   C     C_R   0.494869 0.999999 0.081687 0.902298
C66   C     C_R   0.076719 0.500021 0.077660 0.945427
C67   C     C_R   0.576719 0.000026 0.077655 0.945742
C68   C     C_R   0.992994 0.500001 0.906362 0.918999
C69   C     C_R   0.492994 0.000001 0.906362 0.919134
C70   C     C_R   0.907986 0.499988 0.908065 0.888456
C71   C     C_R   0.407986 0.999988 0.908065 0.888462
C72   C     C_R   0.585810 0.500000 0.585761 0.890863
C73   C     C_3   0.704331 0.001569 0.195020 0.026211
C74   C     C_R   0.085810 1.000000 0.585761 0.890861
C75   C     C_R   0.499011 0.000000 0.412822 0.897062
C76   C     C_R   0.999011 0.500000 0.412822 0.897072
C77   C     C_R   0.499945 0.913730 0.499972 0.897027
C78   C     C_R   0.499969 0.086270 0.499995 0.897098
C79   C     C_R   0.999946 0.413730 0.499972 0.897069
C80   C     C_R   0.999969 0.586270 0.499995 0.897062
C81   C     C_R   0.500836 0.000000 0.587127 0.897028
C82   C     C_R   0.000836 0.500000 0.587127 0.897025
C83   C     C_1   0.995582 0.499998 0.132971 -0.221017
C84   C     C_3   0.234141 0.498528 0.182915 -0.003081
C85   C     C_1   0.495582 0.999998 0.132971 -0.220974
C86   C     C_1   0.996180 0.499997 0.175702 0.003979
C87   C     C_1   0.496180 0.999997 0.175702 0.004016
C88   C     C_1   0.996875 0.499998 0.226122 0.007062
C89   C     C_1   0.496875 0.999998 0.226122 0.007074
C90   C     C_1   0.497444 0.999998 0.268824 0.006965
C91   C     C_1   0.997444 0.499998 0.268824 0.006968
C92   C     C_1   0.498078 0.999999 0.319184 0.004910
C93   C     C_1   0.998078 0.499999 0.319184 0.004919
C94   C     C_1   0.498557 0.999999 0.361797 -0.213200
C95   C     C_3   0.734110 0.003232 0.182923 -0.003107
C96   C     C_1   0.998557 0.499999 0.361797 -0.213193
C97   C     C_1   0.994105 0.500003 0.856876 -0.208733
C98   C     C_1   0.494105 0.000003 0.856876 -0.208614
C99   C     C_3   0.232127 0.539794 0.243055 0.178917
C100  C     C_3   0.232348 0.465391 0.247962 0.202799
C101  C     C_3   0.731964 0.038442 0.246535 0.178968
C102  C     C_3   0.732559 0.963930 0.244803 0.202742
C103  C     C_1   0.995383 0.500003 0.816024 0.015608
C104  C     C_1   0.495383 0.000004 0.816024 0.015708
C105  C     C_1   0.997064 0.500003 0.767979 0.014080
C106  C     C_1   0.334601 0.501251 0.332365 -0.042198
C107  C     C_1   0.497064 0.000004 0.767979 0.014150
C108  C     C_1   0.498465 0.000003 0.727257 0.011196
C109  C     C_1   0.998465 0.500002 0.727257 0.011145
C110  C     C_1   0.499921 0.000002 0.678976 0.007946
C111  C     C_1   0.999921 0.500001 0.678976 0.007909
C112  C     C_1   0.500749 0.000001 0.637658 -0.211715
C113  C     C_1   0.000749 0.500001 0.637658 -0.211745
C114  C     C_3   0.262228 0.538089 0.231021 -0.295618
C115  C     C_3   0.262380 0.461986 0.235982 -0.258301
C116  C     C_3   0.762025 0.040915 0.234464 -0.295449
H1    H     H_    0.276010 0.567635 0.225828 0.158147
H2    H     H_    0.228896 0.364891 0.302048 0.236086
H3    H     H_    0.264786 0.412146 0.351487 0.254701
H4    H     H_    0.268856 0.383032 0.300877 0.244104
H5    H     H_    0.687257 0.091735 0.207151 0.237385
H6    H     H_    0.727569 0.138164 0.300771 0.242874
H7    H     H_    0.759847 0.128570 0.282463 0.237924
H8    H     H_    0.770386 0.095984 0.344752 0.248692
H9    H     H_    0.689562 0.928561 0.244377 0.219053
H10   H     H_    0.729680 0.858448 0.289762 0.236136
H11   H     H_    0.765359 0.904446 0.343321 0.254661
H12   H     H_    0.276243 0.430355 0.234680 0.153698
H13   H     H_    0.769488 0.880616 0.290276 0.244079
H14   H     H_    0.244509 0.493741 0.117584 0.054226
H15   H     H_    0.744414 0.005640 0.117404 0.054233
H16   H     H_    0.301714 0.529248 0.388560 0.227909
H17   H     H_    0.259283 0.509876 0.411687 0.241343
H18   H     H_    0.218695 0.483962 0.334676 0.243508
H19   H     H_    0.226566 0.545407 0.341666 0.261483
H20   H     H_    0.801687 0.021251 0.390799 0.228057
H21   H     H_    0.759419 0.995505 0.412004 0.241350
H22   H     H_    0.718904 0.972932 0.332804 0.243536
H23   H     H_    0.775631 0.072208 0.231955 0.158091
H24   H     H_    0.726514 0.034226 0.345348 0.261462
H25   H     H_    0.776567 0.934730 0.228547 0.153768
H26   H     H_    0.187698 0.593637 0.198817 0.237537
H27   H     H_    0.228185 0.644635 0.288056 0.242905
H28   H     H_    0.260507 0.630071 0.271021 0.237891
H29   H     H_    0.270761 0.602465 0.335907 0.248628
H30   H     H_    0.189142 0.434458 0.250413 0.218653
N1    N     N_2   0.213632 0.581129 0.243744 -0.304721
N2    N     N_2   0.214208 0.426309 0.253563 -0.294757
N3    N     N_2   0.713289 0.077665 0.250875 -0.304990
N4    N     N_2   0.714644 0.922671 0.246854 -0.294615
N5    N     N_2   0.275906 0.506809 0.358960 -0.306155
N6    N     N_2   0.775984 0.999108 0.359229 -0.306268
O1    O     O_R   0.500400 0.563130 0.536080 -0.596996
O2    O     O_R   0.963990 0.500000 0.400890 -0.593446
O3    O     O_R   0.534410 0.000000 0.471310 -0.593968
O4    O     O_R   0.034410 0.500000 0.471310 -0.593968
O5    O     O_R   0.464750 0.936830 0.464780 -0.593975
O6    O     O_R   0.464750 0.063170 0.464780 -0.593741
O7    O     O_R   0.964750 0.436830 0.464780 -0.593952
O8    O     O_R   0.964750 0.563170 0.464780 -0.593765
O9    O     O_R   0.535170 0.936820 0.535200 -0.593239
O10   O     O_R   0.535170 0.063180 0.535200 -0.593323
O11   O     O_R   0.035170 0.436820 0.535200 -0.593219
O12   O     O_R   0.500400 0.436870 0.536080 -0.596587
O13   O     O_R   0.035170 0.563180 0.535200 -0.593349
O14   O     O_R   0.465520 0.000000 0.528690 -0.594068
O15   O     O_R   0.965520 0.500000 0.528690 -0.594070
O16   O     O_R   0.535930 0.000000 0.599110 -0.592199
O17   O     O_R   0.035930 0.500000 0.599110 -0.592213
O18   O     O_R   0.499540 0.563080 0.463930 -0.596795
O19   O     O_R   0.499540 0.436920 0.463930 -0.597226
O20   O     O_R   0.999540 0.063080 0.463930 -0.596681
O21   O     O_R   0.999540 0.936920 0.463930 -0.597311
O22   O     O_R   0.438030 0.500000 0.473700 -0.614446
O23   O     O_R   0.000400 0.063130 0.536080 -0.596899
O24   O     O_R   0.938030 0.000000 0.473700 -0.614634
O25   O     O_R   0.437170 0.500000 0.401550 -0.613559
O26   O     O_R   0.937170 0.000000 0.401550 -0.613479
O27   O     O_R   0.562760 0.500000 0.598450 -0.591295
O28   O     O_R   0.062760 0.000000 0.598450 -0.591308
O29   O     O_R   0.561900 0.500000 0.526300 -0.591656
O30   O     O_R   0.061900 0.000000 0.526300 -0.591647
O31   O     O_R   0.994600 0.535610 0.057840 -0.598484
O32   O     O_R   0.994600 0.464390 0.057840 -0.598891
O33   O     O_R   0.494600 0.035610 0.057840 -0.598519
O34   O     O_R   0.000400 0.936870 0.536080 -0.596699
O35   O     O_R   0.494600 0.964390 0.057840 -0.598966
O36   O     O_R   0.056200 0.535620 0.056290 -0.613657
O37   O     O_R   0.056200 0.464380 0.056290 -0.607994
O38   O     O_R   0.556200 0.035620 0.056290 -0.612481
O39   O     O_R   0.556200 0.964380 0.056290 -0.609478
O40   O     O_R   0.993060 0.535640 0.930020 -0.595353
O41   O     O_R   0.993060 0.464360 0.930020 -0.593560
O42   O     O_R   0.493060 0.035640 0.930020 -0.594704
O43   O     O_R   0.493060 0.964360 0.930020 -0.594138
O44   O     O_2   0.181278 0.494659 0.070640 -0.555759
O45   O     O_R   0.931470 0.535630 0.931560 -0.592392
O46   O     O_2   0.681198 0.004588 0.070539 -0.555774
O47   O     O_R   0.931470 0.464370 0.931560 -0.592428
O48   O     O_R   0.431470 0.035630 0.931560 -0.592399
O49   O     O_R   0.431470 0.964370 0.931560 -0.592427
O50   O     O_R   0.463990 0.000000 0.400890 -0.593451
Zn1   Zn    Zn3+2 0.500540 0.500000 0.548170 0.969583
Zn2   Zn    Zn3+2 0.952950 0.500000 0.452980 0.969978
Zn3   Zn    Zn3+2 0.546980 0.000000 0.547020 0.971859
Zn4   Zn    Zn3+2 0.046980 0.500000 0.547020 0.971832
Zn5   Zn    Zn3+2 0.000540 0.000000 0.548170 0.969399
Zn6   Zn    Zn3+2 0.499390 0.500000 0.451830 0.968722
Zn7   Zn    Zn3+2 0.999390 0.000000 0.451830 0.968809
Zn8   Zn    Zn3+2 0.993830 0.547580 0.993940 0.973749
Zn9   Zn    Zn3+2 0.993830 0.452420 0.993940 0.978484
Zn10  Zn    Zn3+2 0.493830 0.047580 0.993940 0.974814
Zn11  Zn    Zn3+2 0.493830 0.952420 0.993940 0.977148
Zn12  Zn    Zn3+2 0.452950 0.000000 0.452980 0.969993

loop_
_geom_bond_atom_site_label_1
_geom_bond_atom_site_label_2
_ccdc_geom_bond_type
C61   C70   S    
C12   H29   S    
C65   O35   A    
C9    N6    S    
C70   O47   A    
C15   H6    S    
C66   O36   A    
C3    H25   S    
O23   Zn5   S    
O9    Zn3   S    
C99   C114  S    
O35   Zn11  S    
C18   H15   S    
C67   O38   A    
C71   O48   A    
H16   N5    S    
C19   H18   S    
O5    Zn12  S    
O48   Zn10  S    
C15   H7    S    
O34   Zn5   S    
C60   C63   T    
C32   C36   T    
O24   Zn5   S    
C44   C77   S    
C8    C99   S    
C72   O29   A    
C52   C74   S    
C109  C111  S    
C79   O7    A    
C46   C79   S    
C67   O39   A    
C57   C59   S    
C68   O40   A    
C58   C60   S    
C66   O37   A    
C21   C73   S    
C1    O18   A    
C69   O43   A    
O47   Zn9   S    
C42   C46   T    
C20   H22   S    
C37   C42   S    
C51   O21   A    
C50   C72   S    
C68   C97   S    
C69   O42   A    
O38   Zn10  S    
O45   Zn8   S    
O41   Zn9   S    
C110  C112  T    
C64   O31   A    
O36   Zn8   S    
C78   O6    A    
C13   C62   S    
H5    N3    S    
C9    C102  S    
C14   H2    S    
C18   O46   D    
C19   N5    S    
C81   O14   A    
C81   C112  S    
C45   C78   S    
C23   C27   T    
O28   Zn5   S    
O4    Zn4   S    
O13   Zn4   S    
H30   N2    S    
C10   C114  S    
C116  H23   S    
C69   C98   S    
C73   C101  S    
C27   C32   S    
C82   O17   A    
C1    C22   S    
C18   C95   S    
C29   O12   A    
C5    C49   S    
C36   C41   S    
C100  C115  S    
C47   C80   S    
C2    C11   S    
C48   O25   A    
H20   N6    S    
C75   O50   A    
C52   C54   T    
C48   O22   A    
C82   O15   A    
C53   C55   S    
C77   O9    A    
C65   O33   A    
C59   C61   T    
C50   C53   T    
O42   Zn10  S    
C15   H8    S    
C30   C34   S    
C85   C87   T    
O29   Zn6   S    
C3    C11   S    
C111  C113  T    
O20   Zn7   S    
O37   Zn9   S    
C79   O11   A    
O17   Zn4   S    
C14   N2    S    
C7    C21   T    
C4    C106  T    
C76   O4    A    
O30   Zn7   S    
O50   Zn12  S    
C115  H12   S    
C12   H28   S    
O26   Zn7   S    
O31   Zn8   S    
C20   H21   S    
C35   C39   S    
C25   C51   S    
C64   C83   S    
O18   Zn6   S    
C16   H13   S    
O12   Zn1   S    
C75   O3    A    
C91   C93   S    
C90   C92   S    
C88   C91   T    
C6    C66   S    
C95   C116  S    
C107  C108  T    
O40   Zn8   S    
C8    N5    S    
C92   C94   T    
O33   Zn10  S    
C103  C105  S    
O15   Zn2   S    
C29   O19   A    
C1    O1    A    
C11   C116  S    
C9    C11   S    
O49   Zn11  S    
C97   C103  T    
C102  N4    S    
C62   C100  S    
C19   H17   S    
C3    C102  S    
C8    C10   S    
C73   C102  S    
C84   C115  S    
O14   Zn12  S    
C28   C33   S    
C78   O10   A    
C70   O45   A    
C14   H4    S    
C55   C57   T    
O10   Zn3   S    
C31   C35   T    
C10   C106  S    
C2    C5    T    
O6    Zn12  S    
C73   C95   S    
C89   C90   T    
C23   C29   S    
C80   O13   A    
C40   O20   A    
C3    C95   S    
C12   N1    S    
O32   Zn9   S    
C76   O2    A    
C49   O26   A    
C4    C48   S    
C25   C30   T    
C71   O49   A    
C62   C84   S    
C84   C114  S    
C17   H14   S    
C34   C38   T    
H26   N1    S    
C15   N3    S    
O21   Zn7   S    
C24   C28   T    
C82   C113  S    
O27   Zn1   S    
C43   C47   T    
O3    Zn3   S    
O8    Zn2   S    
C40   O23   A    
O2    Zn2   S    
O25   Zn6   S    
C54   C56   S    
C65   C85   S    
C39   C44   T    
C74   O30   A    
C93   C96   T    
O11   Zn4   S    
C12   H27   S    
C17   C84   S    
C20   H24   S    
C87   C89   S    
C8    C100  S    
C99   N1    S    
C38   C43   S    
C51   O34   A    
C76   C96   S    
C6    C13   T    
O7    Zn2   S    
C108  C110  S    
C105  C109  T    
C100  N2    S    
C98   C104  T    
C68   O41   A    
C101  N3    S    
O22   Zn1   S    
C24   C40   S    
C81   O16   A    
C56   C58   T    
C86   C88   S    
C49   O24   A    
C16   H11   S    
C33   C37   T    
O43   Zn11  S    
C114  H1    S    
C80   O8    A    
H9    N4    S    
C7    C67   S    
C62   C99   S    
C64   O32   A    
C20   N6    S    
C26   C31   S    
C83   C86   T    
C74   O28   A    
C9    C101  S    
C14   H3    S    
C22   C26   T    
C101  C116  S    
C41   C45   T    
O16   Zn3   S    
C17   O44   D    
C16   N4    S    
C72   O27   A    
O19   Zn6   S    
C19   H19   S    
C63   C71   S    
C16   H10   S    
C104  C107  S    
O39   Zn11  S    
C10   C115  S    
C75   C94   S    
C77   O5    A    
O1    Zn1   S    
