data_mof_unit_pretest_1788.cif
_audit_creation_date              2012-12-10T18:07:13-0500
_audit_creation_method            fapswitch 2.2
_symmetry_space_group_name_H-M    P1
_symmetry_Int_Tables_number       1
_space_group_crystal_system       triclinic
_cell_length_a                    18.353782
_cell_length_b                    18.348781
_cell_length_c                    42.91473
_cell_angle_alpha                 89.999273
_cell_angle_beta                  90.014021
_cell_angle_gamma                 90.003888
_cell_volume                      14452.3728322

loop_
_atom_site_label
_atom_site_type_symbol
_atom_type_description
_atom_site_fract_x
_atom_site_fract_y
_atom_site_fract_z
_atom_type_partial_charge
C1    C     C_R   0.458707 0.053627 0.115038 -0.089176
C2    C     C_R   0.541220 0.946342 0.884964 -0.086832
C3    C     C_R   0.045721 0.451177 0.114892 -0.073714
C4    C     C_R   0.045319 0.549441 0.885004 -0.079542
C5    C     C_R   0.539143 0.946462 0.114853 -0.081452
C6    C     C_R   0.460937 0.053619 0.885141 -0.078573
C7    C     C_R   0.954353 0.548844 0.114873 -0.073439
C8    C     C_R   0.954669 0.450538 0.884991 -0.080210
C9    C     C_R   0.968214 0.439728 0.615035 -0.078882
C10   C     C_R   0.026863 0.561595 0.384727 -0.089762
C11   C     C_R   0.444881 0.961825 0.615067 -0.085172
C12   C     C_R   0.555109 0.038153 0.384936 -0.083074
C13   C     C_R   0.037130 0.554669 0.614969 -0.088074
C14   C     C_R   0.976844 0.437354 0.384864 -0.065223
C15   C     C_R   0.555102 0.038168 0.615075 -0.083817
C16   C     C_R   0.444871 0.961835 0.384921 -0.085798
C17   C     C_R   0.457764 0.053380 0.082061 -0.062243
C18   C     C_R   0.542161 0.946601 0.917941 -0.061959
C19   C     C_R   0.042316 0.447946 0.082117 -0.050129
C20   C     C_R   0.043769 0.550828 0.917881 -0.061735
C21   C     C_R   0.535402 0.943769 0.081920 -0.054713
C22   C     C_R   0.464692 0.056332 0.918073 -0.053331
C23   C     C_R   0.957794 0.552081 0.082098 -0.049129
C24   C     C_R   0.956229 0.449122 0.917867 -0.062329
C25   C     C_R   0.970022 0.438387 0.582053 -0.050134
C26   C     C_R   0.028560 0.561165 0.417716 -0.059966
C27   C     C_R   0.444469 0.962284 0.582100 -0.063530
C28   C     C_R   0.555513 0.037687 0.417904 -0.060456
C29   C     C_R   0.040820 0.552435 0.582027 -0.060375
C30   C     C_R   0.977065 0.437041 0.417840 -0.046917
C31   C     C_R   0.555507 0.037701 0.582107 -0.060264
C32   C     C_R   0.444459 0.962293 0.417888 -0.063933
C33   C     C_R   0.499628 0.000382 0.131283 -0.129246
C34   C     C_R   0.500372 0.999634 0.868716 -0.128501
C35   C     C_R   0.000022 0.500004 0.131341 -0.120703
C36   C     C_R   0.999994 0.499995 0.868644 -0.133070
C37   C     C_R   0.000249 0.498731 0.631316 -0.128732
C38   C     C_R   0.000036 0.500081 0.368548 -0.121272
C39   C     C_R   0.499993 0.999999 0.631381 -0.127576
C40   C     C_R   0.499992 0.999997 0.368619 -0.127384
C41   C     C_R   0.005266 0.498335 0.468440 0.441320
C42   C     C_R   0.006222 0.495291 0.531411 0.419326
C43   C     C_R   0.499981 0.999982 0.468522 0.440622
C44   C     C_R   0.499983 0.999985 0.531478 0.440781
C45   C     C_R   0.502537 0.000762 0.968549 0.417081
C46   C     C_R   0.497467 0.999293 0.031449 0.416463
C47   C     C_R   0.000015 0.499949 0.968505 0.425476
C48   C     C_R   0.000037 0.499964 0.031439 0.444983
C49   C     C_R   0.499998 0.999999 0.334223 0.740428
C50   C     C_R   0.499999 0.000000 0.665777 0.740887
C51   C     C_R   0.999997 0.499736 0.334191 0.761725
C52   C     C_R   0.999987 0.499345 0.665755 0.757128
C53   C     C_R   0.999998 0.499999 0.834240 0.745266
C54   C     C_R   0.000003 0.500001 0.165742 0.812086
C55   C     C_R   0.500040 0.999793 0.834253 0.744141
C56   C     C_R   0.499960 0.000209 0.165746 0.744275
C57   C     C_R   0.359839 0.140219 0.249980 0.790196
C58   C     C_R   0.640168 0.859791 0.750013 0.787406
C59   C     C_R   0.859843 0.359783 0.250016 0.801808
C60   C     C_R   0.140174 0.640197 0.749996 0.787459
C61   C     C_R   0.640156 0.859781 0.249982 0.789477
C62   C     C_R   0.359836 0.140209 0.750011 0.789983
C63   C     C_R   0.140161 0.640217 0.250018 0.798063
C64   C     C_R   0.859821 0.359804 0.749996 0.792259
C65   C     C_R   0.359796 0.859829 0.749985 0.789874
C66   C     C_R   0.640210 0.140162 0.250021 0.788451
C67   C     C_R   0.859802 0.640183 0.750006 0.790616
C68   C     C_R   0.140214 0.359836 0.249981 0.806192
C69   C     C_R   0.640208 0.140171 0.749987 0.789863
C70   C     C_R   0.359784 0.859839 0.250020 0.791642
C71   C     C_R   0.140192 0.359815 0.750007 0.794781
C72   C     C_R   0.859791 0.640165 0.249980 0.798927
C73   C     C_R   0.244045 0.809391 0.229756 -0.174840
C74   C     C_R   0.755450 0.191124 0.770547 -0.172278
C75   C     C_R   0.191035 0.244460 0.229483 -0.165194
C76   C     C_R   0.809437 0.756025 0.770229 -0.170949
C77   C     C_R   0.755960 0.190580 0.229775 -0.176563
C78   C     C_R   0.244605 0.808846 0.770561 -0.173871
C79   C     C_R   0.808961 0.755563 0.229493 -0.167910
C80   C     C_R   0.190582 0.243968 0.770228 -0.170231
C81   C     C_R   0.244030 0.190560 0.770235 -0.161966
C82   C     C_R   0.755526 0.808987 0.229495 -0.161239
C83   C     C_R   0.191188 0.755404 0.770574 -0.169186
C84   C     C_R   0.809392 0.244003 0.229773 -0.173324
C85   C     C_R   0.755993 0.809436 0.770238 -0.164009
C86   C     C_R   0.244466 0.191032 0.229483 -0.160931
C87   C     C_R   0.808863 0.244569 0.770559 -0.165927
C88   C     C_R   0.190617 0.755965 0.229755 -0.175118
C89   C     C_R   0.744682 0.308760 0.729375 -0.174083
C90   C     C_R   0.255708 0.690857 0.270410 -0.157484
C91   C     C_R   0.690433 0.743857 0.729860 -0.179826
C92   C     C_R   0.309214 0.255796 0.270339 -0.174239
C93   C     C_R   0.255255 0.691277 0.729354 -0.160511
C94   C     C_R   0.744279 0.309181 0.270386 -0.172992
C95   C     C_R   0.309538 0.256141 0.729855 -0.176672
C96   C     C_R   0.690790 0.744181 0.270329 -0.177649
C97   C     C_R   0.744221 0.690762 0.270328 -0.178773
C98   C     C_R   0.256101 0.309555 0.729853 -0.171750
C99   C     C_R   0.690848 0.255752 0.270390 -0.161956
C100  C     C_R   0.308683 0.744710 0.729347 -0.162118
C101  C     C_R   0.255787 0.309218 0.270340 -0.168094
C102  C     C_R   0.743865 0.690439 0.729856 -0.181689
C103  C     C_R   0.309136 0.744289 0.270413 -0.159486
C104  C     C_R   0.691258 0.255324 0.729369 -0.163243
C105  C     C_R   0.196203 0.696389 0.250062 -0.004123
C106  C     C_R   0.803745 0.303670 0.749977 -0.004906
C107  C     C_R   0.303798 0.196392 0.249933 -0.005000
C108  C     C_R   0.696237 0.803649 0.750039 -0.003796
C109  C     C_R   0.803798 0.303611 0.250059 -0.000667
C110  C     C_R   0.196248 0.696335 0.749976 -0.009743
C111  C     C_R   0.696198 0.803606 0.249935 -0.003685
C112  C     C_R   0.303764 0.196350 0.750035 -0.005529
C113  C     C_R   0.196329 0.303733 0.750029 -0.004694
C114  C     C_R   0.803618 0.696208 0.249931 0.000307
C115  C     C_R   0.303651 0.803754 0.749961 -0.008903
C116  C     C_R   0.696381 0.196207 0.250065 -0.002964
C117  C     C_R   0.803662 0.696261 0.750030 -0.003583
C118  C     C_R   0.196387 0.303795 0.249933 -0.001146
C119  C     C_R   0.696351 0.196246 0.749965 -0.006485
C120  C     C_R   0.303612 0.803798 0.250065 -0.006098
C121  C     C_R   0.495187 0.997723 0.065693 -0.025041
C122  C     C_R   0.504822 0.002322 0.934304 -0.025163
C123  C     C_R   0.000049 0.499998 0.065716 -0.015874
C124  C     C_R   0.000005 0.499966 0.934219 -0.044037
C125  C     C_R   0.007301 0.494245 0.565707 -0.045909
C126  C     C_R   0.003747 0.498834 0.434122 -0.039748
C127  C     C_R   0.499986 0.999990 0.565768 -0.050560
C128  C     C_R   0.499984 0.999987 0.434232 -0.050585
H1    H     H_    0.238691 0.854912 0.213851 0.172158
H2    H     H_    0.760435 0.145969 0.786664 0.176075
H3    H     H_    0.145673 0.239264 0.213485 0.167917
H4    H     H_    0.855146 0.761577 0.786021 0.176595
H5    H     H_    0.761323 0.145030 0.213887 0.171306
H6    H     H_    0.239665 0.853975 0.786693 0.175926
H7    H     H_    0.854319 0.760777 0.213504 0.167725
H8    H     H_    0.144894 0.238414 0.786021 0.176395
H9    H     H_    0.238524 0.144863 0.786038 0.180532
H10   H     H_    0.760715 0.854370 0.213507 0.177988
H11   H     H_    0.146102 0.760346 0.786718 0.181591
H12   H     H_    0.854917 0.238613 0.213884 0.168481
H13   H     H_    0.761519 0.855133 0.786041 0.179804
H14   H     H_    0.239273 0.145666 0.213486 0.177247
H15   H     H_    0.853994 0.239602 0.786688 0.181105
H16   H     H_    0.145101 0.761325 0.213850 0.169286
H17   H     H_    0.739714 0.353905 0.713251 0.168545
H18   H     H_    0.261046 0.645345 0.286322 0.177843
H19   H     H_    0.644724 0.738302 0.714068 0.171185
H20   H     H_    0.354592 0.261020 0.286326 0.172635
H21   H     H_    0.260176 0.646161 0.713214 0.180331
H22   H     H_    0.738932 0.354721 0.286280 0.169280
H23   H     H_    0.355227 0.261697 0.714062 0.172516
H24   H     H_    0.645417 0.738939 0.286307 0.171539
H25   H     H_    0.739009 0.645366 0.286306 0.168893
H26   H     H_    0.261627 0.355266 0.714059 0.173385
H27   H     H_    0.645335 0.261121 0.286288 0.177118
H28   H     H_    0.353773 0.739765 0.713206 0.179912
H29   H     H_    0.261003 0.354598 0.286327 0.172916
H30   H     H_    0.738318 0.644728 0.714063 0.168448
H31   H     H_    0.354639 0.738950 0.286327 0.179161
H32   H     H_    0.646124 0.260294 0.713242 0.177032
N1    N     N_R   0.555515 0.028672 0.016476 -0.143426
N2    N     N_R   0.444492 0.971378 0.983522 -0.142768
N3    N     N_R   0.063719 0.497434 0.015453 -0.120558
N4    N     N_R   0.936358 0.503015 0.984488 -0.129950
N5    N     N_R   0.442063 0.970494 0.014515 -0.067344
N6    N     N_R   0.557944 0.029555 0.985482 -0.066956
N7    N     N_R   0.936343 0.502478 0.015447 -0.120585
N8    N     N_R   0.063683 0.496882 0.984494 -0.130642
N9    N     N_R   0.052326 0.452261 0.514916 -0.059034
N10   N     N_R   0.959650 0.541882 0.484944 -0.139039
N11   N     N_R   0.553945 0.965986 0.515508 -0.129459
N12   N     N_R   0.446018 0.033981 0.484492 -0.125270
N13   N     N_R   0.960164 0.540419 0.515956 -0.165554
N14   N     N_R   0.051622 0.453521 0.483907 -0.102123
N15   N     N_R   0.446019 0.033982 0.515496 -0.125165
N16   N     N_R   0.553944 0.965985 0.484504 -0.129524
O1    O     O_3   0.500000 1.000000 0.250000 -0.487232
O2    O     O_3   0.500000 1.000000 0.750000 -0.487564
O3    O     O_3   0.000000 0.500000 0.250000 -0.482269
O4    O     O_3   0.000000 0.500000 0.750000 -0.485670
O5    O     O_R   0.500000 0.939250 0.319430 -0.629239
O6    O     O_R   0.500000 0.060750 0.680570 -0.627743
O7    O     O_R   0.060750 0.500000 0.319430 -0.613068
O8    O     O_R   0.939250 0.500000 0.680570 -0.658666
O9    O     O_R   0.500000 0.060750 0.319430 -0.627668
O10   O     O_R   0.500000 0.939250 0.680570 -0.628873
O11   O     O_R   0.939250 0.500000 0.319430 -0.656915
O12   O     O_R   0.060750 0.500000 0.680570 -0.613085
O13   O     O_R   0.000000 0.439250 0.819430 -0.629422
O14   O     O_R   0.000000 0.560750 0.180570 -0.652999
O15   O     O_R   0.560750 1.000000 0.819430 -0.627744
O16   O     O_R   0.439250 1.000000 0.180570 -0.628548
O17   O     O_R   1.000000 0.560750 0.819430 -0.628354
O18   O     O_R   0.000000 0.439250 0.180570 -0.653853
O19   O     O_R   0.439250 1.000000 0.819430 -0.623852
O20   O     O_R   0.560750 1.000000 0.180570 -0.624484
O21   O     O_R   0.414500 0.146140 0.268270 -0.644461
O22   O     O_R   0.585500 0.853860 0.731730 -0.645561
O23   O     O_R   0.853860 0.414500 0.268270 -0.648839
O24   O     O_R   0.146140 0.585500 0.731730 -0.643249
O25   O     O_R   0.585500 0.853860 0.268270 -0.645304
O26   O     O_R   0.414500 0.146140 0.731730 -0.645291
O27   O     O_R   0.146140 0.585500 0.268270 -0.642425
O28   O     O_R   0.853860 0.414500 0.731730 -0.651872
O29   O     O_R   0.414500 0.853860 0.731730 -0.643165
O30   O     O_R   0.585500 0.146140 0.268270 -0.643009
O31   O     O_R   0.853860 0.585500 0.731730 -0.647678
O32   O     O_R   0.146140 0.414500 0.268270 -0.641070
O33   O     O_R   0.585500 0.146140 0.731730 -0.643595
O34   O     O_R   0.414500 0.853860 0.268270 -0.642484
O35   O     O_R   0.146140 0.414500 0.731730 -0.642980
O36   O     O_R   0.853860 0.585500 0.268270 -0.646208
O37   O     O_R   0.914500 0.646140 0.768270 -0.640861
O38   O     O_R   0.085500 0.353860 0.231730 -0.651286
O39   O     O_R   0.353860 0.914500 0.768270 -0.644036
O40   O     O_R   0.646140 0.085500 0.231730 -0.645299
O41   O     O_R   0.085500 0.353860 0.768270 -0.641663
O42   O     O_R   0.914500 0.646140 0.231730 -0.650716
O43   O     O_R   0.646140 0.085500 0.768270 -0.643349
O44   O     O_R   0.353860 0.914500 0.231730 -0.644355
O45   O     O_R   0.914500 0.353860 0.231730 -0.644999
O46   O     O_R   0.085500 0.646140 0.768270 -0.644091
O47   O     O_R   0.353860 0.085500 0.231730 -0.643419
O48   O     O_R   0.646140 0.914500 0.768270 -0.642517
O49   O     O_R   0.085500 0.646140 0.231730 -0.647905
O50   O     O_R   0.914500 0.353860 0.768270 -0.641201
O51   O     O_R   0.646140 0.914500 0.231730 -0.641224
O52   O     O_R   0.353860 0.085500 0.768270 -0.640288
Zn1   Zn    Zn3+2 0.413200 1.000000 0.224130 0.984966
Zn2   Zn    Zn3+2 0.586800 1.000000 0.775870 0.985699
Zn3   Zn    Zn3+2 0.000000 0.413200 0.224130 0.985930
Zn4   Zn    Zn3+2 0.000000 0.586800 0.775870 0.987466
Zn5   Zn    Zn3+2 0.586800 1.000000 0.224130 0.986214
Zn6   Zn    Zn3+2 0.413200 1.000000 0.775870 0.988326
Zn7   Zn    Zn3+2 0.000000 0.586800 0.224130 0.980404
Zn8   Zn    Zn3+2 0.000000 0.413200 0.775870 0.991570
Zn9   Zn    Zn3+2 0.913200 0.500000 0.724130 0.963689
Zn10  Zn    Zn3+2 0.086800 0.500000 0.275870 1.004591
Zn11  Zn    Zn3+2 0.500000 0.913200 0.724130 0.981852
Zn12  Zn    Zn3+2 0.500000 0.086800 0.275870 0.983614
Zn13  Zn    Zn3+2 0.086800 0.500000 0.724130 0.995528
Zn14  Zn    Zn3+2 0.913200 0.500000 0.275870 0.974335
Zn15  Zn    Zn3+2 0.500000 0.086800 0.724130 0.983267
Zn16  Zn    Zn3+2 0.500000 0.913200 0.275870 0.983755
C129  C     C_2   0.418091 0.110158 0.133011 0.410060
H33   H     H_    0.440666 0.131744 0.154488 0.057744
O53   O     O_2   0.357976 0.131021 0.124697 -0.543632
C130  C     C_2   0.581764 0.889757 0.866995 0.407311
H34   H     H_    0.559170 0.868204 0.845515 0.055116
O54   O     O_2   0.641847 0.868811 0.875313 -0.544101
C131  C     C_2   0.097066 0.402993 0.131959 0.358603
H35   H     H_    0.076824 0.361384 0.147666 0.114137
O55   O     O_2   0.162717 0.410084 0.128562 -0.555155
C132  C     C_2   0.095162 0.598671 0.867366 0.413598
H36   H     H_    0.124485 0.578179 0.847229 0.059456
O56   O     O_2   0.101725 0.662846 0.874352 -0.546270
C133  C     C_2   0.579431 0.889920 0.132793 0.420301
H37   H     H_    0.553255 0.863049 0.152347 0.059497
O57   O     O_2   0.643112 0.876113 0.127145 -0.564643
C134  C     C_2   0.420712 0.110190 0.867193 0.415878
H38   H     H_    0.446922 0.137029 0.847639 0.056483
O58   O     O_2   0.357040 0.124053 0.872835 -0.564666
C135  C     C_2   0.902987 0.597020 0.131920 0.357810
H39   H     H_    0.923208 0.638640 0.147630 0.114336
O59   O     O_2   0.837340 0.589906 0.128504 -0.555927
C136  C     C_2   0.904816 0.401328 0.867337 0.414557
H40   H     H_    0.875495 0.421837 0.847196 0.060348
O60   O     O_2   0.898243 0.337149 0.874314 -0.545249
C137  C     C_2   0.936847 0.377222 0.632840 0.347584
H41   H     H_    0.907483 0.386070 0.654387 0.103795
O61   O     O_2   0.945682 0.314537 0.624061 -0.541233
C138  C     C_2   0.053802 0.625461 0.366508 0.399190
H42   H     H_    0.028220 0.639724 0.344536 0.047792
O62   O     O_2   0.106565 0.660712 0.375061 -0.536898
C139  C     C_2   0.387583 0.922175 0.633002 0.408739
H43   H     H_    0.367072 0.944676 0.654680 0.057782
O63   O     O_2   0.364930 0.862869 0.624472 -0.537463
C140  C     C_2   0.612419 0.077795 0.367006 0.404683
H44   H     H_    0.632931 0.055294 0.345328 0.056500
O64   O     O_2   0.635082 0.137095 0.375539 -0.546606
C141  C     C_2   0.071880 0.615057 0.632922 0.405196
H45   H     H_    0.046326 0.635325 0.654017 0.050690
O65   O     O_2   0.130630 0.640475 0.625174 -0.535993
C142  C     C_2   0.951911 0.372702 0.366853 0.350645
H46   H     H_    0.912032 0.379017 0.348395 0.100241
O66   O     O_2   0.978537 0.312679 0.371381 -0.564900
C143  C     C_2   0.612403 0.077822 0.633017 0.405789
H47   H     H_    0.632921 0.055325 0.654699 0.057249
O67   O     O_2   0.635053 0.137128 0.624488 -0.546508
C144  C     C_2   0.387566 0.922198 0.366974 0.409621
H48   H     H_    0.367058 0.944706 0.345293 0.057665
O68   O     O_2   0.364903 0.862894 0.375499 -0.536492
C145  C     C_2   0.422101 0.114728 0.065017 0.512550
H49   H     H_    0.422907 0.169230 0.074812 0.094981
O69   O     O_2   0.390306 0.105155 0.040372 -0.514705
C146  C     C_2   0.577737 0.885212 0.934991 0.513812
H50   H     H_    0.576860 0.830708 0.925200 0.091174
O70   O     O_2   0.609536 0.894753 0.959636 -0.513991
C147  C     C_2   0.079878 0.387047 0.065527 0.433057
H51   H     H_    0.131809 0.366541 0.073739 0.130691
O71   O     O_2   0.051534 0.356924 0.043232 -0.516031
C148  C     C_2   0.088864 0.605223 0.934998 0.519684
H52   H     H_    0.144321 0.616263 0.927629 0.085982
O72   O     O_2   0.063668 0.639740 0.956809 -0.506089
C149  C     C_2   0.571553 0.883091 0.064574 0.447507
H53   H     H_    0.622499 0.860139 0.072571 0.144687
O73   O     O_2   0.543816 0.856728 0.041295 -0.528430
C150  C     C_2   0.428644 0.117086 0.935412 0.444926
H54   H     H_    0.377785 0.140183 0.927390 0.144702
O74   O     O_2   0.456375 0.143357 0.958710 -0.529568
C151  C     C_2   0.920305 0.613031 0.065493 0.431705
H55   H     H_    0.868506 0.633761 0.073747 0.128897
O75   O     O_2   0.948577 0.642962 0.043140 -0.516065
C152  C     C_2   0.911133 0.394718 0.934969 0.519958
H56   H     H_    0.855673 0.383689 0.927590 0.087888
O76   O     O_2   0.936331 0.360183 0.956780 -0.506597
C153  C     C_2   0.927458 0.381433 0.565073 0.516224
H57   H     H_    0.877668 0.360108 0.575206 0.096943
O77   O     O_2   0.947831 0.356510 0.540196 -0.508723
C154  C     C_2   0.053670 0.627208 0.434892 0.513385
H58   H     H_    0.040522 0.681087 0.426131 0.090688
O78   O     O_2   0.090587 0.622235 0.458472 -0.500349
C155  C     C_2   0.384574 0.924804 0.564915 0.518856
H59   H     H_    0.329341 0.926424 0.573888 0.093793
O79   O     O_2   0.396524 0.890268 0.541136 -0.497768
C156  C     C_2   0.615411 0.075151 0.435093 0.512263
H60   H     H_    0.670647 0.073519 0.426123 0.090955
O80   O     O_2   0.603462 0.109686 0.458872 -0.500480
C157  C     C_2   0.076103 0.613480 0.564700 0.516326
H61   H     H_    0.071720 0.668897 0.573302 0.091892
O81   O     O_2   0.111532 0.602454 0.541086 -0.495357
C158  C     C_2   0.945139 0.373800 0.435072 0.447238
H62   H     H_    0.949386 0.318972 0.426004 0.143904
O82   O     O_2   0.911489 0.382459 0.459332 -0.521805
C159  C     C_2   0.615398 0.075176 0.564930 0.511420
H63   H     H_    0.670633 0.073560 0.573914 0.092309
O83   O     O_2   0.603444 0.109704 0.541147 -0.501039
C160  C     C_2   0.384556 0.924824 0.435061 0.519177
H64   H     H_    0.329323 0.926453 0.426075 0.094621
O84   O     O_2   0.396498 0.890288 0.458843 -0.497480

loop_
_geom_bond_atom_site_label_1
_geom_bond_atom_site_label_2
_ccdc_geom_bond_type
C41   N14   A    
C4    C36   A    
C65   C115  S    
C78   C115  A    
C44   N15   A    
C25   C153  S    
C61   O51   A    
C142  H46   S    
C51   O7    A    
O9    Zn12  S    
O20   Zn5   S    
C71   C113  S    
C22   C150  S    
C26   C126  A    
O13   Zn8   S    
O27   Zn10  S    
C132  O56   D    
C36   C53   S    
C139  H43   S    
C138  H42   S    
C89   C106  A    
N9    N14   A    
C143  O67   D    
C3    C19   A    
C156  H60   S    
C63   C105  S    
C32   C160  S    
O5    Zn16  S    
C93   C110  A    
C2    C34   A    
C64   O28   A    
C129  H33   S    
O40   Zn5   S    
O12   Zn13  S    
C100  C115  A    
O38   Zn3   S    
C41   C126  S    
O2    Zn11  S    
C130  O54   D    
C22   C122  A    
O16   Zn1   S    
O51   Zn5   S    
C155  H59   S    
C135  H39   S    
C24   C152  S    
C99   C116  A    
C159  O83   D    
C152  H56   S    
C69   C119  S    
C20   C148  S    
C55   O15   A    
C12   C40   A    
C73   C88   A    
C14   C38   A    
N2    N5    A    
C75   C86   A    
C11   C27   A    
C78   H6    S    
C93   C100  A    
C15   C39   A    
C16   C40   A    
C47   N4    A    
O3    Zn7   S    
C146  H50   S    
C71   O35   A    
C137  O61   D    
O43   Zn2   S    
O3    Zn3   S    
O2    Zn15  S    
C57   O47   A    
C135  O59   D    
C26   C154  S    
C57   O21   A    
C52   O8    A    
C90   C105  A    
C80   H8    S    
C64   C106  S    
C94   H22   S    
C72   O42   A    
C94   C109  A    
C10   C38   A    
C82   C111  A    
C82   H10   S    
C1    C129  S    
C59   C109  S    
C60   O24   A    
C159  H63   S    
C4    C20   A    
C5    C21   A    
O4    Zn8   S    
O14   Zn7   S    
O17   Zn4   S    
C76   C85   A    
O23   Zn14  S    
C98   H26   S    
C54   O18   A    
C46   N5    A    
C29   C125  A    
C31   C127  A    
O6    Zn15  S    
C102  H30   S    
C91   H19   S    
C63   O49   A    
C17   C145  S    
O4    Zn13  S    
C89   H17   S    
C19   C123  A    
C63   O27   A    
O44   Zn1   S    
C101  C118  A    
C3    C131  S    
O42   Zn7   S    
O2    Zn2   S    
O3    Zn10  S    
C65   O29   A    
C40   C49   S    
C96   H24   S    
O50   Zn8   S    
C133  H37   S    
C25   C125  A    
C68   C118  S    
C70   C120  S    
C149  O73   D    
C5    C33   A    
O19   Zn6   S    
C7    C135  S    
C74   C87   A    
C45   N6    A    
C104  C119  A    
O46   Zn4   S    
C157  O81   D    
C50   O6    A    
O11   Zn14  S    
C21   C149  S    
C150  O74   D    
C96   C111  A    
C148  O72   D    
C60   C110  S    
C158  H62   S    
C85   H13   S    
O2    Zn6   S    
C37   C52   S    
C23   C123  A    
C38   C51   S    
C77   C84   A    
O10   Zn11  S    
C155  O79   D    
C154  O78   D    
C145  H49   S    
C81   C112  A    
C3    C35   A    
C5    C133  S    
C83   C110  A    
C15   C143  S    
C102  C117  A    
C136  O60   D    
C49   O5    A    
C160  O84   D    
C151  O75   D    
C70   O34   A    
C29   C157  S    
C50   O10   A    
C18   C146  S    
C54   O14   A    
O18   Zn3   S    
C134  H38   S    
C79   C82   A    
N12   N15   A    
C15   C31   A    
C16   C32   A    
N11   N16   A    
C1    C17   A    
C84   C109  A    
C32   C128  A    
C142  O66   D    
N3    N8    A    
C47   N8    A    
C76   H4    S    
C13   C141  S    
C48   N7    A    
C62   O52   A    
C8    C24   A    
C66   O40   A    
C20   C124  A    
O47   Zn1   S    
C49   O9    A    
C80   C113  A    
C138  O62   D    
C140  H44   S    
C156  O80   D    
C52   O12   A    
C97   C114  A    
C53   O13   A    
C56   O16   A    
C44   C127  S    
C92   H20   S    
C53   O17   A    
C93   H21   S    
C103  C120  A    
O33   Zn15  S    
C48   C123  S    
C83   H11   S    
C9    C25   A    
C131  H35   S    
C81   H9    S    
C75   C118  A    
O25   Zn16  S    
C66   C116  S    
C12   C28   A    
C13   C29   A    
C95   C112  A    
O7    Zn10  S    
C152  O76   D    
C6    C22   A    
C72   C114  S    
C6    C134  S    
C144  H48   S    
C8    C36   A    
C153  O77   D    
C2    C130  S    
C62   O26   A    
C9    C137  S    
C56   O20   A    
C27   C127  A    
C78   C83   A    
O4    Zn4   S    
C46   N1    A    
C99   H27   S    
C68   O32   A    
C31   C159  S    
C97   H25   S    
C85   C108  A    
C68   O38   A    
C100  H28   S    
C33   C56   S    
C146  O70   D    
C101  H29   S    
C34   C55   S    
C73   C120  A    
C10   C138  S    
C137  H41   S    
C35   C54   S    
O39   Zn6   S    
C7    C35   A    
C104  H32   S    
C73   H1    S    
C8    C136  S    
O32   Zn10  S    
C58   O48   A    
C80   C81   A    
C98   C113  A    
C14   C142  S    
C6    C34   A    
C147  H51   S    
C132  H36   S    
C42   N9    A    
O48   Zn2   S    
C43   N16   A    
C143  H47   S    
C67   C117  S    
C92   C101  A    
C17   C121  A    
C129  O53   D    
C141  O65   D    
O8    Zn9   S    
C130  H34   S    
C86   H14   S    
C16   C144  S    
C69   O43   A    
C91   C108  A    
N4    N7    A    
C60   O46   A    
C43   C128  S    
C65   O39   A    
C45   C122  S    
C79   H7    S    
C41   N10   A    
C76   C117  A    
C71   O41   A    
C44   N11   A    
C39   C50   S    
C47   C124  S    
O26   Zn15  S    
C58   C108  S    
C90   C103  A    
C51   O11   A    
O31   Zn9   S    
C62   C112  S    
C145  O69   D    
C149  H53   S    
O24   Zn13  S    
C28   C128  A    
N10   N13   A    
C55   O19   A    
C151  H55   S    
C30   C126  A    
C88   C105  A    
C2    C18   A    
C30   C158  S    
C157  H61   S    
O35   Zn13  S    
C86   C107  A    
C45   N2    A    
C64   O50   A    
C95   C98   A    
C1    C33   A    
C48   N3    A    
C74   C119  A    
C94   C99   A    
C139  O63   D    
C158  O82   D    
O1    Zn1   S    
C66   O30   A    
O21   Zn12  S    
C7    C23   A    
C131  O55   D    
C24   C124  A    
O29   Zn11  S    
O36   Zn14  S    
C59   O45   A    
C42   C125  S    
C61   O25   A    
C28   C156  S    
C59   O23   A    
C46   C121  S    
C23   C151  S    
C77   C116  A    
O52   Zn6   S    
N1    N6    A    
C10   C26   A    
C153  H57   S    
C77   H5    S    
C14   C30   A    
O41   Zn8   S    
C75   H3    S    
C27   C155  S    
O49   Zn7   S    
C134  O58   D    
C136  H40   S    
O1    Zn5   S    
C141  H45   S    
C70   O44   A    
C133  O57   D    
C92   C107  A    
C96   C97   A    
O45   Zn3   S    
C9    C37   A    
C11   C39   A    
C147  O71   D    
C11   C139  S    
O37   Zn4   S    
O1    Zn12  S    
C57   C107  S    
C18   C122  A    
C74   H2    S    
C89   C104  A    
C140  O64   D    
C67   O37   A    
C69   O33   A    
C91   C102  A    
C61   C111  S    
C12   C140  S    
C67   O31   A    
C150  H54   S    
C148  H52   S    
C58   O22   A    
C13   C37   A    
O28   Zn9   S    
C42   N13   A    
C43   N12   A    
C154  H58   S    
O34   Zn16  S    
C90   H18   S    
C103  H31   S    
C72   O36   A    
C87   C106  A    
O4    Zn9   S    
O15   Zn2   S    
C19   C147  S    
C144  O68   D    
C21   C121  A    
C4    C132  S    
O3    Zn14  S    
O22   Zn11  S    
O1    Zn16  S    
C95   H23   S    
C84   H12   S    
C160  H64   S    
C79   C114  A    
O30   Zn12  S    
C87   H15   S    
C88   H16   S    
