data_mof_unit_pretest_750.cif
_audit_creation_date              2013-03-05T15:49:31-0500
_audit_creation_method            fapswitch 2.2
_symmetry_space_group_name_H-M    P1
_symmetry_Int_Tables_number       1
_space_group_crystal_system       triclinic
_cell_length_a                    10.628903
_cell_length_b                    12.072579
_cell_length_c                    12.902241
_cell_angle_alpha                 92.568253
_cell_angle_beta                  92.279464
_cell_angle_gamma                 84.785768
_cell_volume                      1646.02520691

loop_
_atom_site_label
_atom_site_type_symbol
_atom_site_description
_atom_site_fract_x
_atom_site_fract_y
_atom_site_fract_z
_atom_type_partial_charge
O1    O     O_R   0.506170 0.421700 0.658830 -0.650250
O2    O     O_R   0.493830 0.578300 0.341170 -0.650251
O3    O     O_R   0.491330 0.609310 0.646410 -0.580687
O4    O     O_R   0.508670 0.390690 0.353590 -0.580687
C1    C     C_R   0.498087 0.521425 0.700134 0.893774
C2    C     C_R   0.501913 0.478575 0.299865 0.893774
O5    O     O_R   0.690650 0.406190 0.506220 -0.651198
O6    O     O_R   0.309350 0.593810 0.493780 -0.651199
O7    O     O_R   0.675800 0.593810 0.493800 -0.571171
O8    O     O_R   0.324200 0.406190 0.506200 -0.571172
C3    C     C_R   0.739307 0.496775 0.485517 0.889467
C4    C     C_R   0.260693 0.503225 0.514482 0.889468
Zn1   Zn    Zn3+2 0.509910 0.374730 0.508290 0.978055
Zn2   Zn    Zn3+2 0.490090 0.625270 0.491710 0.978055
H1    H     H_    0.857627 0.858383 0.377501 0.132675
H2    H     H_    0.142372 0.141616 0.622496 0.132675
C5    C     C_R   0.912969 0.285684 0.480116 -0.107325
C6    C     C_R   0.087031 0.714316 0.519882 -0.107325
C7    C     C_R   0.982682 0.194839 0.523927 -0.141633
C8    C     C_R   0.017318 0.805161 0.476071 -0.141634
C9    C     C_R   0.090698 0.211135 0.584980 -0.105285
C10   C     C_R   0.909302 0.788864 0.415018 -0.105286
C11   C     C_R   0.135070 0.316433 0.594123 -0.079663
C12   C     C_R   0.864930 0.683566 0.405875 -0.079663
C13   C     C_R   0.071224 0.407043 0.541828 0.109432
C14   C     C_R   0.928776 0.592957 0.458171 0.109432
C15   C     C_R   0.951555 0.394658 0.496242 0.083156
C16   C     C_R   0.048445 0.605342 0.503757 0.083156
C17   C     C_R   0.125167 0.508488 0.531531 -0.259775
C18   C     C_R   0.874833 0.491512 0.468468 -0.259775
H3    H     H_    0.830680 0.269305 0.431792 0.158458
H4    H     H_    0.169319 0.730695 0.568206 0.158458
H5    H     H_    0.951169 0.112232 0.512413 0.132512
H6    H     H_    0.048831 0.887768 0.487584 0.132512
H7    H     H_    0.220068 0.326427 0.641426 0.136918
H8    H     H_    0.779931 0.673573 0.358573 0.136917
C19   C     C_R   0.506987 0.465674 0.189095 -0.096626
C20   C     C_R   0.493014 0.534326 0.810904 -0.096625
C21   C     C_R   0.425470 0.641409 0.964097 0.193404
C22   C     C_R   0.574531 0.358591 0.035903 0.193403
C23   C     C_R   0.436958 0.632142 0.857172 -0.140105
C24   C     C_R   0.563042 0.367858 0.142827 -0.140106
C25   C     C_R   0.540062 0.445361 0.869645 -0.274205
C26   C     C_R   0.459940 0.554640 0.130354 -0.274205
C27   C     C_R   0.529108 0.450423 0.976108 0.116324
C28   C     C_R   0.470894 0.549577 0.023892 0.116324
H9    H     H_    0.415256 0.628108 0.168824 0.179749
H10   H     H_    0.584747 0.371893 0.831176 0.179749
H11   H     H_    0.600299 0.299809 0.190385 0.183342
H12   H     H_    0.399700 0.700190 0.809615 0.183341
N1    N     N_R   0.523130 0.207800 0.519340 -0.160873
N2    N     N_R   0.476870 0.792200 0.480660 -0.160873
C29   C     C_R   0.389062 0.958926 0.396289 -0.239292
C30   C     C_R   0.610938 0.041074 0.603710 -0.239292
C31   C     C_R   0.396552 0.843365 0.406686 0.252782
C32   C     C_R   0.603448 0.156635 0.593313 0.252784
C33   C     C_R   0.546543 0.856409 0.547217 0.384794
C34   C     C_R   0.453457 0.143591 0.452783 0.384793
C35   C     C_R   0.539623 0.974130 0.538331 -0.100924
C36   C     C_R   0.460377 0.025870 0.461669 -0.100924
H13   H     H_    0.325530 0.995929 0.337041 0.213031
H14   H     H_    0.674470 0.004071 0.662959 0.213032
C37   C     C_3   0.364335 0.748727 0.011559 -0.905990
H15   H     H_    0.335492 0.810644 0.951997 0.253226
H16   H     H_    0.278253 0.732139 0.052206 0.238522
H17   H     H_    0.432091 0.786540 0.067283 0.248433
C38   C     C_3   0.635666 0.251273 0.988441 -0.905989
H18   H     H_    0.664508 0.189355 0.048002 0.253226
H19   H     H_    0.567910 0.213460 0.932716 0.248433
H20   H     H_    0.721749 0.267861 0.947795 0.238522
N3    N     N_R   0.376846 0.195158 0.371722 0.217631
O9    O     O_R   0.257079 0.220794 0.385480 -0.396916
O10   O     O_R   0.417429 0.187614 0.277679 -0.419689
N4    N     N_R   0.623154 0.804842 0.628277 0.217631
O11   O     O_R   0.742921 0.779206 0.614519 -0.396916
O12   O     O_R   0.582572 0.812386 0.722321 -0.419689
C39   C     C_3   0.688744 0.217679 0.666799 -0.839202
H21   H     H_    0.787348 0.179749 0.660659 0.217712
H22   H     H_    0.690611 0.305922 0.653077 0.292761
H23   H     H_    0.660045 0.208498 0.747394 0.214651
C40   C     C_3   0.311256 0.782321 0.333200 -0.839197
H24   H     H_    0.212652 0.820252 0.339337 0.217711
H25   H     H_    0.339959 0.791501 0.252605 0.214650
H26   H     H_    0.309388 0.694077 0.346924 0.292761

loop_
_geom_bond_atom_site_label_1
_geom_bond_atom_site_label_2
_geom_bond_distance
_ccdc_geom_bond_type
C37   H16   1.110485 S    
H2    C9    1.082506 S    
C4    C17   1.461085 S    
C40   H24   1.109284 S    
C21   C23   1.388424 A    
C39   H21   1.109276 S    
O5    C3    1.294114 A    
C12   H8    1.082859 S    
N4    O12   1.300464 A    
O1    C1    1.291587 A    
C16   C17   1.414781 A    
C7    C9    1.390160 A    
C12   C14   1.416750 A    
C39   H22   1.089810 S    
C34   N3    1.429312 S    
C33   C35   1.425927 A    
C34   C36   1.425927 A    
O4    Zn1   2.013240 S    
N1    C32   1.383267 A    
C19   C24   1.393941 A    
Zn1   N1    2.018437 S    
C29   H13   1.083806 S    
H1    C10   1.082506 S    
Zn2   N2    2.018438 S    
C3    C18   1.461084 S    
C22   C38   1.511082 S    
C31   C40   1.501476 S    
C25   H10   1.077657 S    
C26   H9    1.077658 S    
C8    H6    1.082725 S    
C22   C24   1.388424 A    
C37   H17   1.110457 S    
C35   C36   1.404094 A    
C1    C20   1.433311 S    
C15   C18   1.414780 A    
O2    C2    1.291587 A    
C40   H25   1.108321 S    
C29   C36   1.392360 A    
C26   C28   1.381298 A    
C30   C35   1.392360 A    
C29   C31   1.402302 A    
C13   C17   1.412284 A    
C22   C27   1.416728 A    
C30   C32   1.402301 A    
N4    O11   1.299707 A    
C38   H18   1.111029 S    
C5    C15   1.417411 A    
C6    C16   1.417412 A    
C20   C23   1.393940 A    
O4    C2    1.288197 A    
C7    H5    1.082725 S    
N3    O10   1.300462 A    
C30   H14   1.083807 S    
C27   C28   1.423180 A    
C32   C39   1.501475 S    
C38   H19   1.110458 S    
C33   N4    1.429312 S    
O7    Zn2   1.975260 S    
O7    C3    1.300065 A    
O6    C4    1.294113 A    
C20   C25   1.386801 A    
C2    C19   1.433311 S    
N1    C34   1.371431 A    
C25   C27   1.381299 A    
O3    Zn2   2.013241 S    
O8    C4    1.300065 A    
C21   C28   1.416729 A    
C8    C10   1.390160 A    
C14   C18   1.412283 A    
C11   H7    1.082859 S    
C9    C11   1.394075 A    
C5    H3    1.081586 S    
C10   C12   1.394075 A    
O1    Zn1   1.999752 S    
C23   H12   1.083943 S    
C40   H26   1.089813 S    
C39   H23   1.108313 S    
O6    Zn2   1.993257 S    
O3    C1    1.288197 A    
O8    Zn1   1.975259 S    
N2    C31   1.383267 A    
C13   C15   1.397612 A    
C21   C37   1.511080 S    
C14   C16   1.397613 A    
C38   H20   1.110486 S    
C19   C26   1.386803 A    
N3    O9    1.299707 A    
C5    C7    1.394966 A    
C6    C8    1.394967 A    
C11   C13   1.416750 A    
O2    Zn2   1.999752 S    
N2    C33   1.371431 A    
C24   H11   1.083945 S    
C37   H15   1.111028 S    
O5    Zn1   1.993258 S    
C6    H4    1.081586 S    
