data_mof_unit_pretest_730.cif
_audit_creation_date              2012-12-10T17:43:24-0500
_audit_creation_method            fapswitch 2.2
_symmetry_space_group_name_H-M    P1
_symmetry_Int_Tables_number       1
_space_group_crystal_system       triclinic
_cell_length_a                    14.985212
_cell_length_b                    13.724466
_cell_length_c                    10.621514
_cell_angle_alpha                 89.470242
_cell_angle_beta                  90.243931
_cell_angle_gamma                 90.127583
_cell_volume                      2184.34500598

loop_
_atom_site_label
_atom_site_type_symbol
_atom_type_description
_atom_site_fract_x
_atom_site_fract_y
_atom_site_fract_z
_atom_type_partial_charge
C1    C     C_R   0.328912 0.499917 0.499605 0.801042
C2    C     C_R   0.671155 0.500143 0.500888 0.800501
C3    C     C_R   0.953376 0.502837 0.499263 -0.008264
C4    C     C_R   0.047004 0.502590 0.499563 -0.005781
C5    C     C_R   0.906030 0.477716 0.388717 0.029563
C6    C     C_R   0.094373 0.527287 0.610458 0.042993
C7    C     C_R   0.954243 0.552475 0.718793 -0.299467
C8    C     C_R   0.046124 0.454666 0.278952 -0.293487
C9    C     C_R   0.047708 0.552938 0.720070 0.432100
C10   C     C_R   0.952799 0.456545 0.277595 0.442815
C11   C     C_R   0.462281 0.792336 0.597485 0.066946
C12   C     C_R   0.537337 0.207620 0.402249 0.071342
C13   C     C_R   0.537345 0.793896 0.402208 0.062876
C14   C     C_R   0.462612 0.206095 0.597784 0.066488
C15   C     C_R   0.537249 0.897163 0.397744 -0.068378
C16   C     C_R   0.462382 0.102804 0.602040 -0.069404
C17   C     C_R   0.462171 0.895506 0.601829 -0.068634
C18   C     C_R   0.537163 0.104446 0.397747 -0.071536
C19   C     C_R   0.499751 0.948257 0.499835 0.025316
C20   C     C_R   0.499774 0.051706 0.499885 0.025067
C21   C     C_R   0.573135 0.949968 0.294244 0.135912
C22   C     C_R   0.426075 0.049967 0.705246 0.141227
C23   C     C_R   0.425846 0.946577 0.705066 0.139238
C24   C     C_R   0.572931 0.053352 0.294137 0.141864
C25   C     C_R   0.499632 0.500401 0.259115 0.786674
C26   C     C_R   0.499528 0.499575 0.740845 0.789014
C27   C     C_3   0.501659 0.592788 0.038907 -0.103064
C28   C     C_3   0.496255 0.407070 0.960915 -0.095099
C29   C     C_3   0.573565 0.543419 0.957568 -0.170126
C30   C     C_3   0.424363 0.456425 0.042344 -0.157510
C31   C     C_3   0.427007 0.548117 0.956645 -0.163237
C32   C     C_3   0.570906 0.451670 0.043120 -0.174134
C33   C     C_3   0.498963 0.498841 0.877628 0.002399
C34   C     C_3   0.499074 0.501019 0.122260 -0.005407
C35   C     C_R   0.812746 0.475593 0.391317 -0.198985
C36   C     C_R   0.187627 0.526409 0.608854 -0.204947
C37   C     C_R   0.767508 0.500726 0.500772 -0.062901
C38   C     C_R   0.232693 0.499888 0.499766 -0.061285
C39   C     C_R   0.813889 0.527788 0.609230 -0.195155
C40   C     C_R   0.186344 0.474855 0.390496 -0.192306
C41   C     C_R   0.907000 0.528097 0.609629 0.086114
C42   C     C_R   0.093337 0.476946 0.389112 0.070097
Cu1   Cu    Cu3+1 0.500000 0.597420 0.500000 0.954618
Cu2   Cu    Cu3+1 0.500000 0.402580 0.500000 0.962208
H1    H     H_    0.368291 0.587422 0.917590 0.145178
H2    H     H_    0.629156 0.411403 0.081913 0.157158
H3    H     H_    0.503731 0.668842 0.073490 0.178430
H4    H     H_    0.494213 0.331028 0.926286 0.177635
H5    H     H_    0.634197 0.579182 0.919005 0.146868
H6    H     H_    0.363333 0.421018 0.080311 0.148437
H7    H     H_    0.774709 0.455485 0.308458 0.168472
H8    H     H_    0.225737 0.545824 0.692012 0.166410
H9    H     H_    0.777339 0.547243 0.693298 0.125155
H10   H     H_    0.222904 0.455231 0.306512 0.128669
H11   H     H_    0.918702 0.570346 0.803685 0.150922
H12   H     H_    0.081439 0.436656 0.193420 0.174650
H13   H     H_    0.432306 0.749364 0.671380 0.161828
H14   H     H_    0.567301 0.250543 0.328298 0.162074
H15   H     H_    0.567061 0.752061 0.328131 0.158272
H16   H     H_    0.433032 0.247928 0.671970 0.158786
N1    N     N_R   0.500000 0.743810 0.500000 -0.199618
N2    N     N_R   0.500000 0.256190 0.500000 -0.200384
O1    O     O_R   0.370260 0.582280 0.500030 -0.577272
O2    O     O_R   0.629740 0.417720 0.499970 -0.570096
O3    O     O_R   0.629740 0.582280 0.499970 -0.574202
O4    O     O_R   0.370260 0.417720 0.500030 -0.569678
O5    O     O_R   0.499980 0.582260 0.316850 -0.594158
O6    O     O_R   0.500020 0.417740 0.683150 -0.593482
O7    O     O_R   0.500020 0.582260 0.683150 -0.589317
O8    O     O_R   0.499980 0.417740 0.316850 -0.588775
O9    O     O_3   0.093376 0.569266 0.831463 -0.591064
C43   C     C_3   0.090754 0.669606 0.858982 0.026604
H17   H     H_    0.021223 0.693856 0.877531 0.147499
H18   H     H_    0.119367 0.713709 0.780176 0.164982
C44   C     C_3   0.146187 0.688211 0.976666 -0.732804
H19   H     H_    0.216429 0.665977 0.960864 0.249360
H20   H     H_    0.144772 0.766977 0.999537 0.228233
H21   H     H_    0.118725 0.645942 0.057440 0.233278
O10   O     O_3   0.907098 0.437173 0.167354 -0.565143
C45   C     C_3   0.902221 0.523639 0.094052 0.065373
H22   H     H_    0.959205 0.525905 0.027477 0.188242
H23   H     H_    0.903424 0.591761 0.151031 0.133761
C46   C     C_3   0.815212 0.523790 0.019927 -0.804937
H24   H     H_    0.758134 0.520910 0.086003 0.239778
H25   H     H_    0.809793 0.591744 0.962951 0.197051
H26   H     H_    0.812235 0.459966 0.956500 0.263469
I1    I     I_    0.626196 0.873872 0.135291 -0.332046
I2    I     I_    0.372929 0.125973 0.864159 -0.313562
I3    I     I_    0.371891 0.867689 0.863370 -0.357551
I4    I     I_    0.624680 0.132164 0.134388 -0.299793

loop_
_geom_bond_atom_site_label_1
_geom_bond_atom_site_label_2
_ccdc_geom_bond_type
C21   I1    S    
C27   C29   S    
Cu2   O4    S    
C19   C20   A    
C25   O5    A    
C7    H11   S    
C44   H19   S    
C2    O3    A    
C8    H12   S    
C6    C9    A    
Cu1   O1    S    
C39   C41   A    
C29   H5    S    
Cu2   O2    S    
C15   C19   A    
C17   C23   A    
C18   C24   A    
C35   C37   A    
C8    C42   A    
C29   C32   S    
C43   C44   S    
C30   C31   S    
C14   N2    A    
C29   C33   S    
C11   C17   A    
C31   C33   S    
Cu2   O8    S    
C22   I2    S    
C36   H8    S    
Cu1   O3    S    
C25   C34   S    
C12   H14   S    
C40   C42   A    
C30   H6    S    
Cu1   O7    S    
C28   H4    S    
C45   C46   S    
C1    O1    A    
C2    O2    A    
C27   C34   S    
C30   C34   S    
C27   C31   S    
C28   C32   S    
C43   H18   S    
C43   H17   S    
Cu2   N2    S    
C32   C34   S    
Cu1   Cu2   S    
C11   N1    A    
C12   N2    A    
C26   C33   S    
C46   H24   S    
C15   C21   A    
C16   C20   A    
C23   I3    S    
C1    O4    A    
C44   H20   S    
C1    C38   S    
C4    C6    A    
C46   H25   S    
C28   C33   S    
C40   H10   S    
C13   C15   A    
C35   H7    S    
C14   C16   A    
Cu2   O6    S    
C3    C4    A    
Cu1   N1    S    
C27   H3    S    
C7    C9    A    
C3    C41   A    
C16   C22   A    
C32   H2    S    
C8    C10   A    
C9    O9    S    
C45   H22   S    
C3    C5    A    
C24   I4    S    
C10   O10   S    
C13   H15   S    
C14   H16   S    
C26   O6    A    
C28   C30   S    
O9    C43   S    
C37   C39   A    
C38   C40   A    
C2    C37   S    
C39   H9    S    
C4    C42   A    
C5    C35   A    
C36   C38   A    
C17   C19   A    
C45   H23   S    
C6    C36   A    
C18   C20   A    
C7    C41   A    
C44   H21   S    
O10   C45   S    
C5    C10   A    
C46   H26   S    
C13   N1    A    
Cu1   O5    S    
C31   H1    S    
C21   C24   A    
C12   C18   A    
C26   O7    A    
C22   C23   A    
C25   O8    A    
C11   H13   S    
