data_mof_unit_pretest_339.cif
_audit_creation_date              2012-12-10T16:51:17-0500
_audit_creation_method            fapswitch 2.2
_symmetry_space_group_name_H-M    P1
_symmetry_Int_Tables_number       1
_space_group_crystal_system       triclinic
_cell_length_a                    27.802887
_cell_length_b                    8.703732
_cell_length_c                    7.408921
_cell_angle_alpha                 101.909992
_cell_angle_beta                  94.356744
_cell_angle_gamma                 92.310229
_cell_volume                      1746.32953251

loop_
_atom_site_label
_atom_site_type_symbol
_atom_type_description
_atom_site_fract_x
_atom_site_fract_y
_atom_site_fract_z
_atom_type_partial_charge
C1    C     C_R   0.500937 0.201229 0.455925 0.903674
C2    C     C_R   0.499923 0.798883 0.544315 0.842333
C3    C     C_R   0.102172 0.490402 0.505021 -0.094188
C4    C     C_R   0.897803 0.503797 0.495047 -0.094189
C5    C     C_R   0.124503 0.347691 0.444121 -0.064868
C6    C     C_R   0.875484 0.646550 0.555782 -0.064865
C7    C     C_R   0.095221 0.208430 0.376060 0.264559
C8    C     C_R   0.904768 0.785783 0.623958 0.264615
C9    C     C_R   0.131231 0.630678 0.568357 0.002439
C10   C     C_R   0.868732 0.363537 0.431767 0.002672
C11   C     C_R   0.354671 0.496224 0.506615 -0.039016
C12   C     C_R   0.645319 0.502392 0.493328 -0.037942
C13   C     C_R   0.970682 0.355200 0.437855 0.079390
C14   C     C_R   0.029292 0.638951 0.562354 0.079449
C15   C     C_R   0.978095 0.641957 0.560946 0.003439
C16   C     C_R   0.021883 0.352197 0.439233 0.003428
C17   C     C_R   0.949055 0.500448 0.497867 0.065319
C18   C     C_R   0.050921 0.493715 0.502289 0.065346
C19   C     C_R   0.940037 0.217081 0.378992 -0.238768
C20   C     C_R   0.059930 0.777077 0.621265 -0.238716
C21   C     C_R   0.890277 0.221771 0.375077 -0.174721
C22   C     C_R   0.109685 0.772413 0.625163 -0.174880
C23   C     C_R   0.407494 0.499223 0.502221 0.791247
C24   C     C_R   0.592511 0.501197 0.497864 0.784293
C25   C     C_R   0.045130 0.211924 0.376612 -0.285323
C26   C     C_R   0.954856 0.782242 0.623558 -0.285344
C27   C     C_2   0.511254 0.039986 0.442307 -0.038373
C28   C     C_2   0.491041 0.960743 0.560163 -0.060690
C29   C     C_R   0.175552 0.349935 0.453979 0.542567
C30   C     C_R   0.824442 0.644406 0.545643 0.542492
C31   C     C_R   0.181560 0.627044 0.571346 0.534853
C32   C     C_R   0.818395 0.367237 0.428719 0.534527
C33   C     C_R   0.274726 0.471275 0.343820 -0.104581
C34   C     C_R   0.725241 0.526453 0.656092 -0.105036
C35   C     C_R   0.324747 0.475063 0.340630 -0.210718
C36   C     C_R   0.675238 0.524601 0.659397 -0.207492
C37   C     C_R   0.333608 0.513212 0.675771 -0.219479
C38   C     C_R   0.666360 0.481741 0.323901 -0.226081
C39   C     C_R   0.283473 0.509878 0.678559 -0.098251
C40   C     C_R   0.716479 0.483169 0.321001 -0.094416
C41   C     C_R   0.253976 0.488912 0.512548 0.361333
C42   C     C_R   0.745985 0.505741 0.487156 0.360381
Cu1   Cu    Cu3+1 0.505380 0.517380 0.684380 0.940919
Cu2   Cu    Cu3+1 0.494620 0.482620 0.315620 0.935927
H1    H     H_    0.355781 0.529289 0.805671 0.157100
H2    H     H_    0.644175 0.464251 0.193894 0.156087
H3    H     H_    0.460472 0.385834 0.950105 0.221314
H4    H     H_    0.538864 0.616815 0.050550 0.221227
H5    H     H_    0.267506 0.523590 0.809410 0.133252
H6    H     H_    0.732428 0.467041 0.189974 0.133612
H7    H     H_    0.660093 0.540712 0.792010 0.156742
H8    H     H_    0.339904 0.461454 0.208194 0.156770
H9    H     H_    0.747964 0.543289 0.784789 0.132468
H10   H     H_    0.251997 0.455661 0.215258 0.132129
H11   H     H_    0.868662 0.112333 0.328083 0.194047
H12   H     H_    0.131294 0.881860 0.672198 0.193961
H13   H     H_    0.952898 0.101579 0.335514 0.136387
H14   H     H_    0.047072 0.892575 0.664794 0.136365
H15   H     H_    0.025558 0.101056 0.321703 0.139684
H16   H     H_    0.974426 0.893091 0.678573 0.139651
N1    N     N_R   0.202511 0.488301 0.514648 -0.478037
N2    N     N_R   0.797457 0.506055 0.485170 -0.478046
N3    N     N_2   0.486510 0.456430 0.038510 -0.219950
N4    N     N_2   0.513490 0.543570 0.961490 -0.218390
O1    O     O_R   0.503500 0.286120 0.619780 -0.593852
O2    O     O_R   0.496500 0.713880 0.380220 -0.593906
O3    O     O_R   0.494410 0.256780 0.308360 -0.587060
O4    O     O_R   0.505590 0.743220 0.691640 -0.588264
O5    O     O_R   0.434810 0.514700 0.655690 -0.591330
O6    O     O_R   0.565190 0.485300 0.344310 -0.602618
O7    O     O_R   0.425720 0.485350 0.344280 -0.583860
O8    O     O_R   0.574280 0.514650 0.655720 -0.581175
O9    O     O_2   0.198392 0.215621 0.405711 -0.486525
O10   O     O_2   0.801629 0.778847 0.593379 -0.486324
O11   O     O_2   0.790468 0.232857 0.371186 -0.523387
O12   O     O_2   0.209476 0.761432 0.629091 -0.522728
N5    N     N_2   0.115387 0.063049 0.302980 -0.370015
H17   H     H_    0.098663 0.967477 0.339800 0.248101
C43   C     C_3   0.120034 0.035763 0.105847 -0.585955
H18   H     H_    0.138673 0.925448 0.061899 0.237583
H19   H     H_    0.141739 0.134132 0.071285 0.241600
H20   H     H_    0.083768 0.023872 0.028352 0.188631
N6    N     N_2   0.884610 0.931168 0.697099 -0.370006
H21   H     H_    0.901382 0.026789 0.660564 0.248122
C44   C     C_3   0.879857 0.958235 0.894148 -0.586145
H22   H     H_    0.861245 0.068595 0.938140 0.237532
H23   H     H_    0.916084 0.969910 0.971887 0.188712
H24   H     H_    0.858082 0.859864 0.928359 0.241515
C45   C     C_3   0.549293 0.974887 0.310695 -0.440255
C46   C     C_3   0.593450 0.088590 0.323148 -0.805576
H25   H     H_    0.584256 0.187794 0.256731 0.264736
H26   H     H_    0.607344 0.134118 0.469909 0.250601
H27   H     H_    0.622561 0.026599 0.248255 0.252994
H28   H     H_    0.564230 0.865893 0.340670 0.217223
H29   H     H_    0.532330 0.947725 0.166150 0.224190
C47   C     C_3   0.452758 0.022259 0.691391 -0.424600
C48   C     C_3   0.405383 0.050876 0.587508 -0.796027
H30   H     H_    0.409872 0.148637 0.514180 0.237217
H31   H     H_    0.391904 0.942436 0.485755 0.255452
H32   H     H_    0.377799 0.082540 0.687614 0.250347
H33   H     H_    0.443569 0.934818 0.775483 0.217259
H34   H     H_    0.466520 0.128034 0.795200 0.224154

loop_
_geom_bond_atom_site_label_1
_geom_bond_atom_site_label_2
_ccdc_geom_bond_type
Cu1   O8    S    
C47   H34   S    
C8    N6    S    
C8    C26   A    
C14   C18   A    
Cu2   O2    S    
C34   C42   A    
C41   N1    S    
C32   O11   S    
C48   H30   S    
C31   O12   S    
C24   O6    A    
C39   C41   A    
N5    H17   S    
C19   H13   S    
Cu2   O7    S    
C19   C21   A    
C2    O4    A    
H3    N3    S    
C30   O10   S    
C9    C22   A    
H4    N4    S    
C29   O9    S    
C33   H10   S    
C3    C18   A    
C45   H28   S    
C11   C37   A    
C31   N1    A    
C1    O3    A    
Cu1   O4    S    
C1    O1    A    
Cu2   O6    S    
C12   C36   A    
C42   N2    S    
C7    N5    S    
C40   C42   A    
Cu2   N3    S    
C47   H33   S    
C48   H31   S    
Cu1   N4    S    
C5    C29   A    
N5    C43   S    
C10   C21   A    
C29   N1    A    
C13   C19   A    
C44   H23   S    
C14   C20   A    
C4    C6    A    
C43   H19   S    
C15   C26   A    
C6    C8    A    
C3    C5    A    
C44   H22   S    
C23   O5    A    
C6    C30   A    
N3    N4    D    
C45   H29   S    
Cu1   Cu2   S    
C3    C9    A    
C23   O7    A    
C5    C7    A    
C46   H26   S    
N6    H21   S    
Cu1   O1    S    
C47   C48   S    
C36   H7    S    
C4    C17   A    
N6    C44   S    
C20   C22   A    
C30   N2    A    
C37   H1    S    
C35   H8    S    
C48   H32   S    
C24   O8    A    
C46   H27   S    
C21   H11   S    
C44   H24   S    
C16   C25   A    
C15   C17   A    
C39   H5    S    
C4    C10   A    
C2    O2    A    
C43   H20   S    
C22   H12   S    
C12   C24   S    
C7    C25   A    
C13   C17   A    
C28   C47   S    
C33   C41   A    
C11   C35   A    
C32   N2    A    
C37   C39   A    
C38   C40   A    
C46   H25   S    
C26   H16   S    
C40   H6    S    
C11   C23   S    
C33   C35   A    
C27   C45   S    
C34   C36   A    
C12   C38   A    
C38   H2    S    
C9    C31   A    
C43   H18   S    
C10   C32   A    
C34   H9    S    
C16   C18   A    
C13   C16   A    
C27   C28   D    
C1    C27   S    
C14   C15   A    
Cu2   O3    S    
C2    C28   S    
C25   H15   S    
C45   C46   S    
Cu1   O5    S    
C20   H14   S    
