data_mof_unit_pretest_1879.cif
_audit_creation_date              2012-12-10T20:56:35-0500
_audit_creation_method            fapswitch 2.2
_symmetry_space_group_name_H-M    P1
_symmetry_Int_Tables_number       1
_space_group_crystal_system       triclinic
_cell_length_a                    26.383368
_cell_length_b                    33.015114
_cell_length_c                    21.159005
_cell_angle_alpha                 90.000337
_cell_angle_beta                  128.695188
_cell_angle_gamma                 89.997473
_cell_volume                      14384.7287872

loop_
_atom_site_label
_atom_site_type_symbol
_atom_type_description
_atom_site_fract_x
_atom_site_fract_y
_atom_site_fract_z
_atom_type_partial_charge
C1    C     C_R   0.500000 0.145584 0.500000 0.802192
C2    C     C_R   0.652310 0.616734 0.505220 0.602851
C3    C     C_R   0.640643 0.749347 0.498981 0.824362
C4    C     C_R   0.140643 0.750648 0.498982 0.824345
C5    C     C_R   0.859357 0.249349 0.501020 0.824372
C6    C     C_R   0.859356 0.750653 0.501019 0.824361
C7    C     C_R   0.140643 0.249344 0.498980 0.824417
C8    C     C_R   0.395539 0.250044 0.291115 0.805070
C9    C     C_R   0.604460 0.749956 0.708885 0.805107
C10   C     C_R   0.604460 0.250044 0.708884 0.804932
C11   C     C_R   0.395541 0.749956 0.291116 0.804995
C12   C     C_R   0.895539 0.750044 0.291115 0.805113
C13   C     C_R   0.651986 0.383248 0.504695 0.602797
C14   C     C_R   0.104461 0.249956 0.708885 0.805070
C15   C     C_R   0.104459 0.750044 0.708884 0.804994
C16   C     C_R   0.895540 0.249956 0.291116 0.804923
C17   C     C_1   0.649567 0.250069 0.799020 -0.166660
C18   C     C_1   0.350433 0.749931 0.200980 -0.166606
C19   C     C_1   0.350431 0.250071 0.200980 -0.166642
C20   C     C_1   0.649569 0.749929 0.799020 -0.166591
C21   C     C_1   0.149567 0.750069 0.799020 -0.166604
C22   C     C_1   0.850433 0.249931 0.200980 -0.166662
C23   C     C_1   0.850431 0.750071 0.200980 -0.166590
C24   C     C_R   0.348468 0.616783 0.496065 0.602676
C25   C     C_1   0.149569 0.249929 0.799020 -0.166649
C26   C     C_1   0.687020 0.250056 0.873941 -0.007300
C27   C     C_1   0.312980 0.749944 0.126059 -0.007254
C28   C     C_1   0.312978 0.250057 0.126058 -0.007279
C29   C     C_1   0.687022 0.749943 0.873942 -0.007232
C30   C     C_1   0.187020 0.750056 0.873941 -0.007253
C31   C     C_1   0.812979 0.249944 0.126059 -0.007301
C32   C     C_1   0.812978 0.750057 0.126058 -0.007231
C33   C     C_1   0.187022 0.249943 0.873942 -0.007283
C34   C     C_1   0.731287 0.250018 0.962540 0.004639
C35   C     C_R   0.847682 0.883267 0.494768 0.602850
C36   C     C_1   0.268713 0.749981 0.037460 0.004680
C37   C     C_1   0.268713 0.250019 0.037460 0.004645
C38   C     C_1   0.731287 0.749981 0.962540 0.004691
C39   C     C_1   0.231287 0.750018 0.962540 0.004680
C40   C     C_1   0.768713 0.249981 0.037460 0.004639
C41   C     C_1   0.768713 0.750019 0.037460 0.004691
C42   C     C_1   0.231287 0.249981 0.962540 0.004644
C43   C     C_1   0.499999 0.399526 0.499997 -0.062439
C44   C     C_1   0.500003 0.600474 0.500002 -0.062544
C45   C     C_1   0.999997 0.899526 0.499999 -0.062524
C46   C     C_R   0.153153 0.116684 0.506630 0.603080
C47   C     C_1   0.000002 0.100473 0.500001 -0.062538
C48   C     C_1   0.500001 0.436983 0.499999 0.025701
C49   C     C_1   0.500003 0.563017 0.500000 0.024941
C50   C     C_1   0.999998 0.936983 0.500000 0.024913
C51   C     C_1   1.000000 0.063017 0.500000 0.025749
C52   C     C_3   0.395242 0.444398 0.556047 -0.363315
C53   C     C_3   0.603592 0.555834 0.442017 -0.363061
C54   C     C_3   0.603082 0.444064 0.441192 -0.363084
C55   C     C_3   0.397646 0.556088 0.559980 -0.362905
C56   C     C_3   0.896391 0.944171 0.557958 -0.363060
C57   C     C_R   0.151485 0.883209 0.503866 0.602667
C58   C     C_3   0.104992 0.055538 0.444283 -0.363295
C59   C     C_3   0.102262 0.943883 0.439885 -0.362920
C60   C     C_3   0.896922 0.055936 0.558812 -0.363083
C61   C     C_R   0.848016 0.116752 0.495309 0.602803
C62   C     C_R   0.333951 0.346071 0.512557 -0.204916
C63   C     C_R   0.665513 0.654009 0.486565 -0.205058
C64   C     C_R   0.665278 0.345956 0.486197 -0.205077
C65   C     C_R   0.500000 0.854416 0.500000 0.802165
C66   C     C_R   0.335046 0.654096 0.514336 -0.205177
C67   C     C_R   0.834480 0.845993 0.513428 -0.205065
C68   C     C_R   0.166139 0.153903 0.487538 -0.205031
C69   C     C_R   0.164921 0.845893 0.485621 -0.205145
C70   C     C_R   0.834723 0.154044 0.513806 -0.205075
C71   C     C_R   0.277009 0.324433 0.454126 0.056011
C72   C     C_R   0.722624 0.675463 0.545170 0.055910
C73   C     C_R   0.722461 0.324578 0.544875 0.055876
C74   C     C_R   0.277762 0.675361 0.455549 0.055804
C75   C     C_R   0.777373 0.824535 0.454824 0.055910
C76   C     C_R   1.000000 0.645584 0.500000 0.802163
C77   C     C_R   0.223031 0.175584 0.545958 0.056002
C78   C     C_R   0.222221 0.824643 0.544417 0.055802
C79   C     C_R   0.777540 0.175422 0.455127 0.055873
C80   C     C_R   0.232887 0.340226 0.375695 -0.142734
C81   C     C_R   0.766717 0.659439 0.623403 -0.142721
C82   C     C_R   0.766538 0.340697 0.623024 -0.142711
C83   C     C_R   0.233714 0.659105 0.377517 -0.142686
C84   C     C_R   0.733282 0.840556 0.376587 -0.142714
C85   C     C_R   0.267122 0.159851 0.624446 -0.142623
C86   C     C_R   0.266273 0.840921 0.622429 -0.142715
C87   C     C_R   1.000000 0.354416 0.500000 0.802192
C88   C     C_R   0.733463 0.159302 0.376978 -0.142712
C89   C     C_R   0.246322 0.376669 0.355352 -0.206953
C90   C     C_R   0.753093 0.622949 0.643386 -0.206928
C91   C     C_R   0.752829 0.377206 0.642855 -0.206938
C92   C     C_R   0.247549 0.622572 0.357907 -0.206909
C93   C     C_R   0.746905 0.877045 0.356599 -0.206925
C94   C     C_R   0.253703 0.123423 0.644853 -0.206935
C95   C     C_R   0.252426 0.877458 0.642013 -0.206912
C96   C     C_R   0.747173 0.122793 0.357148 -0.206938
C97   C     C_R   0.303211 0.398001 0.413398 -0.222517
C98   C     C_1   0.500002 0.481273 0.500000 -0.045517
C99   C     C_R   0.696037 0.601802 0.585170 -0.222571
C100  C     C_R   0.695702 0.398276 0.584567 -0.222657
C101  C     C_R   0.304775 0.601614 0.416303 -0.222687
C102  C     C_R   0.803956 0.898195 0.414815 -0.222568
C103  C     C_R   0.196865 0.102047 0.586816 -0.222492
C104  C     C_R   0.195182 0.898399 0.583609 -0.222696
C105  C     C_R   0.804300 0.101723 0.415437 -0.222661
C106  C     C_R   0.209062 0.283572 0.473112 -0.249514
C107  C     C_R   0.790785 0.716367 0.526585 -0.249450
C108  C     C_R   0.790719 0.283657 0.526463 -0.249442
C109  C     C_1   0.500002 0.518727 0.500000 -0.045751
C110  C     C_R   0.209372 0.716307 0.473716 -0.249404
C111  C     C_R   0.709215 0.783632 0.473414 -0.249449
C112  C     C_R   0.290946 0.216432 0.526903 -0.249501
C113  C     C_R   0.290626 0.783694 0.526281 -0.249404
C114  C     C_R   0.709281 0.216343 0.473537 -0.249442
C115  C     C_R   0.195877 0.248646 0.498167 -0.074866
C116  C     C_R   0.804132 0.751351 0.501851 -0.074790
C117  C     C_R   0.804137 0.248651 0.501860 -0.074774
C118  C     C_R   0.195859 0.751345 0.498132 -0.074722
C119  C     C_R   0.695868 0.748649 0.498148 -0.074792
C120  C     C_1   0.999998 0.981273 0.500000 -0.045770
C121  C     C_R   0.304128 0.251357 0.501844 -0.074884
C122  C     C_R   0.304139 0.748655 0.501866 -0.074716
C123  C     C_R   0.695863 0.251348 0.498139 -0.074772
C124  C     C_R   0.236892 0.214448 0.524516 0.033738
C125  C     C_R   0.763286 0.785613 0.475831 0.033874
C126  C     C_R   0.763360 0.214365 0.475966 0.033925
C127  C     C_R   0.236538 0.785668 0.523835 0.033995
C128  C     C_R   0.736713 0.714387 0.524167 0.033877
C129  C     C_R   0.263122 0.285559 0.475511 0.033790
C130  C     C_R   0.263458 0.714334 0.476156 0.033978
C131  C     C_1   0.999998 0.018727 0.499999 -0.045484
C132  C     C_R   0.736640 0.285635 0.524034 0.033924
C133  C     C_R   0.499999 0.354469 0.499998 0.836064
C134  C     C_R   0.500001 0.645531 0.500001 0.836569
C135  C     C_R   0.999999 0.854469 0.499999 0.836598
C136  C     C_R   0.000001 0.145531 0.500001 0.835984
C137  C     C_1   0.500000 0.100509 0.499999 -0.169291
C138  C     C_1   0.500000 0.899491 0.500001 -0.169286
C139  C     C_1   0.000000 0.600509 0.499999 -0.169287
C140  C     C_1   1.000000 0.399491 0.500001 -0.169293
C141  C     C_1   0.500000 0.063040 0.500000 -0.009457
C142  C     C_R   0.346957 0.383304 0.493531 0.603051
C143  C     C_1   0.500000 0.936960 0.500000 -0.009462
C144  C     C_1   0.000000 0.563040 0.499999 -0.009463
C145  C     C_1   1.000000 0.436960 0.500000 -0.009459
C146  C     C_1   0.500000 0.018734 0.500000 0.002781
C147  C     C_1   0.500000 0.981266 0.500000 0.002780
C148  C     C_1   0.000000 0.518734 0.500000 0.002779
C149  C     C_1   1.000000 0.481266 0.500000 0.002780
C150  C     C_R   0.640642 0.250651 0.498980 0.824370
C151  C     C_R   0.359357 0.749351 0.501018 0.824349
C152  C     C_R   0.359357 0.250657 0.501021 0.824392
H1    H     H_    0.313077 0.425616 0.395352 0.135504
H2    H     H_    0.631393 0.666127 0.425870 0.130954
H3    H     H_    0.631169 0.333766 0.425564 0.130940
H4    H     H_    0.369133 0.666391 0.574880 0.130945
H5    H     H_    0.868599 0.833878 0.574126 0.130958
H6    H     H_    0.132022 0.165802 0.426655 0.131030
H7    H     H_    0.130830 0.833583 0.425092 0.130929
H8    H     H_    0.868832 0.166235 0.574438 0.130941
H9    H     H_    0.188661 0.323971 0.330047 0.143405
H10   H     H_    0.811070 0.675548 0.669182 0.143436
H11   H     H_    0.810947 0.324647 0.668859 0.143432
H12   H     H_    0.686030 0.574143 0.602943 0.135465
H13   H     H_    0.189231 0.675067 0.331600 0.143450
H14   H     H_    0.688931 0.824444 0.330809 0.143435
H15   H     H_    0.311306 0.176142 0.670087 0.143388
H16   H     H_    0.310769 0.824972 0.668353 0.143452
H17   H     H_    0.689054 0.175351 0.331143 0.143431
H18   H     H_    0.212735 0.388302 0.294256 0.157268
H19   H     H_    0.786664 0.611136 0.704338 0.157254
H20   H     H_    0.786390 0.389091 0.703746 0.157227
H21   H     H_    0.214009 0.610579 0.297103 0.157215
H22   H     H_    0.713335 0.888854 0.295645 0.157254
H23   H     H_    0.685630 0.425951 0.602224 0.135408
H24   H     H_    0.287262 0.111837 0.705991 0.157259
H25   H     H_    0.285971 0.889467 0.702803 0.157216
H26   H     H_    0.713612 0.110907 0.296258 0.157227
H27   H     H_    0.178269 0.310036 0.454111 0.164187
H28   H     H_    0.821453 0.689859 0.545331 0.164039
H29   H     H_    0.821334 0.310182 0.545108 0.163972
H30   H     H_    0.178831 0.689756 0.455220 0.163884
H31   H     H_    0.678547 0.810141 0.454668 0.164040
H32   H     H_    0.321741 0.189969 0.545910 0.164206
H33   H     H_    0.321166 0.810245 0.544774 0.163878
H34   H     H_    0.314941 0.573917 0.398814 0.135364
H35   H     H_    0.678666 0.189818 0.454892 0.163972
H36   H     H_    0.351759 0.450491 0.552030 0.158232
H37   H     H_    0.391917 0.460947 0.507919 0.166297
H38   H     H_    0.438076 0.456549 0.614952 0.202180
H39   H     H_    0.606896 0.539142 0.490000 0.166255
H40   H     H_    0.646984 0.549724 0.445845 0.158194
H41   H     H_    0.560637 0.543865 0.383002 0.202320
H42   H     H_    0.646429 0.450175 0.444926 0.158220
H43   H     H_    0.606385 0.460821 0.489117 0.166191
H44   H     H_    0.560071 0.455957 0.382134 0.202401
H45   H     H_    0.813962 0.925853 0.397038 0.135465
H46   H     H_    0.394368 0.539250 0.512148 0.166184
H47   H     H_    0.354352 0.549958 0.556351 0.158183
H48   H     H_    0.440730 0.544306 0.619105 0.202527
H49   H     H_    0.852995 0.950282 0.554118 0.158193
H50   H     H_    0.893093 0.960859 0.509974 0.166259
H51   H     H_    0.939342 0.956144 0.616972 0.202317
H52   H     H_    0.108262 0.039033 0.492412 0.166310
H53   H     H_    0.148534 0.049439 0.448430 0.158215
H54   H     H_    0.062218 0.043341 0.385383 0.202144
H55   H     H_    0.145539 0.950011 0.443477 0.158187
H56   H     H_    0.187009 0.074445 0.604908 0.135506
H57   H     H_    0.105552 0.960738 0.487711 0.166182
H58   H     H_    0.059161 0.955647 0.380755 0.202553
H59   H     H_    0.893622 0.039181 0.510888 0.166191
H60   H     H_    0.853573 0.049824 0.555074 0.158218
H61   H     H_    0.939932 0.044043 0.617871 0.202400
H62   H     H_    0.185007 0.926100 0.601078 0.135358
H63   H     H_    0.814372 0.074048 0.397781 0.135408
H64   H     H_    0.368092 0.334130 0.573400 0.130964
O1    O     O_3   0.500000 0.250010 0.500000 -0.441288
O2    O     O_R   0.008350 0.334000 0.455930 -0.626205
O3    O     O_R   0.008350 0.666000 0.455930 -0.626241
O4    O     O_R   0.991650 0.334000 0.544070 -0.626231
O5    O     O_R   0.552380 0.334020 0.544040 -0.626110
O6    O     O_R   0.447620 0.665980 0.455960 -0.626106
O7    O     O_R   0.447620 0.334020 0.455960 -0.625870
O8    O     O_R   0.552380 0.665980 0.544040 -0.625934
O9    O     O_R   0.052380 0.834020 0.544040 -0.626109
O10   O     O_R   0.947620 0.165980 0.455960 -0.626102
O11   O     O_R   0.947620 0.834020 0.455960 -0.625934
O12   O     O_3   0.500000 0.749990 0.500000 -0.441322
O13   O     O_R   0.052380 0.165980 0.544040 -0.625867
O14   O     O_R   0.593780 0.227990 0.455960 -0.644184
O15   O     O_R   0.406220 0.772010 0.544040 -0.644170
O16   O     O_R   0.406220 0.227990 0.544040 -0.644219
O17   O     O_R   0.593780 0.772010 0.455960 -0.644192
O18   O     O_R   0.093780 0.727990 0.455960 -0.644170
O19   O     O_R   0.906220 0.272010 0.544040 -0.644184
O20   O     O_R   0.906220 0.727990 0.544040 -0.644193
O21   O     O_R   0.093780 0.272010 0.455960 -0.644219
O22   O     O_R   0.362170 0.272040 0.455960 -0.629424
O23   O     O_3   0.000000 0.750010 0.500000 -0.441322
O24   O     O_R   0.637830 0.727960 0.544040 -0.629391
O25   O     O_R   0.637830 0.272040 0.544040 -0.629328
O26   O     O_R   0.362170 0.727960 0.455960 -0.629317
O27   O     O_R   0.862170 0.772040 0.455960 -0.629392
O28   O     O_R   0.137830 0.227960 0.544040 -0.629425
O29   O     O_R   0.137830 0.772040 0.544040 -0.629315
O30   O     O_R   0.862170 0.227960 0.455960 -0.629324
O31   O     O_R   0.446360 0.228000 0.332000 -0.625931
O32   O     O_R   0.553640 0.772000 0.668000 -0.625928
O33   O     O_R   0.553640 0.228000 0.668000 -0.625945
O34   O     O_3   0.000000 0.249990 0.500000 -0.441284
O35   O     O_R   0.446360 0.772000 0.332000 -0.625940
O36   O     O_R   0.946360 0.728000 0.332000 -0.625928
O37   O     O_R   0.053640 0.272000 0.668000 -0.625928
O38   O     O_R   0.053640 0.728000 0.668000 -0.625941
O39   O     O_R   0.946360 0.272000 0.332000 -0.625942
O40   O     O_R   0.385640 0.272040 0.331990 -0.623913
O41   O     O_R   0.614360 0.727960 0.668010 -0.623914
O42   O     O_R   0.614360 0.272040 0.668010 -0.623965
O43   O     O_R   0.385640 0.727960 0.331990 -0.623953
O44   O     O_R   0.885640 0.772040 0.331990 -0.623911
O45   O     O_R   0.491650 0.166000 0.544070 -0.626203
O46   O     O_R   0.114360 0.227960 0.668010 -0.623913
O47   O     O_R   0.114360 0.772040 0.668010 -0.623954
O48   O     O_R   0.885640 0.227960 0.331990 -0.623969
O49   O     O_3   0.404990 0.402595 0.553268 -0.621907
O50   O     O_3   0.594126 0.597629 0.445338 -0.621987
O51   O     O_3   0.593736 0.402274 0.444753 -0.622044
O52   O     O_3   0.406811 0.597873 0.556098 -0.622081
O53   O     O_3   0.905862 0.902375 0.554651 -0.621985
O54   O     O_3   0.095170 0.097346 0.446894 -0.621856
O55   O     O_3   0.093125 0.902100 0.443828 -0.622095
O56   O     O_R   0.508350 0.834000 0.455930 -0.626221
O57   O     O_3   0.906265 0.097726 0.555252 -0.622037
O58   O     O_R   0.508350 0.166000 0.455930 -0.626231
O59   O     O_R   0.491650 0.834000 0.544070 -0.626241
O60   O     O_R   0.991650 0.666000 0.544070 -0.626221
Zn1   Zn    Zn3+2 0.574840 0.281480 0.562930 1.000233
Zn2   Zn    Zn3+2 0.488090 0.781450 0.562930 0.982128
Zn3   Zn    Zn3+2 0.488090 0.218550 0.562930 0.982017
Zn4   Zn    Zn3+2 0.511910 0.781450 0.437070 0.982055
Zn5   Zn    Zn3+2 0.011910 0.718550 0.437070 0.982131
Zn6   Zn    Zn3+2 0.988090 0.281450 0.562930 0.982111
Zn7   Zn    Zn3+2 0.988090 0.718550 0.562930 0.982052
Zn8   Zn    Zn3+2 0.011910 0.281450 0.437070 0.982010
Zn9   Zn    Zn3+2 0.425160 0.718520 0.437070 1.000361
Zn10  Zn    Zn3+2 0.425160 0.281480 0.437070 1.000335
Zn11  Zn    Zn3+2 0.574840 0.718520 0.562930 1.000441
Zn12  Zn    Zn3+2 0.074840 0.781480 0.562930 1.000367
Zn13  Zn    Zn3+2 0.925160 0.218520 0.437070 1.000222
Zn14  Zn    Zn3+2 0.925160 0.781480 0.437070 1.000446
Zn15  Zn    Zn3+2 0.074840 0.218520 0.562930 1.000317
Zn16  Zn    Zn3+2 0.511910 0.218550 0.437070 0.982108

loop_
_geom_bond_atom_site_label_1
_geom_bond_atom_site_label_2
_ccdc_geom_bond_type
C61   C70   A    
C44   C49   T    
C106  C129  A    
C96   C105  A    
C88   C96   A    
O30   Zn13  S    
C54   H42   S    
O24   Zn11  S    
C9    O41   A    
C123  C132  A    
C65   O59   A    
O11   Zn14  S    
C53   H41   S    
C81   H10   S    
C90   C99   A    
O5    Zn1   S    
O12   Zn11  S    
C142  O49   S    
C5    O30   A    
C144  C148  S    
C35   C102  A    
C110  C118  A    
C43   C133  S    
C72   C81   A    
O1    Zn10  S    
C112  H32   S    
C56   H51   S    
O12   Zn4   S    
C143  C147  S    
C83   C92   A    
O23   Zn5   S    
C64   H3    S    
O34   Zn13  S    
C135  O11   A    
C91   H20   S    
C72   C128  S    
C50   C120  S    
C17   C26   T    
C28   C37   S    
O16   Zn3   S    
C62   C142  A    
C107  C128  A    
C112  C124  A    
O6    Zn9   S    
C138  C143  T    
C141  C146  S    
C107  H28   S    
C16   O39   A    
C75   C84   A    
C11   C18   S    
C55   H46   S    
C56   H50   S    
C82   H11   S    
C58   H54   S    
C76   O3    A    
O2    Zn8   S    
C53   O50   S    
C120  C131  T    
C57   O55   S    
C93   H22   S    
O41   Zn11  S    
O10   Zn13  S    
C78   C127  S    
C31   C40   S    
C76   O60   A    
C111  C119  A    
C24   C101  A    
C139  C144  T    
C87   O2    A    
C7    C115  S    
C37   C42   T    
O43   Zn9   S    
C9    O32   A    
O35   Zn4   S    
C79   C88   A    
C145  C149  S    
C137  C141  T    
O28   Zn15  S    
C133  O7    A    
O12   Zn9   S    
C95   H25   S    
C150  O25   A    
C55   H47   S    
C113  C122  A    
C7    O21   A    
C8    O31   A    
C134  O6    A    
C90   H19   S    
C111  C125  A    
C133  O5    A    
C64   C73   A    
C10   O42   A    
O47   Zn12  S    
C97   H1    S    
C91   C100  A    
C61   C105  A    
C43   C48   T    
C87   C140  S    
O1    Zn16  S    
O32   Zn2   S    
C105  H63   S    
O22   Zn10  S    
C59   H58   S    
C24   C66   A    
C3    O24   A    
C52   H37   S    
C119  C128  A    
C78   C86   A    
O27   Zn14  S    
O1    Zn1   S    
C52   O49   S    
C80   C89   A    
C123  C150  S    
C58   H52   S    
O56   Zn4   S    
C98   C109  T    
C108  C132  A    
C24   O52   S    
O29   Zn12  S    
C23   C32   T    
O34   Zn6   S    
C4    C118  S    
C69   C78   A    
O20   Zn7   S    
C33   C42   S    
C35   O53   S    
C68   H6    S    
C56   O53   S    
C13   O51   S    
C71   C80   A    
C53   H40   S    
C26   C34   S    
O44   Zn14  S    
C20   C29   T    
C36   C39   T    
C44   C134  S    
C97   C142  A    
C151  O15   A    
C45   C135  S    
C8    C19   S    
C54   H44   S    
C60   O57   S    
C55   O52   S    
C59   O55   S    
O19   Zn6   S    
C74   C83   A    
O25   Zn1   S    
O13   Zn15  S    
C29   C38   S    
C86   H16   S    
C148  C149  T    
C65   O56   A    
C38   C41   T    
O14   Zn16  S    
C22   C31   T    
C102  H45   S    
O46   Zn15  S    
C12   C23   S    
C51   C131  S    
C47   C51   T    
C56   H49   S    
C58   H53   S    
O12   Zn2   S    
O23   Zn7   S    
C8    O40   A    
C11   O35   A    
O34   Zn15  S    
O33   Zn3   S    
C89   C97   A    
C75   C125  S    
C11   O43   A    
O31   Zn16  S    
C60   H61   S    
O9    Zn12  S    
O26   Zn9   S    
C46   C68   A    
O37   Zn6   S    
C71   C129  S    
O7    Zn10  S    
C83   H13   S    
C85   C94   A    
C6    C116  S    
C9    C20   S    
C55   H48   S    
O45   Zn3   S    
C35   C67   A    
C32   C41   S    
O18   Zn5   S    
C113  H33   S    
O59   Zn2   S    
C100  H23   S    
C111  H31   S    
O40   Zn10  S    
C21   C30   T    
C67   H5    S    
C52   H38   S    
C87   O4    A    
C103  H56   S    
O34   Zn8   S    
C19   C28   T    
C53   H39   S    
O23   Zn14  S    
C1    O58   A    
C30   C39   S    
C3    C119  S    
C92   C101  A    
C1    O45   A    
C114  C123  A    
C108  H29   S    
C79   C126  S    
C65   C138  S    
C2    C99   A    
O3    Zn5   S    
C134  O8    A    
C116  C125  A    
C74   C130  S    
O1    Zn3   S    
C52   H36   S    
C92   H21   S    
C34   C40   T    
C6    O27   A    
C67   C75   A    
C118  C127  A    
C81   C90   A    
C85   H15   S    
C101  H34   S    
C73   C82   A    
C115  C124  A    
C1    C137  S    
C95   C104  A    
O21   Zn8   S    
C89   H18   S    
C49   C109  S    
C146  C147  T    
C136  O13   A    
C76   C139  S    
C59   H55   S    
C68   C77   A    
O17   Zn4   S    
C57   C104  A    
C136  O10   A    
C2    C63   A    
C7    O28   A    
C16   C22   S    
C54   H43   S    
C135  O9    A    
O15   Zn2   S    
C6    O20   A    
C70   C79   A    
C93   C102  A    
C4    O18   A    
C108  C117  A    
C60   H60   S    
C18   C27   T    
C88   H17   S    
C63   H2    S    
C121  C129  A    
C150  O14   A    
C140  C145  T    
C94   C103  A    
C113  C127  A    
O60   Zn7   S    
C14   O46   A    
C2    O50   S    
C48   C98   S    
C46   C103  A    
C58   O54   S    
C54   O51   S    
C12   O36   A    
C121  C152  S    
C13   C64   A    
C106  C115  A    
C27   C36   S    
C96   H26   S    
C122  C151  S    
C10   O33   A    
C13   C100  A    
C104  H62   S    
C112  C121  A    
C77   C124  S    
O36   Zn5   S    
O38   Zn7   S    
C151  O26   A    
C66   H4    S    
C47   C136  S    
C106  H27   S    
C14   O37   A    
C45   C50   T    
C77   C85   A    
C114  C126  A    
O39   Zn8   S    
C62   H64   S    
C69   H7    S    
C62   C71   A    
C110  C130  A    
C70   H8    S    
C84   C93   A    
C14   C25   S    
C60   H59   S    
C12   O44   A    
C80   H9    S    
C73   C132  S    
C84   H14   S    
C86   C95   A    
C82   C91   A    
O42   Zn1   S    
C15   O47   A    
C99   H12   S    
C16   O48   A    
C59   H57   S    
C107  C116  A    
C15   C21   S    
O8    Zn11  S    
C152  O22   A    
C63   C72   A    
C110  H30   S    
C46   O54   S    
C25   C33   T    
C5    O19   A    
C5    C117  S    
C114  H35   S    
C61   O57   S    
C117  C126  A    
O4    Zn6   S    
C10   C17   S    
O23   Zn12  S    
C57   C69   A    
O58   Zn16  S    
C122  C130  A    
C3    O17   A    
O48   Zn13  S    
C94   H24   S    
C4    O29   A    
C152  O16   A    
C15   O38   A    
C66   C74   A    
