data_mof_unit_pretest_369.cif
_audit_creation_date              2012-12-10T18:19:59-0500
_audit_creation_method            fapswitch 2.2
_symmetry_space_group_name_H-M    P1
_symmetry_Int_Tables_number       1
_space_group_crystal_system       triclinic
_cell_length_a                    10.634362
_cell_length_b                    10.632758
_cell_length_c                    9.423412
_cell_angle_alpha                 90.100498
_cell_angle_beta                  90.445101
_cell_angle_gamma                 90.100347
_cell_volume                      1065.49422278

loop_
_atom_site_label
_atom_site_type_symbol
_atom_type_description
_atom_site_fract_x
_atom_site_fract_y
_atom_site_fract_z
_atom_type_partial_charge
C1    C     C_R   0.501213 0.259625 0.499864 0.844181
C2    C     C_3   0.388723 0.476841 0.049339 -0.031157
C3    C     C_R   0.259660 0.500023 0.499464 0.835989
C4    C     C_R   0.740340 0.499977 0.500536 0.835989
C5    C     C_3   0.042627 0.390715 0.556769 -0.258694
C6    C     C_3   0.957373 0.609285 0.443231 -0.258694
C7    C     C_3   0.958125 0.404869 0.424741 0.210819
C8    C     C_3   0.041875 0.595131 0.575259 0.210819
C9    C     C_3   0.876843 0.500650 0.501666 -0.021022
C10   C     C_3   0.123157 0.499350 0.498334 -0.021022
C11   C     C_3   0.960282 0.489012 0.635808 -0.166032
C12   C     C_R   0.498787 0.740375 0.500136 0.844181
C13   C     C_3   0.039718 0.510988 0.364192 -0.166032
C14   C     C_3   0.602851 0.039456 0.567669 0.052440
C15   C     C_3   0.397149 0.960544 0.432331 0.052440
C16   C     C_3   0.602968 0.956255 0.433571 -0.248982
C17   C     C_3   0.397032 0.043745 0.566429 -0.248982
C18   C     C_3   0.497871 0.877011 0.500196 -0.046706
C19   C     C_3   0.502129 0.122989 0.499804 -0.046706
C20   C     C_2   0.720026 0.080126 0.644632 0.794254
C21   C     C_2   0.279974 0.919874 0.355368 0.794255
C22   C     C_3   0.499017 0.958600 0.635236 -0.201032
C23   C     C_3   0.500983 0.041399 0.364764 -0.201032
C24   C     C_3   0.535683 0.607917 0.050992 -0.035361
C25   C     C_3   0.464317 0.392083 0.949008 -0.035361
C26   C     C_3   0.424510 0.584717 0.948828 -0.027468
C27   C     C_3   0.575490 0.415283 0.051172 -0.027468
C28   C     C_3   0.611277 0.523159 0.950661 -0.031157
Cu1   Cu    Cu3+1 0.500030 0.499990 0.643150 0.965289
Cu2   Cu    Cu3+1 0.499970 0.500010 0.356850 0.965288
H1    H     H_    0.079051 0.300716 0.600098 0.147202
H2    H     H_    0.639035 0.344031 0.099121 0.134180
H3    H     H_    0.565980 0.698856 0.098272 0.126349
H4    H     H_    0.434020 0.301144 0.901728 0.126349
H5    H     H_    0.705128 0.542886 0.904918 0.123377
H6    H     H_    0.294872 0.457113 0.095082 0.123377
H7    H     H_    0.985492 0.248831 0.304750 0.236380
H8    H     H_    0.858246 0.242301 0.408486 0.234574
H9    H     H_    0.014508 0.751169 0.695251 0.236380
H10   H     H_    0.141754 0.757699 0.591514 0.234574
H11   H     H_    0.828046 0.222877 0.716999 0.325617
H12   H     H_    0.920949 0.699284 0.399902 0.147202
H13   H     H_    0.171954 0.777123 0.283001 0.325617
H14   H     H_    0.926407 0.482641 0.746718 0.146805
H15   H     H_    0.073593 0.517358 0.253282 0.146805
H16   H     H_    0.687392 0.918145 0.379950 0.147907
H17   H     H_    0.312607 0.081854 0.620050 0.147907
H18   H     H_    0.498657 0.923054 0.745972 0.155838
H19   H     H_    0.501343 0.076946 0.254028 0.155838
H20   H     H_    0.360965 0.655968 0.900879 0.134180
N1    N     N_3   0.500090 0.499970 0.858290 -0.161492
N2    N     N_3   0.499910 0.500030 0.141710 -0.161492
N3    N     N_3   0.908625 0.300811 0.340435 -0.584538
N4    N     N_3   0.091375 0.699188 0.659565 -0.584539
O1    O     O_R   0.500060 0.316850 0.620870 -0.563283
O2    O     O_R   0.746084 0.207823 0.663951 -0.778667
O3    O     O_2   0.207547 0.999411 0.309542 -0.608682
O4    O     O_R   0.253916 0.792177 0.336049 -0.778666
O5    O     O_R   0.499940 0.683150 0.379130 -0.563283
O6    O     O_R   0.500000 0.316860 0.379090 -0.593266
O7    O     O_R   0.500000 0.683140 0.620910 -0.593266
O8    O     O_R   0.316880 0.499960 0.620870 -0.578591
O9    O     O_R   0.683120 0.500040 0.379130 -0.578592
O10   O     O_R   0.316830 0.499970 0.379090 -0.576228
O11   O     O_R   0.683170 0.500030 0.620910 -0.576228
O12   O     O_2   0.792453 0.000589 0.690458 -0.608682

loop_
_geom_bond_atom_site_label_1
_geom_bond_atom_site_label_2
_ccdc_geom_bond_type
C24   N2    S    
C15   C18   S    
C22   H18   S    
Cu2   O10   S    
C17   H17   S    
C20   O2    S    
C6    C9    S    
C3    O10   A    
C4    O9    A    
C20   O12   D    
C24   C26   S    
C5    C11   S    
C26   H20   S    
C4    O11   A    
C28   N1    S    
C23   H19   S    
H9    N4    S    
C7    C9    S    
H13   O4    S    
C12   O5    A    
C28   H5    S    
Cu2   O6    S    
C17   C22   S    
C25   H4    S    
H7    N3    S    
C15   C23   S    
Cu2   O9    S    
C5    C10   S    
Cu1   O7    S    
C1    C19   S    
C14   C20   S    
C1    O6    A    
C16   H16   S    
C5    C7    S    
C6    C8    S    
Cu1   O1    S    
C19   C23   S    
C25   N1    S    
H11   O2    S    
C21   O3    D    
Cu1   Cu2   S    
C7    C13   S    
Cu2   O5    S    
C11   H14   S    
C2    C26   S    
C9    C11   S    
C2    N2    S    
Cu1   O11   S    
C8    C10   S    
C16   C23   S    
H10   N4    S    
C14   C16   S    
C7    N3    S    
C8    N4    S    
C27   N2    S    
Cu1   N1    S    
C3    O8    A    
C2    H6    S    
C15   C17   S    
Cu2   N2    S    
Cu1   O8    S    
C27   H2    S    
C18   C22   S    
C14   C19   S    
C24   C28   S    
C10   C13   S    
C25   C27   S    
C24   H3    S    
C14   C22   S    
C1    O1    A    
C21   O4    S    
C3    C10   S    
C26   N1    S    
C6    C13   S    
C13   H15   S    
C12   O7    A    
H8    N3    S    
C8    C11   S    
C17   C19   S    
C2    C25   S    
C15   C21   S    
C16   C18   S    
C6    H12   S    
C12   C18   S    
C27   C28   S    
C4    C9    S    
C5    H1    S    
