data_mof_unit_pretest_306.cif
_audit_creation_date              2012-12-11T17:41:43-0500
_audit_creation_method            fapswitch 2.2
_symmetry_space_group_name_H-M    P1
_symmetry_Int_Tables_number       1
_space_group_crystal_system       triclinic
_cell_length_a                    15.525185
_cell_length_b                    14.985758
_cell_length_c                    15.154339
_cell_angle_alpha                 109.741535
_cell_angle_beta                  121.422729
_cell_angle_gamma                 58.943517
_cell_volume                      2565.96933138

loop_
_atom_site_label
_atom_site_type_symbol
_atom_type_description
_atom_site_fract_x
_atom_site_fract_y
_atom_site_fract_z
_atom_type_partial_charge
C1    C     C_R   0.801949 0.940549 0.773708 -0.136481
C2    C     C_R   0.259477 0.427776 0.115709 -0.117900
C3    C     C_R   0.660835 0.789522 0.910449 -0.124434
C4    C     C_R   0.349366 0.333258 0.110998 -0.128240
C5    C     C_R   0.687950 0.869441 0.983511 0.071065
C6    C     C_R   0.332987 0.242072 0.060464 0.118333
C7    C     C_R   0.799411 0.855748 0.036129 -0.124286
C8    C     C_R   0.225132 0.247275 0.013041 -0.189096
C9    C     C_R   0.881686 0.765129 0.012888 -0.052930
C10   C     C_R   0.136084 0.341242 0.020678 -0.103307
C11   C     C_R   0.853586 0.687154 0.938198 -0.158663
C12   C     C_R   0.236660 0.014785 0.209812 -0.121077
C13   C     C_R   0.153287 0.431515 0.072129 -0.117861
C14   C     C_R   0.600227 0.990046 0.097612 -0.250763
C15   C     C_R   0.425931 0.128014 0.947749 -0.232174
C16   C     C_R   0.239783 0.290234 0.487099 -0.123953
C17   C     C_R   0.801260 0.726175 0.559888 -0.114813
C18   C     C_R   0.510669 0.073553 0.116560 0.054739
C19   C     C_R   0.510415 0.039025 0.926670 0.072300
C20   C     C_R   0.424376 0.146257 0.042737 0.013720
C21   C     C_R   0.599515 0.969312 0.002419 0.024470
C22   C     C_2   0.140100 0.397583 0.603568 -0.208493
C23   C     C_R   0.202980 0.300093 0.557483 0.140854
C24   C     C_2   0.980343 0.655620 0.542424 -0.223121
C25   C     C_2   0.131064 0.488888 0.596877 -0.119575
C26   C     C_2   0.039279 0.584109 0.609802 -0.095448
C27   C     C_2   0.979229 0.962689 0.846985 -0.220066
C28   C     C_2   0.133007 0.900793 0.101393 -0.214576
C29   C     C_R   0.199618 0.751533 0.536789 -0.160487
C30   C     C_R   0.780830 0.126540 0.323933 -0.200814
C31   C     C_R   0.297020 0.683853 0.523267 -0.150460
C32   C     C_R   0.685722 0.215566 0.326262 -0.137524
C33   C     C_R   0.291022 0.640819 0.423204 0.049441
C34   C     C_R   0.864384 0.727594 0.521535 0.142721
C35   C     C_R   0.693875 0.291979 0.411571 0.077512
C36   C     C_R   0.185769 0.664094 0.337664 -0.329626
C37   C     C_R   0.799155 0.277107 0.495032 -0.360628
C38   C     C_R   0.088218 0.726416 0.351789 0.616785
C39   C     C_R   0.894223 0.185602 0.494279 0.616762
C40   C     C_R   0.592371 0.214331 0.484048 -0.129331
C41   C     C_R   0.406078 0.769676 0.466646 -0.129443
C42   C     C_R   0.095432 0.772854 0.451490 -0.295096
C43   C     C_R   0.884800 0.111646 0.407529 -0.232485
C44   C     C_R   0.394002 0.464704 0.365874 -0.246879
C45   C     C_R   0.500108 0.292220 0.421821 0.078231
C46   C     C_R   0.589050 0.484685 0.443378 -0.240694
C47   C     C_R   0.494923 0.376113 0.388286 0.038144
C48   C     C_R   0.493142 0.572508 0.448887 0.055924
C49   C     C_R   0.591691 0.384818 0.414539 0.061005
C50   C     C_R   0.393183 0.561723 0.408692 0.063450
C51   C     C_2   0.038758 0.892006 0.915523 -0.107320
C52   C     C_2   0.128823 0.905202 0.012478 -0.112932
C53   C     C_R   0.409426 0.033945 0.732565 -0.156193
C54   C     C_R   0.594023 0.014438 0.288464 -0.133557
C55   C     C_R   0.408381 0.283797 0.405262 -0.132081
C56   C     C_R   0.497179 0.674058 0.487009 0.052081
C57   C     C_R   0.591831 0.693467 0.541306 -0.134252
C58   C     C_R   0.594833 0.972846 0.804628 -0.109875
C59   C     C_R   0.409535 0.085634 0.210117 -0.136325
C60   C     C_R   0.233286 0.200423 0.574192 -0.121211
C61   C     C_R   0.802183 0.816552 0.469690 -0.153868
C62   C     C_R   0.801398 0.033924 0.685445 -0.143178
C63   C     C_R   0.228202 0.928366 0.298222 -0.142389
C64   C     C_R   0.864031 0.981422 0.773576 0.153815
C65   C     C_R   0.197298 0.945691 0.199337 0.148045
C66   C     C_3   0.945310 0.679215 0.276153 0.228226
C67   C     C_R   0.504216 0.020635 0.825430 0.051201
C68   C     C_3   0.855548 0.662444 0.171557 -0.855972
C69   C     C_3   0.004483 0.134203 0.657248 0.254794
C70   C     C_3   0.124081 0.095803 0.740179 -0.929627
C71   C     C_R   0.503390 0.066125 0.204210 0.065091
C72   C     C_R   0.743458 0.698984 0.887624 -0.110532
H1    H     H_    0.830303 0.884159 0.822991 0.090824
H2    H     H_    0.430552 0.332190 0.143250 0.108254
H3    H     H_    0.821857 0.916309 0.093055 0.118720
H4    H     H_    0.210460 0.178371 0.970880 0.115614
H5    H     H_    0.967154 0.755453 0.052582 0.109535
H6    H     H_    0.053492 0.344429 0.985360 0.108137
H7    H     H_    0.666268 0.932691 0.152876 0.135835
H8    H     H_    0.360204 0.182593 0.889413 0.134495
H9    H     H_    0.007848 0.584961 0.659519 0.123483
H10   H     H_    0.176902 0.492377 0.564123 0.133590
H11   H     H_    0.013466 0.653126 0.493395 0.120422
H12   H     H_    0.222978 0.049768 0.149408 0.088864
H13   H     H_    0.092894 0.395140 0.635547 0.142768
H14   H     H_    0.020503 0.823436 0.463063 0.123899
H15   H     H_    0.957995 0.041835 0.405752 0.143370
H16   H     H_    0.227446 0.351645 0.453903 0.092623
H17   H     H_    0.828438 0.675515 0.614362 0.080158
H18   H     H_    0.204819 0.785760 0.613796 0.141287
H19   H     H_    0.773804 0.068520 0.257607 0.147522
H20   H     H_    0.376990 0.665005 0.590503 0.123225
H21   H     H_    0.605745 0.224820 0.261532 0.119525
H22   H     H_    0.179232 0.629846 0.260293 0.136191
H23   H     H_    0.082403 0.870747 0.101283 0.128475
H24   H     H_    0.807096 0.334470 0.561974 0.134462
H25   H     H_    0.316972 0.458340 0.335117 0.134012
H26   H     H_    0.662689 0.492995 0.463730 0.133445
H27   H     H_    0.678925 0.191075 0.506665 0.103133
H28   H     H_    0.319998 0.786759 0.430176 0.119227
H29   H     H_    0.325950 0.060664 0.722200 0.110813
H30   H     H_    0.680368 0.996400 0.314793 0.101455
H31   H     H_    0.323387 0.320222 0.348882 0.093868
H32   H     H_    0.678050 0.637877 0.573409 0.091894
H33   H     H_    0.681055 0.952382 0.858066 0.112673
H34   H     H_    0.010248 0.016179 0.853235 0.126416
H35   H     H_    0.323871 0.130785 0.161495 0.104159
H36   H     H_    0.209794 0.181906 0.618924 0.132692
H37   H     H_    0.832252 0.849203 0.443770 0.087918
H38   H     H_    0.830586 0.063224 0.655049 0.077608
H39   H     H_    0.199021 0.887660 0.315198 0.099336
H40   H     H_    0.178172 0.935893 0.011482 0.129145
H41   H     H_    0.008831 0.838497 0.910877 0.125303
H42   H     H_    0.907258 0.721798 0.331491 0.097945
H43   H     H_    0.011612 0.600321 0.302143 0.082208
H44   H     H_    0.891048 0.618575 0.114212 0.254684
H45   H     H_    0.917267 0.617242 0.920023 0.108230
H46   H     H_    0.822550 0.616388 0.179203 0.207069
H47   H     H_    0.785970 0.738818 0.143940 0.259032
H48   H     H_    0.980025 0.067841 0.628068 0.077678
H49   H     H_    0.950297 0.199569 0.693626 0.090556
H50   H     H_    0.152503 0.159179 0.770498 0.255410
H51   H     H_    0.129657 0.071431 0.805191 0.206072
H52   H     H_    0.179138 0.027497 0.706777 0.252998
H53   H     H_    0.084178 0.504611 0.076980 0.109978
H54   H     H_    0.721964 0.638311 0.830167 0.110164
H55   H     H_    0.272071 0.498388 0.152322 0.116954
H56   H     H_    0.575496 0.798581 0.869671 0.113792
N1    N     N_R   0.705410 0.966550 0.689210 -0.045207
N2    N     N_R   0.556610 0.796750 0.548620 -0.039566
N3    N     N_R   0.556610 0.951620 0.703500 -0.042842
N4    N     N_R   0.443390 0.048380 0.296500 -0.040129
N5    N     N_R   0.294590 0.131500 0.522480 -0.044733
N6    N     N_R   0.705410 0.868500 0.477520 -0.039566
N7    N     N_R   0.705410 0.023370 0.632390 -0.040947
N8    N     N_R   0.294590 0.976630 0.367610 -0.042465
N9    N     N_R   0.294590 0.033450 0.310790 -0.046335
N10   N     N_R   0.294590 0.188320 0.465660 -0.047336
N11   N     N_R   0.705410 0.811680 0.534340 -0.043839
N12   N     N_R   0.556610 0.157790 0.497330 -0.041150
N13   N     N_R   0.443390 0.842210 0.502670 -0.041897
N14   N     N_R   0.443390 0.997080 0.657540 -0.038548
N15   N     N_R   0.556610 0.002920 0.342460 -0.037079
N16   N     N_R   0.443390 0.203250 0.451380 -0.041386
Ni1   Ni    Ni4+2 0.629830 0.882720 0.617850 0.213032
Ni2   Ni    Ni4+2 0.370170 0.117280 0.382150 0.211479
Ni3   Ni    Ni4+2 0.629830 0.013030 0.487540 0.207899
Ni4   Ni    Ni4+2 0.370170 0.986970 0.512460 0.228367
O1    O     O_3   0.986607 0.739184 0.267349 -0.648654
O2    O     O_3   0.997541 0.168819 0.576902 -0.644912

loop_
_geom_bond_atom_site_label_1
_geom_bond_atom_site_label_2
_ccdc_geom_bond_type
C66   C68   S    
C63   C65   A    
C29   C42   A    
C14   C18   A    
C2    C4    A    
C61   H37   S    
C1    H1    S    
C40   H27   S    
C10   H6    S    
C47   C49   A    
C15   C19   A    
N6    Ni3   S    
C39   O2    S    
C51   H41   S    
C28   H23   S    
C6    C8    A    
C69   O2    S    
C14   C21   A    
C35   C37   A    
C24   H11   S    
C24   C26   D    
C38   C42   A    
C1    N1    A    
C68   H47   S    
C52   H40   S    
C55   H31   S    
C8    H4    S    
C33   C36   A    
C56   C57   A    
C12   H12   S    
C48   C56   S    
C53   N14   A    
C22   H13   S    
N2    N13   A    
C2    C13   A    
C70   H50   S    
C62   C64   A    
N13   Ni4   S    
C68   H46   S    
N1    N7    A    
C70   H51   S    
C54   C71   A    
C53   H29   S    
C22   C25   D    
C35   C49   S    
C31   C33   A    
C19   C67   S    
C42   H14   S    
C38   O1    S    
C4    H2    S    
C60   H36   S    
C44   C47   A    
C13   H53   S    
C2    H55   S    
N4    N15   A    
C48   C50   A    
C54   N15   A    
C46   H26   S    
N5    N10   A    
N2    Ni1   S    
C23   C60   A    
N12   Ni3   S    
C22   C23   S    
C29   H18   S    
C27   C51   D    
C61   N6    A    
C45   C47   S    
C40   C45   A    
C46   C48   A    
C59   N4    A    
C66   H43   S    
C51   C52   S    
C32   C35   A    
N14   Ni4   S    
N9    Ni2   S    
C17   H17   S    
C66   O1    S    
N16   Ni2   S    
N6    N11   A    
C5    C7    A    
C11   C72   A    
N8    N9    A    
C39   C43   A    
C27   H34   S    
C25   C26   S    
C34   C61   A    
C24   C34   S    
C37   H24   S    
C72   H54   S    
C15   C20   A    
C62   N7    A    
N3    Ni1   S    
N15   Ni3   S    
C41   C56   A    
C41   N13   A    
C70   H52   S    
C44   H25   S    
C57   N2    A    
C15   H8    S    
C62   H38   S    
C69   H49   S    
C58   N3    A    
C41   H28   S    
C17   N11   A    
N5    Ni4   S    
C9    H5    S    
C14   H7    S    
C9    C11   A    
N8    Ni4   S    
N3    N14   A    
C68   H44   S    
C4    C6    A    
C26   H9    S    
N7    Ni3   S    
C25   H10   S    
C46   C49   A    
C30   C43   A    
C17   C34   A    
C11   H45   S    
C1    C64   A    
C44   C50   A    
C18   C71   S    
C7    C9    A    
C57   H32   S    
N11   Ni1   S    
C55   N16   A    
C66   H42   S    
C19   C21   A    
C3    H56   S    
N1    Ni1   S    
C54   H30   S    
C8    C10   A    
C16   N10   A    
N12   N16   A    
C30   H19   S    
C3    C5    A    
C10   C13   A    
C7    H3    S    
C16   C23   A    
C6    C20   S    
C12   C65   A    
C69   H48   S    
C58   H33   S    
N4    Ni2   S    
C63   N8    A    
C36   C38   A    
C28   C65   S    
C33   C50   S    
C43   H15   S    
C29   C31   A    
C30   C32   A    
C28   C52   D    
N10   Ni2   S    
C40   N12   A    
C32   H21   S    
C18   C20   A    
C63   H39   S    
C69   C70   S    
C53   C67   A    
C59   H35   S    
C27   C64   S    
C36   H22   S    
C58   C67   A    
C3    C72   A    
C5    C21   S    
C45   C55   A    
C37   C39   A    
C31   H20   S    
C16   H16   S    
C12   N9    A    
C60   N5    A    
C59   C71   A    
