data_mof_unit_pretest_236.cif
_audit_creation_date              2012-12-10T16:48:47-0500
_audit_creation_method            fapswitch 2.2
_symmetry_space_group_name_H-M    P1
_symmetry_Int_Tables_number       1
_space_group_crystal_system       triclinic
_cell_length_a                    7.772237
_cell_length_b                    8.582493
_cell_length_c                    10.479013
_cell_angle_alpha                 88.23754
_cell_angle_beta                  97.734108
_cell_angle_gamma                 93.555912
_cell_volume                      691.134679374

loop_
_atom_site_label
_atom_site_type_symbol
_atom_type_description
_atom_site_fract_x
_atom_site_fract_y
_atom_site_fract_z
_atom_type_partial_charge
C1    C     C_R   0.544590 0.794908 0.495914 0.995091
C2    C     C_2   0.430427 0.041718 0.501060 -0.295930
C3    C     C_2   0.547688 0.229824 0.149050 0.501275
C4    C     C_2   0.349857 0.250351 0.859975 0.512110
C5    C     C_2   0.282067 0.590165 0.042636 0.463485
C6    C     C_2   0.746374 0.539629 0.956302 0.423280
C7    C     C_R   0.454583 0.205170 0.501188 0.985584
C8    C     C_R   0.569035 0.486042 0.738134 0.992159
C9    C     C_R   0.428629 0.500969 0.262020 0.931001
C10   C     C_2   0.598214 0.454873 0.877527 -0.213857
C11   C     C_2   0.390243 0.477507 0.123182 -0.301976
C12   C     C_2   0.478317 0.361285 0.932299 -0.080478
C13   C     C_2   0.469983 0.362385 0.071017 -0.226537
C14   C     C_2   0.567701 0.958394 0.492268 -0.353254
H1    H     H_    0.697183 0.009673 0.483291 0.184654
H2    H     H_    0.300847 0.990481 0.509742 0.189752
H3    H     H_    0.985537 0.383224 0.406593 0.195462
H4    H     H_    0.014449 0.616715 0.593448 0.211467
H5    H     H_    0.518714 0.205618 0.245972 0.046721
H6    H     H_    0.224218 0.224335 0.892601 0.066054
H7    H     H_    0.249898 0.575234 0.939571 0.092897
H8    H     H_    0.772572 0.518135 0.059467 0.118286
N1    N     N_2   0.940600 0.458860 0.467170 -0.165777
N2    N     N_2   0.059400 0.541140 0.532830 -0.163701
O1    O     O_R   0.391630 0.738350 0.508060 -0.605946
O2    O     O_2   0.387618 0.178946 0.769993 -0.570910
O3    O     O_2   0.226922 0.701253 0.091220 -0.518997
O4    O     O_2   0.841602 0.634564 0.906177 -0.546726
O5    O     O_R   0.608370 0.261650 0.491940 -0.632006
O6    O     O_R   0.674540 0.711990 0.487010 -0.616836
O7    O     O_R   0.325460 0.288010 0.512990 -0.608766
O8    O     O_R   0.411370 0.508250 0.688780 -0.626649
O9    O     O_R   0.588630 0.491750 0.311220 -0.633935
O10   O     O_R   0.694270 0.481880 0.667740 -0.585048
O11   O     O_R   0.305730 0.518120 0.332260 -0.590336
O12   O     O_2   0.642603 0.144051 0.103973 -0.538732
Zn1   Zn    Zn3+2 0.311100 0.517600 0.514050 0.987562
Zn2   Zn    Zn3+2 0.688900 0.482400 0.485950 0.979556

loop_
_geom_bond_atom_site_label_1
_geom_bond_atom_site_label_2
_ccdc_geom_bond_type
O5    Zn2   S    
C6    C10   S    
C4    O2    D    
N1    N2    D    
C3    H5    S    
C7    O5    A    
C4    C12   S    
N1    Zn2   S    
C2    H2    S    
C2    C7    S    
C3    C13   S    
C6    H8    S    
N2    Zn1   S    
C8    O10   A    
O8    Zn1   S    
C1    O1    A    
C9    C11   S    
H3    N1    S    
C10   C12   D    
C3    O12   D    
C9    O9    A    
H4    N2    S    
C1    O6    A    
O11   Zn1   S    
C5    C11   S    
C2    C14   D    
C7    O7    A    
C8    O8    A    
C11   C13   D    
C5    H7    S    
C12   C13   S    
O6    Zn2   S    
C8    C10   S    
C9    O11   A    
C14   H1    S    
O10   Zn2   S    
O9    Zn2   S    
C1    C14   S    
O1    Zn1   S    
C5    O3    D    
C6    O4    D    
O7    Zn1   S    
C4    H6    S    
