data_mof_unit_pretest_1734.cif
_audit_creation_date              2012-12-11T17:07:12-0500
_audit_creation_method            fapswitch 2.2
_symmetry_space_group_name_H-M    P1
_symmetry_Int_Tables_number       1
_space_group_crystal_system       triclinic
_cell_length_a                    8.232623
_cell_length_b                    14.958866
_cell_length_c                    16.398445
_cell_angle_alpha                 97.335666
_cell_angle_beta                  93.296358
_cell_angle_gamma                 97.570302
_cell_volume                      1979.81199381

loop_
_atom_site_label
_atom_site_type_symbol
_atom_type_description
_atom_site_fract_x
_atom_site_fract_y
_atom_site_fract_z
_atom_type_partial_charge
Ba1   Ba    Ba6+2 0.163640 0.544330 0.462610 1.686047
Ba2   Ba    Ba6+2 0.646540 0.455660 0.537320 1.715060
C1    C     C_3   0.567129 0.841574 0.203228 0.270572
C2    C     C_R   0.094823 0.077212 0.547570 -0.024574
C3    C     C_R   0.955278 0.890040 0.531823 -0.023480
C4    C     C_3   0.976027 0.793172 0.292436 0.416616
C5    C     C_R   0.105335 0.922935 0.578226 -0.026981
C6    C     C_R   0.175156 0.013857 0.584414 -0.076681
C7    C     C_R   0.888615 0.795954 0.521362 0.037266
C8    C     C_R   0.735648 0.768671 0.477913 -0.319402
C9    C     C_R   0.922234 0.204462 0.477454 0.024219
C10   C     C_R   0.855607 0.110845 0.466928 -0.087209
C11   C     C_R   0.939521 0.047287 0.503594 0.004804
C12   C     C_3   0.477918 0.766560 0.246010 0.735908
C13   C     C_R   0.705615 0.079615 0.421799 -0.088535
C14   C     C_R   0.627430 0.990440 0.419116 0.354001
C15   C     C_R   0.710706 0.924653 0.453208 -0.051522
C16   C     C_3   0.021395 0.888782 0.270672 -0.302927
C17   C     C_R   0.869067 0.953631 0.495382 -0.039524
C18   C     C_R   0.643315 0.831045 0.446835 -0.000063
C19   C     C_R   0.072480 0.232414 0.522879 -0.242340
C20   C     C_R   0.623723 0.539449 0.268764 -0.278365
C21   C     C_R   0.469495 0.491084 0.241539 0.028400
C22   C     C_R   0.413703 0.483272 0.158123 -0.117280
C23   C     C_3   0.554619 0.732572 0.658838 0.383692
C24   C     C_R   0.512944 0.523737 0.101333 0.261058
C25   C     C_R   0.673025 0.567423 0.129023 -0.132062
C26   C     C_R   0.728617 0.574210 0.212808 -0.030720
C27   C     C_R   0.373546 0.524388 0.855179 -0.181662
C28   C     C_3   0.769412 0.346884 0.287201 0.297683
C29   C     C_R   0.329496 0.512568 0.770524 -0.043473
C30   C     C_R   0.267620 0.484276 0.909706 0.312892
C31   C     C_R   0.182601 0.457634 0.739034 0.148695
C32   C     C_R   0.068227 0.426351 0.792628 0.018505
C33   C     C_R   0.111547 0.438870 0.877851 -0.146015
C34   C     C_3   0.585293 0.836243 0.679381 0.253005
C35   C     C_3   0.737274 0.322749 0.194181 -0.377645
C36   C     C_3   0.074535 0.676345 0.721401 0.709661
C37   C     C_3   0.152436 0.727776 0.803811 0.306866
C38   C     C_3   0.220519 0.263960 0.334924 0.660722
C39   C     C_3   0.125140 0.177807 0.284476 -0.166696
C40   C     C_1   0.236121 0.118802 0.245308 0.335693
C41   C     C_1   0.890785 0.090645 0.794390 0.381116
C42   C     C_1   0.780547 0.603583 0.070788 0.374216
C43   C     C_3   0.837846 0.204006 0.702478 0.319265
C44   C     C_3   0.795975 0.106127 0.720255 -0.272601
C45   C     C_3   0.368097 0.249184 0.755561 0.376808
C46   C     C_3   0.403794 0.222045 0.840869 0.627759
C47   C     C_R   0.163183 0.170185 0.554667 0.025281
H1    H     H_    0.624808 0.272045 0.179302 0.143534
H2    H     H_    0.048291 0.138701 0.324866 0.019670
H3    H     H_    0.572285 0.730053 0.273613 -0.142281
H4    H     H_    0.672130 0.707780 0.644444 -0.007355
H5    H     H_    0.466170 0.715229 0.603551 -0.033891
H6    H     H_    0.635618 0.867265 0.626358 -0.096402
H7    H     H_    0.467116 0.862176 0.690207 0.121016
H8    H     H_    0.647105 0.890812 0.249905 0.017316
H9    H     H_    0.990956 0.939652 0.320875 0.038677
H10   H     H_    0.765322 0.210514 0.644877 0.088571
H11   H     H_    0.970444 0.217215 0.692454 -0.059680
H12   H     H_    0.720119 0.384247 0.165451 0.047584
H13   H     H_    0.663067 0.091189 0.729137 0.119269
H14   H     H_    0.824026 0.058249 0.667203 0.042989
H15   H     H_    0.233361 0.246683 0.744149 -0.032699
H16   H     H_    0.429445 0.319928 0.755204 0.025658
H17   H     H_    0.539602 0.227810 0.854110 0.030845
H18   H     H_    0.048801 0.787948 0.350282 0.076906
H19   H     H_    0.172224 0.879165 0.610523 0.109068
H20   H     H_    0.292098 0.033898 0.619682 0.099843
H21   H     H_    0.643134 0.124715 0.389141 0.129889
H22   H     H_    0.683464 0.697691 0.472014 0.071877
H23   H     H_    0.843389 0.293777 0.167814 0.123856
H24   H     H_    0.124212 0.303379 0.529241 0.112214
H25   H     H_    0.489402 0.565391 0.878010 0.125359
H26   H     H_    0.294342 0.444831 0.137817 0.112945
H27   H     H_    0.843561 0.783472 0.303174 -0.088815
H28   H     H_    0.025039 0.412441 0.919184 0.098237
H29   H     H_    0.666990 0.544308 0.332960 0.070327
H30   H     H_    0.154825 0.902249 0.262682 0.168120
H31   H     H_    0.952506 0.896693 0.212491 0.161240
H32   H     H_    0.660455 0.372089 0.312970 0.025747
H33   H     H_    0.877265 0.400764 0.300407 0.059660
H34   H     H_    0.171337 0.648724 0.686002 -0.096096
H35   H     H_    0.332144 0.654620 0.216294 0.322410
H36   H     H_    0.925769 0.565894 0.685761 0.307984
H37   H     H_    0.306824 0.834217 0.846252 0.326135
H38   H     H_    0.349560 0.294596 0.438472 0.315825
H39   H     H_    0.592368 0.780716 0.093949 0.333124
H40   H     H_    0.805636 0.861853 0.732563 0.315745
H41   H     H_    0.381005 0.267686 0.954717 0.319649
H42   H     H_    0.403806 0.091339 0.818986 0.298619
H43   H     H_    0.425180 0.023581 0.369294 0.314334
H44   H     H_    0.113133 0.485200 0.633668 0.300154
H45   H     H_    0.222439 0.682564 0.836411 -0.031272
H46   H     H_    0.053916 0.748458 0.842920 0.086654
H47   H     H_    0.128893 0.305489 0.361009 -0.049520
H48   H     H_    0.476829 0.879480 0.174064 0.080347
H49   H     H_    0.042986 0.197083 0.235552 0.047991
N1    N     N_2   0.460796 0.518725 0.015910 -0.226676
N2    N     N_2   0.312777 0.488948 0.995956 -0.198084
N3    N     N_1   0.323599 0.072531 0.214341 -0.294115
N4    N     N_1   0.964911 0.078235 0.852997 -0.193661
N5    N     N_1   0.866584 0.632444 0.024132 -0.248337
O1    O     O_2   0.162600 0.722340 0.548210 -0.484455
O2    O     O_2   0.729037 0.431590 0.787466 -0.461167
O3    O     O_3   0.797394 0.265052 0.768324 -0.617170
O4    O     O_3   0.890740 0.608910 0.545450 -0.507221
O5    O     O_3   0.431610 0.453580 0.401810 -0.490765
O6    O     O_2   0.628260 0.544210 0.698310 -0.422081
O7    O     O_3   0.491203 0.694267 0.726361 -0.601231
O8    O     O_2   0.499860 0.173625 0.542932 -0.467784
O9    O     O_3   0.429504 0.189051 0.695956 -0.660309
O10   O     O_3   0.394140 0.666560 0.400120 -0.492532
O11   O     O_2   0.303669 0.823971 0.456265 -0.454574
O12   O     O_3   0.321065 0.310129 0.283042 -0.647298
O13   O     O_3   0.997913 0.737097 0.679529 -0.640331
O14   O     O_3   0.378558 0.806376 0.303573 -0.587273
O15   O     O_2   0.182040 0.455730 0.301660 -0.482928
O16   O     O_3   0.971540 0.620730 0.357730 -0.500456
O17   O     O_2   0.060485 0.558218 0.210601 -0.482125
O18   O     O_3   0.376836 0.705140 0.186888 -0.710709
O19   O     O_3   0.956873 0.606272 0.738367 -0.780979
O20   O     O_3   0.257171 0.805508 0.790978 -0.726416
O21   O     O_3   0.318585 0.238902 0.398181 -0.744885
O22   O     O_3   0.665684 0.804766 0.144313 -0.739421
O23   O     O_3   0.011070 0.728695 0.227913 -0.542183
O24   O     O_3   0.692612 0.862759 0.750387 -0.682252
O25   O     O_3   0.340495 0.281316 0.900092 -0.740056
O26   O     O_3   0.329259 0.132585 0.843671 -0.691154
O27   O     O_3   0.468871 0.968451 0.383644 -0.715325
O28   O     O_3   0.151508 0.432484 0.655688 -0.728887
O29   O     O_2   0.647690 0.277600 0.451760 -0.433609
O30   O     O_3   0.919560 0.391080 0.454480 -0.500672
O31   O     O_3   0.416160 0.333430 0.599820 -0.450787
O32   O     O_3   0.799164 0.268558 0.320383 -0.642537
O33   O     O_3   0.378690 0.546410 0.598120 -0.464965
O34   O     O_3   0.838760 0.379260 0.642200 -0.462046
P1    P     P_3+3 0.987090 0.708160 0.571840 0.961934
P2    P     P_3+3 0.349530 0.428340 0.313070 0.974107
P3    P     P_3+3 0.942344 0.619599 0.251401 0.987847
P4    P     P_3+3 0.823210 0.291830 0.428100 0.981225
P5    P     P_3+3 0.858702 0.376498 0.748872 1.018344
P6    P     P_3+3 0.432053 0.783568 0.403013 1.005793
P7    P     P_3+3 0.454630 0.575576 0.701149 1.010853
P8    P     P_3+3 0.375553 0.215472 0.598045 0.969924

loop_
_geom_bond_atom_site_label_1
_geom_bond_atom_site_label_2
_ccdc_geom_bond_type
O34   P5    S    
C43   H11   S    
C36   H34   S    
C39   C40   S    
C26   P3    S    
C2    C6    A    
C19   C47   A    
C5    C6    A    
Ba2   O6    S    
C43   C44   S    
O23   P3    S    
C6    H20   S    
Ba2   O31   S    
C45   H16   S    
C44   H13   S    
O16   P3    S    
C21   P2    S    
O14   P6    S    
C23   H4    S    
C32   C33   A    
C27   C30   A    
O8    P8    D    
C36   C37   S    
C38   O12   S    
C13   C14   A    
C19   H24   S    
Ba2   O4    S    
C2    C11   A    
C15   C18   A    
C37   O20   S    
O9    P8    S    
Ba1   Ba2   S    
Ba1   O16   S    
C29   P7    S    
C13   H21   S    
C5    H19   S    
C25   C42   S    
C16   H9    S    
C12   H3    S    
C45   C46   S    
C8    C18   A    
C16   H30   S    
Ba2   O29   S    
C21   C22   A    
C29   C31   A    
O17   P3    D    
Ba1   O33   S    
C14   O27   S    
C7    C8    A    
Ba1   P2    S    
C24   N1    S    
C8    H22   S    
C31   O28   S    
C12   O18   S    
C20   C26   A    
C18   P6    S    
Ba1   O10   S    
C38   H47   S    
Ba1   O30   S    
C42   N5    T    
C32   P5    S    
O3    P5    S    
O13   P1    S    
C38   O21   S    
C4    C16   S    
Ba2   O30   S    
C11   C17   A    
C30   C33   A    
C23   H5    S    
C4    O23   S    
C45   H15   S    
C3    C5    A    
C14   C15   A    
C27   H25   S    
C23   C34   S    
H35   O18   S    
C33   H28   S    
Ba2   O33   S    
C30   N2    S    
C28   C35   S    
C28   H33   S    
H43   O27   S    
C37   H45   S    
C3    C7    A    
H39   O22   S    
C34   H7    S    
C46   O25   S    
C36   O13   S    
C7    P1    S    
C1    H48   S    
N1    N2    D    
C10   C13   A    
C27   C29   A    
C12   O14   S    
C31   C32   A    
C24   C25   A    
C47   P8    S    
H36   O19   S    
O7    P7    S    
C9    P4    S    
Ba1   O1    S    
C37   H46   S    
C36   O19   S    
C1    C12   S    
C23   O7    S    
Ba1   O4    S    
H42   O26   S    
C1    H8    S    
C38   C39   S    
H37   O20   S    
O12   P2    S    
C46   O26   S    
C34   O24   S    
O15   P2    D    
C40   N3    T    
O2    P5    D    
C43   O3    S    
H40   O24   S    
O29   P4    D    
O31   P8    S    
C43   H10   S    
C39   H49   S    
Ba2   O34   S    
C22   C24   A    
O5    P2    S    
C35   H12   S    
C9    C10   A    
C1    O22   S    
C22   H26   S    
C4    H27   S    
C3    C17   A    
C44   H14   S    
O30   P4    S    
C2    C47   A    
O11   P6    D    
O1    P1    D    
C28   H32   S    
C41   N4    T    
O33   P7    S    
C34   H6    S    
C4    H18   S    
C35   H1    S    
H38   O21   S    
C20   H29   S    
O4    P1    S    
Ba2   O5    S    
C15   C17   A    
C9    C19   A    
O6    P7    D    
Ba1   O15   S    
C41   C44   S    
Ba1   O5    S    
O10   P6    S    
O32   P4    S    
C10   C11   A    
C16   H31   S    
C28   O32   S    
C35   H23   S    
C25   C26   A    
Ba2   P4    S    
H41   O25   S    
C20   C21   A    
C46   H17   S    
H44   O28   S    
C39   H2    S    
Ba1   P1    S    
C45   O9    S    
