data_mof_unit_pretest_686.cif
_audit_creation_date              2012-10-26T19:57:25-0400
_audit_creation_method            fapswitch 2.2
_symmetry_space_group_name_H-M    P1
_symmetry_Int_Tables_number       1
_space_group_crystal_system       triclinic
_cell_length_a                    13.012924
_cell_length_b                    10.885386
_cell_length_c                    9.7731
_cell_angle_alpha                 91.191855
_cell_angle_beta                  96.490293
_cell_angle_gamma                 91.35037
_cell_volume                      1374.72837234

loop_
_atom_site_label
_atom_site_type_symbol
_atom_type_description
_atom_site_fract_x
_atom_site_fract_y
_atom_site_fract_z
_atom_type_partial_charge
C1    C     C_R   0.497322 0.264980 0.497393 0.577536
C2    C     C_2   0.490510 0.130015 0.486338 0.291301
C3    C     C_2   0.432508 0.440079 0.914442 0.114182
C4    C     C_R   0.300444 0.502061 0.472775 0.533625
C5    C     C_2   0.447178 0.420747 0.069018 0.478091
C6    C     C_R   0.509578 0.734478 0.503713 0.506455
C7    C     C_R   0.699395 0.499145 0.526739 0.594698
C8    C     C_R   0.812722 0.500281 0.544049 -0.017296
C9    C     C_R   0.186756 0.506000 0.453501 -0.016688
C10   C     C_R   0.019329 0.478549 0.316844 -0.147412
C11   C     C_R   0.126709 0.485878 0.323272 -0.014398
C12   C     C_R   0.028904 0.519727 0.563639 0.004901
C13   C     C_R   0.136414 0.525953 0.571163 -0.127659
C14   C     C_3   0.346318 0.121599 0.611071 -0.017765
C15   C     C_3   0.261973 0.033693 0.648721 -0.377266
C16   C     C_2   0.334748 0.389699 0.841369 0.271159
C17   C     C_3   0.411922 0.217104 0.094657 -0.018291
C18   C     C_3   0.335000 0.125959 0.144959 -0.357448
C19   C     C_3   0.597418 0.668794 0.139677 0.028351
C20   C     C_3   0.661041 0.729369 0.036811 -0.413929
C21   C     C_3   0.844555 0.400804 0.860025 0.006906
C22   C     C_3   0.786608 0.391637 0.986251 -0.348204
C23   C     C_R   0.970482 0.494799 0.435397 -0.022814
C24   C     C_3   0.028398 0.698009 0.825504 -0.009708
C25   C     C_3   0.093318 0.738882 0.958350 -0.333735
C26   C     C_2   0.169714 0.471745 0.190394 0.292609
C27   C     C_2   0.567450 0.914817 0.663228 0.248641
C28   C     C_2   0.654909 0.122715 0.369551 0.201920
C29   C     C_R   0.863395 0.488685 0.425962 -0.171695
C30   C     C_R   0.871145 0.515096 0.674823 0.248055
C31   C     C_R   0.978708 0.536070 0.682501 0.255789
C32   C     C_2   0.548981 0.933309 0.407738 -0.128098
C33   C     C_2   0.540300 0.864707 0.519200 0.044279
C34   C     C_2   0.561226 0.067828 0.421109 0.043923
Cu1   Cu    Cu3+1 0.500020 0.500020 0.638640 0.941933
Cu2   Cu    Cu3+1 0.499980 0.499980 0.361360 1.077851
H1    H     H_    0.819485 0.473559 0.325671 0.161523
H2    H     H_    0.208497 0.007379 0.555440 0.163842
H3    H     H_    0.334545 0.339409 0.745887 0.108325
H4    H     H_    0.490180 0.200103 0.148271 0.137867
H5    H     H_    0.413315 0.199214 0.982362 0.089931
H6    H     H_    0.257796 0.135424 0.085407 0.153366
H7    H     H_    0.361397 0.030702 0.130879 0.101158
H8    H     H_    0.328102 0.143629 0.255736 0.186262
H9    H     H_    0.640091 0.686336 0.243238 0.172838
H10   H     H_    0.520719 0.713435 0.131021 0.150180
H11   H     H_    0.619080 0.722847 0.931478 0.163295
H12   H     H_    0.572210 0.515614 0.891887 0.267366
H13   H     H_    0.674841 0.828163 0.065369 0.097362
H14   H     H_    0.736907 0.684749 0.037271 0.174446
H15   H     H_    0.928526 0.393757 0.895295 0.170133
H16   H     H_    0.819249 0.321323 0.789355 0.153453
H17   H     H_    0.702329 0.382022 0.954301 0.173939
H18   H     H_    0.811544 0.309401 0.045376 0.100424
H19   H     H_    0.803095 0.474569 0.053844 0.166193
H20   H     H_    0.947076 0.724883 0.832895 0.162065
H21   H     H_    0.058764 0.747433 0.739035 0.114718
H22   H     H_    0.175391 0.715325 0.953272 0.203984
H23   H     H_    0.973439 0.461580 0.218129 0.096776
H24   H     H_    0.063968 0.692952 0.047177 0.184018
H25   H     H_    0.088742 0.839943 0.973233 0.081539
H26   H     H_    0.144442 0.394316 0.122105 0.143167
H27   H     H_    0.530792 0.876072 0.747494 0.112214
H28   H     H_    0.693788 0.070957 0.295381 0.088242
H29   H     H_    0.181315 0.544504 0.669904 0.203714
H30   H     H_    0.539286 0.892456 0.304678 0.075474
H31   H     H_    0.308466 0.203925 0.564827 0.127483
H32   H     H_    0.397716 0.145419 0.707314 0.142343
H33   H     H_    0.296998 0.949575 0.694183 0.154377
H34   H     H_    0.217365 0.078849 0.725204 0.106741
N1    N     N_2   0.498860 0.498660 0.846770 -0.407008
N2    N     N_2   0.498840 0.498630 0.152900 -0.031199
O1    O     O_R   0.500020 0.321960 0.617050 -0.535866
O2    O     O_2   0.253162 0.400982 0.890307 -0.488053
O3    O     O_3   0.381623 0.337815 0.123922 -0.516969
O4    O     O_3   0.588617 0.541017 0.112605 -0.553371
O5    O     O_3   0.823506 0.513793 0.794638 -0.544367
O6    O     O_3   0.034597 0.569389 0.807214 -0.540854
O7    O     O_2   0.226497 0.551168 0.151076 -0.459804
O8    O     O_2   0.633480 0.996059 0.689819 -0.522857
O9    O     O_2   0.692575 0.221611 0.412986 -0.501230
O10   O     O_R   0.499980 0.321920 0.382890 -0.473233
O11   O     O_R   0.349010 0.500000 0.598060 -0.538152
O12   O     O_R   0.348980 0.499950 0.363910 -0.421339
O13   O     O_R   0.500020 0.678080 0.617110 -0.517508
O14   O     O_R   0.499980 0.678040 0.382950 -0.530781
O15   O     O_R   0.651020 0.500050 0.636090 -0.457420
O16   O     O_R   0.650990 0.500000 0.401940 -0.483246
O17   O     O_3   0.402338 0.063035 0.514822 -0.605299

loop_
_geom_bond_atom_site_label_1
_geom_bond_atom_site_label_2
_ccdc_geom_bond_type
C19   C20   S    
N2    O4    S    
C19   H10   S    
C7    C8    S    
C22   H18   S    
C13   H29   S    
Cu2   O16   S    
C12   C23   A    
C6    O13   A    
C16   O2    D    
C8    C29   A    
C23   C29   A    
C19   O4    S    
C5    N2    D    
C18   H6    S    
C30   C31   A    
C1    C2    S    
C9    C13   A    
C20   H14   S    
C30   O5    S    
Cu1   O15   S    
C7    O15   A    
Cu1   Cu2   S    
Cu2   O10   S    
C24   H21   S    
C14   H31   S    
C25   H24   S    
C2    C34   D    
Cu1   N1    S    
C21   C22   S    
C22   H17   S    
C15   H33   S    
C24   C25   S    
C27   O8    D    
Cu1   O11   S    
C11   C26   S    
Cu2   O14   S    
C1    O10   A    
C27   C33   S    
C17   H4    S    
C32   C34   S    
C5    O3    S    
C2    O17   S    
C3    N1    D    
C14   O17   S    
C20   H13   S    
C18   H8    S    
C7    O16   A    
C4    O12   A    
C17   C18   S    
C25   H25   S    
C9    C11   A    
C27   H27   S    
C28   H28   S    
C24   O6    S    
C12   C31   A    
C25   H22   S    
H12   N1    S    
C29   H1    S    
C21   H15   S    
C31   O6    S    
C32   H30   S    
C15   H34   S    
Cu1   O1    S    
C28   O9    D    
C3    C5    S    
C19   H9    S    
C22   H19   S    
C10   C23   A    
C24   H20   S    
C26   O7    D    
C6    O14   A    
C6    C33   S    
C1    O1    A    
C32   C33   D    
C10   H23   S    
C26   H26   S    
C8    C30   A    
C18   H7    S    
Cu1   O13   S    
C4    O11   A    
Cu2   O12   S    
C15   H2    S    
C17   H5    S    
C20   H11   S    
C10   C11   A    
C16   H3    S    
C28   C34   S    
C12   C13   A    
C21   O5    S    
C17   O3    S    
C14   H32   S    
C14   C15   S    
C4    C9    S    
C21   H16   S    
C3    C16   S    
Cu2   N2    S    
