data_mof_unit_pretest_364.cif
_audit_creation_date              2012-12-11T15:27:15-0500
_audit_creation_method            fapswitch 2.2
_symmetry_space_group_name_H-M    P1
_symmetry_Int_Tables_number       1
_space_group_crystal_system       triclinic
_cell_length_a                    13.9229
_cell_length_b                    13.953307
_cell_length_c                    27.437954
_cell_angle_alpha                 90.026597
_cell_angle_beta                  90.202886
_cell_angle_gamma                 119.633188
_cell_volume                      4633.17276953

loop_
_atom_site_label
_atom_site_type_symbol
_atom_type_description
_atom_site_fract_x
_atom_site_fract_y
_atom_site_fract_z
_atom_type_partial_charge
C1    C     C_R   0.233695 0.787940 0.568306 0.545262
C2    C     C_R   0.212382 0.445883 0.568208 0.551240
C3    C     C_R   0.554942 0.766394 0.568146 0.546216
C4    C     C_3   0.646821 0.724983 0.788105 0.144502
C5    C     C_3   0.264846 0.916512 0.788340 0.125525
C6    C     C_3   0.057208 0.314450 0.784237 0.136315
C7    C     C_3   0.642544 0.717903 0.731214 0.140354
C8    C     C_3   0.272231 0.921100 0.731711 0.104562
C9    C     C_3   0.067068 0.338564 0.728309 0.128509
C10   C     C_1   0.712333 0.859495 0.857699 -0.018424
C11   C     C_1   0.132984 0.846928 0.857633 -0.013484
C12   C     C_1   0.112749 0.228946 0.850590 -0.019817
C13   C     C_1   0.642479 0.817637 0.655959 -0.031427
C14   C     C_1   0.178169 0.819752 0.656067 0.021746
C15   C     C_1   0.176326 0.354181 0.654640 -0.032911
C16   C     C_1   0.610243 0.799618 0.614345 0.000736
C17   C     C_1   0.199147 0.808221 0.614572 0.025025
C18   C     C_1   0.191572 0.390145 0.613864 0.009070
C19   C     C_R   0.070164 0.161715 0.941783 0.545377
C20   C     C_R   0.780157 0.886902 0.948755 0.544436
C21   C     C_R   0.112696 0.893441 0.948647 0.542006
C22   C     C_R   0.614120 0.806741 0.385638 0.066200
C23   C     C_R   0.191777 0.806570 0.385699 0.066587
C24   C     C_R   0.192780 0.384665 0.385829 0.066072
C25   C     C_R   0.599617 0.885303 0.359467 -0.172609
C26   C     C_R   0.115808 0.713691 0.358941 -0.172961
C27   C     C_R   0.285524 0.398713 0.359708 -0.172793
C28   C     C_R   0.627818 0.904214 0.310793 -0.138109
C29   C     C_R   0.097304 0.723232 0.310188 -0.138506
C30   C     C_R   0.276035 0.370287 0.311013 -0.138594
C31   C     C_R   0.672959 0.846556 0.287618 0.010156
C32   C     C_R   0.152577 0.826058 0.287569 0.010249
C33   C     C_R   0.173347 0.325195 0.287817 0.010148
C34   C     C_R   0.232890 0.787634 0.431755 0.567722
C35   C     C_R   0.212199 0.445062 0.431747 0.568827
C36   C     C_R   0.554541 0.766655 0.431685 0.568887
C37   C     C_R   0.698491 0.776678 0.314577 -0.109841
C38   C     C_R   0.219277 0.920996 0.315100 -0.109856
C39   C     C_R   0.078316 0.299635 0.314777 -0.110061
C40   C     C_R   0.669302 0.756000 0.363883 0.242377
C41   C     C_R   0.239675 0.912207 0.364504 0.242450
C42   C     C_R   0.087060 0.329215 0.364103 0.242041
C43   C     C_R   0.655546 0.760295 0.206797 -0.131466
C44   C     C_R   0.240312 0.897720 0.207582 -0.132167
C45   C     C_R   0.103258 0.343134 0.207283 -0.132275
C46   C     C_R   0.675646 0.768190 0.156647 0.202971
C47   C     C_R   0.233133 0.910098 0.157365 0.203171
C48   C     C_R   0.091175 0.323810 0.157036 0.202826
C49   C     C_R   0.753035 0.968330 0.162259 0.187601
C50   C     C_R   0.033599 0.782603 0.161260 0.188445
C51   C     C_R   0.216464 0.247920 0.161953 0.186852
C52   C     C_R   0.733177 0.958206 0.212355 -0.129730
C53   C     C_R   0.042916 0.772958 0.211431 -0.129769
C54   C     C_R   0.225843 0.266714 0.212152 -0.129816
C55   C     C_R   0.688269 0.855325 0.234810 -0.025991
C56   C     C_R   0.144943 0.833131 0.234750 -0.025858
C57   C     C_R   0.166608 0.310481 0.234974 -0.025732
C58   C     C_R   0.729435 0.873199 0.134740 0.102066
C59   C     C_R   0.128484 0.856720 0.134597 0.101881
C60   C     C_R   0.143669 0.270991 0.134740 0.101150
C61   C     C_R   0.106706 0.221424 0.086372 0.634289
C62   C     C_R   0.779049 0.885753 0.086449 0.622155
C63   C     C_R   0.114905 0.893709 0.086390 0.619863
C64   C     C_3   0.583788 0.866253 0.734014 0.467423
C65   C     C_3   0.128812 0.712002 0.733907 0.464848
C66   C     C_3   0.271524 0.391294 0.736496 0.460770
C67   C     C_3   0.783524 0.916847 0.721412 -0.299847
C68   C     C_3   0.072014 0.856386 0.720554 -0.294402
C69   C     C_3   0.124677 0.198262 0.711438 -0.291756
C70   C     C_3   0.801643 0.923002 0.777470 -0.275694
C71   C     C_3   0.061653 0.863835 0.776719 -0.262860
C72   C     C_3   0.105511 0.164051 0.765731 -0.269581
C73   C     C_1   0.737220 0.871980 0.900221 0.022464
C74   C     C_1   0.124975 0.863259 0.900146 0.022902
C75   C     C_1   0.095335 0.199220 0.892430 0.020523
C76   C     C_3   0.662530 0.829538 0.709137 0.097768
C77   C     C_3   0.163248 0.826663 0.709079 0.100751
C78   C     C_3   0.161171 0.322171 0.706402 0.092526
C79   C     C_3   0.607113 0.881615 0.789928 -0.114574
C80   C     C_3   0.114466 0.719068 0.790296 -0.167764
C81   C     C_3   0.252384 0.352330 0.790729 -0.113200
C82   C     C_3   0.692546 0.846764 0.804740 -0.027461
C83   C     C_3   0.143469 0.837472 0.804671 -0.023548
C84   C     C_3   0.130430 0.263426 0.799133 -0.021078
Cr1   Cr    Cr6+3 0.164410 0.584450 0.499910 1.063289
Cr2   Cr    Cr6+3 0.415550 0.579960 0.499910 1.060907
Cr3   Cr    Cr6+3 0.420040 0.835590 0.499910 1.060215
Cr4   Cr    Cr6+3 0.156760 0.076070 0.017830 1.115309
Cr5   Cr    Cr6+3 0.923930 0.080690 0.017830 1.108328
Cr6   Cr    Cr6+3 0.919310 0.843240 0.017830 1.108031
H1    H     H_    0.638648 0.969257 0.800588 0.161549
H2    H     H_    0.027789 0.660521 0.801192 0.171897
H3    H     H_    0.307171 0.318298 0.800855 0.159913
H4    H     H_    0.529223 0.832527 0.810733 0.131710
H5    H     H_    0.166767 0.693689 0.811271 0.100944
H6    H     H_    0.275241 0.423536 0.815646 0.138094
H7    H     H_    0.558282 0.926211 0.375357 0.155030
H8    H     H_    0.077140 0.631632 0.374414 0.155653
H9    H     H_    0.367599 0.440114 0.375619 0.155560
H10   H     H_    0.615950 0.680139 0.224161 0.103011
H11   H     H_    0.320053 0.939892 0.225650 0.102298
H12   H     H_    0.061804 0.382033 0.224959 0.102313
H13   H     H_    0.607912 0.958865 0.290603 0.119853
H14   H     H_    0.045179 0.649022 0.289533 0.119896
H15   H     H_    0.350314 0.390218 0.290826 0.119957
H16   H     H_    0.756832 0.031384 0.234150 0.100953
H17   H     H_    0.969584 0.721565 0.232587 0.101048
H18   H     H_    0.276228 0.243207 0.233705 0.100588
H19   H     H_    0.737755 0.735685 0.296809 0.092057
H20   H     H_    0.258245 0.001122 0.297707 0.091890
H21   H     H_    0.998199 0.260316 0.296975 0.091481
H22   H     H_    0.841934 0.895204 0.703520 0.102798
H23   H     H_    0.092097 0.936565 0.703567 0.097107
H24   H     H_    0.047116 0.147092 0.690466 0.102922
H25   H     H_    0.802638 0.999172 0.707364 0.160129
H26   H     H_    0.991267 0.793536 0.704959 0.163972
H27   H     H_    0.188577 0.181236 0.696017 0.163012
H28   H     H_    0.832747 0.008597 0.790126 0.139395
H29   H     H_    0.975737 0.804205 0.787740 0.130364
H30   H     H_    0.161078 0.131733 0.775927 0.117364
H31   H     H_    0.866302 0.901447 0.786720 0.117924
H32   H     H_    0.075654 0.946512 0.786903 0.113089
H33   H     H_    0.019698 0.096504 0.770912 0.123689
H34   H     H_    0.709363 0.702745 0.717534 0.121954
H35   H     H_    0.281771 0.001204 0.718647 0.134656
H36   H     H_    0.988624 0.280076 0.709220 0.119075
H37   H     H_    0.561075 0.675922 0.802304 0.213833
H38   H     H_    0.316874 0.882299 0.802375 0.189483
H39   H     H_    0.088986 0.394035 0.804215 0.202957
O1    O     O_R   0.137310 0.468260 0.552980 -0.490321
O2    O     O_R   0.531740 0.669050 0.552980 -0.491883
O3    O     O_R   0.330950 0.862690 0.552980 -0.493659
O4    O     O_R   0.180530 0.983530 0.965090 -0.501605
O5    O     O_R   0.016470 0.197000 0.965090 -0.484448
O6    O     O_R   0.803000 0.819470 0.965090 -0.492410
O7    O     O_R   0.174120 0.688790 0.549730 -0.496550
O8    O     O_R   0.311210 0.485330 0.549730 -0.500825
O9    O     O_R   0.514670 0.825880 0.549730 -0.499229
O10   O     O_R   0.139940 0.470480 0.446230 -0.453254
O11   O     O_R   0.529520 0.669460 0.446230 -0.452946
O12   O     O_R   0.330540 0.860060 0.446230 -0.452862
O13   O     O_R   0.176560 0.690850 0.450770 -0.526420
O14   O     O_R   0.309150 0.485710 0.450770 -0.526261
O15   O     O_R   0.514290 0.823440 0.450770 -0.525457
O16   O     O_3   0.333333 0.666667 0.499990 -0.292979
O17   O     O_3   0.000000 0.000000 0.017910 -0.299133
O18   O     O_R   0.149710 0.171070 0.967700 -0.492052
O19   O     O_R   0.828930 0.978640 0.967700 -0.524625
O20   O     O_R   0.021360 0.850290 0.967700 -0.507902
O21   O     O_R   0.178510 0.985930 0.071830 -0.437047
O22   O     O_R   0.014070 0.192580 0.071830 -0.434433
O23   O     O_R   0.807420 0.821490 0.071830 -0.436370
O24   O     O_R   0.147830 0.173300 0.066650 -0.452342
O25   O     O_R   0.826700 0.974530 0.066650 -0.459248
O26   O     O_R   0.025470 0.852170 0.066650 -0.456861
O27   O     O_3   0.472041 0.785237 0.727411 -0.628348
H40   H     H_    0.453418 0.780687 0.692259 0.359890
O28   O     O_3   0.207697 0.678880 0.724232 -0.597947
H41   H     H_    0.272195 0.720685 0.745940 0.372055
O29   O     O_3   0.304973 0.504734 0.736024 -0.596080
H42   H     H_    0.320818 0.531187 0.701888 0.373377
O30   O     O_3   0.707233 0.677791 0.807963 -0.693659
H43   H     H_    0.781942 0.715162 0.793423 0.318190
O31   O     O_3   0.308934 0.022748 0.808629 -0.688939
H44   H     H_    0.265276 0.055871 0.796127 0.320344
O32   O     O_3   0.946522 0.248316 0.798603 -0.700125
H45   H     H_    0.910981 0.185213 0.775818 0.317181
O33   O     O_3   0.646710 0.675248 0.128724 -0.664417
H46   H     H_    0.610859 0.609016 0.149790 0.324689
O34   O     O_3   0.326234 0.976303 0.130227 -0.664205
H47   H     H_    0.392085 0.007999 0.151869 0.323551
O35   O     O_3   0.026052 0.352461 0.129386 -0.662988
H48   H     H_    0.994850 0.387582 0.150724 0.324233
O36   O     O_3   0.800908 0.070769 0.140255 -0.657949
H49   H     H_    0.813358 0.127878 0.164887 0.326964
O37   O     O_3   0.931899 0.725227 0.138333 -0.657061
H50   H     H_    0.874811 0.678955 0.162470 0.327199
O38   O     O_3   0.272680 0.201567 0.139515 -0.656407
H51   H     H_    0.318154 0.189386 0.163980 0.327657
O39   O     O_3   0.602828 0.968261 0.715053 -0.706316
H52   H     H_    0.577802 0.957426 0.680599 0.334893
O40   O     O_3   0.026030 0.631312 0.714938 -0.692284
H53   H     H_    0.038198 0.613061 0.681366 0.360836
O41   O     O_3   0.356707 0.374914 0.717848 -0.706377
H54   H     H_    0.375320 0.406931 0.684659 0.330330
O42   O     O_3   0.690465 0.684577 0.390653 -0.675024
H55   H     H_    0.729094 0.656434 0.369735 0.316919
O43   O     O_3   0.308244 0.004287 0.391921 -0.675030
H56   H     H_    0.334655 0.070950 0.371318 0.317146
O44   O     O_3   0.994907 0.308361 0.390899 -0.675137
H57   H     H_    0.928216 0.269487 0.369980 0.316868
O45   O     O_3   0.540676 0.630322 0.715696 -0.671344
H58   H     H_    0.542218 0.561778 0.723749 0.366157
O46   O     O_3   0.364691 0.914661 0.716132 -0.692887
H59   H     H_    0.430158 0.986596 0.724527 0.374754
O47   O     O_3   0.086816 0.445896 0.719840 -0.632468
H60   H     H_    0.017295 0.445333 0.728278 0.365501

loop_
_geom_bond_atom_site_label_1
_geom_bond_atom_site_label_2
_ccdc_geom_bond_type
C58   C62   S    
Cr5   O19   S    
C6    O32   S    
C34   O12   A    
O44   H57   S    
Cr6   O6    S    
C2    C18   S    
C24   C42   A    
C71   H32   S    
C28   H13   S    
C24   C27   A    
C7    H34   S    
C1    O3    A    
C81   C84   S    
C6    C9    S    
C66   O29   S    
O38   H51   S    
C9    O47   S    
O39   H52   S    
C25   C28   A    
C27   H9    S    
C33   C39   A    
C46   O33   S    
C3    O2    A    
C50   C59   A    
O27   H40   S    
Cr1   O16   S    
Cr4   O4    S    
C37   C40   A    
Cr6   O20   S    
C64   O39   S    
C10   C73   T    
Cr2   O2    S    
C14   C77   S    
C15   C78   S    
C40   O42   S    
O34   H47   S    
C45   C57   A    
O41   H54   S    
C12   C84   S    
C50   O37   S    
C23   C26   A    
C67   H25   S    
O36   H49   S    
Cr2   O8    S    
C35   O10   A    
C48   O35   S    
C22   C25   A    
C8    H35   S    
C20   O19   A    
C8    O46   S    
C21   O20   A    
Cr3   O15   S    
C38   H20   S    
C1    O7    A    
C6    H39   S    
Cr1   O10   S    
C37   H19   S    
C4    H37   S    
C44   C47   A    
Cr2   O11   S    
C68   H23   S    
C49   C52   A    
C39   H21   S    
O46   H59   S    
O42   H55   S    
C52   H16   S    
C65   C80   S    
C46   C58   A    
C27   C30   A    
C14   C17   T    
O31   H44   S    
C69   C78   S    
Cr4   O21   S    
C80   C83   S    
C21   O4    A    
C49   O36   S    
Cr2   O14   S    
C48   C60   A    
C39   C42   A    
C71   C83   S    
C65   O40   S    
C68   H26   S    
Cr5   O17   S    
C66   C78   S    
Cr4   O24   S    
C69   H24   S    
C50   C53   A    
C6    C84   S    
C24   C35   S    
C5    O31   S    
O33   H46   S    
C65   C77   S    
C43   H10   S    
C38   C41   A    
Cr6   O23   S    
C81   H6    S    
O47   H60   S    
C4    C7    S    
C21   C74   S    
C10   C82   S    
C19   O18   A    
C49   C58   A    
C31   C37   A    
C41   O43   S    
O43   H56   S    
C19   O5    A    
Cr3   O3    S    
C80   H2    S    
C69   C72   S    
C63   O21   A    
Cr1   O1    S    
C79   C82   S    
C81   H3    S    
C42   O44   S    
C13   C76   S    
C23   C34   S    
C22   C40   A    
C72   H30   S    
C64   C76   S    
C3    O9    A    
Cr3   O12   S    
C80   H5    S    
C53   H17   S    
C61   O22   A    
C72   C84   S    
C62   O23   A    
C79   H4    S    
C25   H7    S    
O37   H50   S    
C26   H8    S    
C32   C38   A    
C30   H15   S    
O28   H41   S    
C64   C79   S    
C4    O30   S    
C7    O45   S    
C13   C16   T    
Cr3   O9    S    
C51   O38   S    
Cr2   O16   S    
C47   O34   S    
O35   H48   S    
O30   H43   S    
C15   C18   T    
C45   C48   A    
C43   C55   A    
C68   C77   S    
C66   O41   S    
C34   O13   A    
C33   C57   S    
Cr5   O5    S    
Cr3   O16   S    
C30   C33   A    
C2    O8    A    
C79   H1    S    
C28   C31   A    
C65   O28   S    
C11   C74   T    
C61   O24   A    
Cr1   O13   S    
C5    C8    S    
C44   H11   S    
C52   C55   A    
C7    C76   S    
C51   C60   A    
C71   H29   S    
C29   C32   A    
C22   C36   S    
C64   O27   S    
C59   C63   S    
C9    H36   S    
C23   C41   A    
C54   H18   S    
C67   C70   S    
C11   C83   S    
O29   H42   S    
C51   C54   A    
C19   C75   S    
C36   O15   A    
C63   O26   A    
C72   H33   S    
O45   H58   S    
C66   C81   S    
C44   C56   A    
C70   H31   S    
Cr5   O25   S    
C8    C77   S    
O32   H45   S    
C70   H28   S    
C68   C71   S    
C5    C83   S    
C5    H38   S    
C69   H27   S    
C2    O1    A    
Cr4   O18   S    
C20   C73   S    
C9    C78   S    
C36   O11   A    
C20   O6    A    
C70   C82   S    
C43   C46   A    
C53   C56   A    
C45   H12   S    
Cr1   O7    S    
C47   C59   A    
C62   O25   A    
C67   H22   S    
Cr5   O22   S    
C4    C82   S    
C1    C17   S    
C29   H14   S    
C26   C29   A    
Cr6   O17   S    
C12   C75   T    
Cr4   O17   S    
C60   C61   S    
C67   C76   S    
C31   C55   S    
Cr6   O26   S    
C32   C56   S    
C3    C16   S    
O40   H53   S    
C35   O14   A    
C54   C57   A    
