data_mof_unit_pretest_1481.cif
_audit_creation_date              2012-12-10T18:01:44-0500
_audit_creation_method            fapswitch 2.2
_symmetry_space_group_name_H-M    P1
_symmetry_Int_Tables_number       1
_space_group_crystal_system       triclinic
_cell_length_a                    10.918417
_cell_length_b                    9.678779
_cell_length_c                    19.484947
_cell_angle_alpha                 91.197273
_cell_angle_beta                  93.513274
_cell_angle_gamma                 89.104413
_cell_volume                      2054.57868002

loop_
_atom_site_label
_atom_site_type_symbol
_atom_type_description
_atom_site_fract_x
_atom_site_fract_y
_atom_site_fract_z
_atom_type_partial_charge
C1    C     C_R   0.263052 0.500812 0.505955 0.842523
C2    C     C_R   0.736651 0.499194 0.492851 0.887518
C3    C     C_R   0.534068 0.486506 0.930381 0.468059
C4    C     C_R   0.530333 0.501086 0.068924 0.455613
C5    C     C_R   0.506392 0.497997 0.367273 0.834484
C6    C     C_R   0.493471 0.501806 0.632704 0.856800
C7    C     C_R   0.063883 0.376644 0.513262 -0.078988
C8    C     C_R   0.936077 0.624506 0.484958 -0.116526
C9    C     C_R   0.939691 0.373295 0.489470 -0.096361
C10   C     C_R   0.060644 0.626128 0.505783 -0.067853
C11   C     C_R   0.871476 0.498642 0.484867 -0.160974
C12   C     C_R   0.127916 0.501494 0.511272 -0.178720
C13   C     C_R   0.414431 0.072255 0.459357 0.034326
C14   C     C_R   0.574431 0.927456 0.546821 0.021437
C15   C     C_R   0.584291 0.073928 0.540826 -0.010169
C16   C     C_R   0.422543 0.924422 0.455356 0.006320
C17   C     C_R   0.568449 0.611346 0.257392 -0.067024
C18   C     C_R   0.470418 0.378756 0.744799 -0.056657
C19   C     C_R   0.502517 0.627664 0.751049 -0.088025
C20   C     C_R   0.494295 0.373463 0.248753 -0.074033
C21   C     C_R   0.567387 0.615907 0.184721 -0.073020
C22   C     C_R   0.494995 0.369858 0.816469 -0.079047
C23   C     C_R   0.537948 0.617150 0.822180 -0.077970
C24   C     C_R   0.495205 0.378724 0.176402 -0.072561
C25   C     C_R   0.528818 0.500189 0.144618 -0.098049
C26   C     C_R   0.530707 0.489089 0.854781 -0.102112
C27   C     C_R   0.522960 0.493591 0.290425 -0.167974
C28   C     C_R   0.487046 0.504170 0.710214 -0.160118
Cu1   Cu    Cu3+1 0.500000 0.640660 0.500000 1.064689
Cu2   Cu    Cu3+1 0.500000 0.359340 0.500000 1.074475
N1    N     N_R   0.500000 0.852070 0.500000 -0.245084
N2    N     N_R   0.500000 0.147930 0.500000 -0.230208
N3    N     N_R   0.427583 0.468459 0.029760 -0.163878
N4    N     N_R   0.637112 0.519518 0.969379 -0.165643
N5    N     N_R   0.429320 0.461829 0.961672 -0.174779
N6    N     N_R   0.635434 0.525757 0.037669 -0.171903
O1    O     O_R   0.319640 0.618740 0.500000 -0.558880
O2    O     O_R   0.680360 0.381260 0.500000 -0.568279
O3    O     O_R   0.680360 0.618740 0.500000 -0.514904
O4    O     O_R   0.319640 0.381260 0.500000 -0.541024
O5    O     O_R   0.499980 0.618820 0.400140 -0.580898
O6    O     O_R   0.500020 0.381180 0.599860 -0.551372
O7    O     O_R   0.500020 0.618820 0.599860 -0.552407
O8    O     O_R   0.499980 0.381180 0.400140 -0.516534
C29   C     C_2   0.107551 0.272028 0.564059 0.969742
O9    O     O_2   0.055258 0.263689 0.617466 -0.546416
O10   O     O_R   0.207710 0.185502 0.552644 -0.731991
H1    H     H_    0.229156 0.121096 0.591998 0.326774
C30   C     C_2   0.886085 0.748828 0.449394 1.046860
O11   O     O_2   0.927270 0.779658 0.394844 -0.514138
O12   O     O_R   0.802792 0.837536 0.479921 -0.682806
H2    H     H_    0.776811 0.918017 0.449616 0.337764
C31   C     C_2   0.892037 0.243473 0.455646 0.865820
O13   O     O_2   0.942492 0.132504 0.468117 -0.535036
O14   O     O_R   0.796478 0.249297 0.404545 -0.720289
H3    H     H_    0.775061 0.154798 0.384268 0.352445
C32   C     C_2   0.106306 0.751736 0.542726 0.942255
O15   O     O_2   0.155436 0.740559 0.600213 -0.554706
O16   O     O_R   0.081785 0.882547 0.516130 -0.647649
H4    H     H_    0.099346 0.958075 0.551657 0.359444
C33   C     C_2   0.630857 0.723112 0.298457 0.963730
O17   O     O_2   0.705992 0.692174 0.344516 -0.601710
O18   O     O_R   0.607626 0.862163 0.283714 -0.693161
H5    H     H_    0.658158 0.926653 0.315381 0.353928
C34   C     C_2   0.409650 0.262407 0.707757 0.949135
O19   O     O_2   0.300175 0.271381 0.691409 -0.557602
O20   O     O_R   0.476541 0.143546 0.692048 -0.662622
H6    H     H_    0.425779 0.075534 0.662752 0.319626
C35   C     C_2   0.452273 0.763148 0.725213 0.884853
O21   O     O_2   0.480802 0.872003 0.754286 -0.535390
O22   O     O_R   0.361860 0.765944 0.671768 -0.693392
H7    H     H_    0.333724 0.863302 0.659987 0.339976
C36   C     C_2   0.472805 0.236674 0.278086 0.941150
O23   O     O_2   0.553143 0.180747 0.314592 -0.577134
O24   O     O_R   0.364580 0.166817 0.258802 -0.687233
H8    H     H_    0.363881 0.070211 0.277567 0.371658
C37   C     C_2   0.610203 0.740158 0.150013 0.931138
O25   O     O_2   0.541376 0.799755 0.108089 -0.534001
O26   O     O_R   0.729647 0.787114 0.164470 -0.705492
H9    H     H_    0.747779 0.872228 0.137594 0.367404
C38   C     C_2   0.484463 0.235366 0.851740 0.920848
O27   O     O_2   0.566423 0.197093 0.892935 -0.547059
O28   O     O_R   0.380888 0.153578 0.838512 -0.693283
H10   H     H_    0.385243 0.065103 0.865571 0.379572
C39   C     C_2   0.576598 0.741377 0.863778 0.939485
O29   O     O_2   0.517213 0.781504 0.911757 -0.541473
O30   O     O_R   0.680331 0.813193 0.846922 -0.704297
H11   H     H_    0.696958 0.896716 0.878181 0.374913
C40   C     C_2   0.472114 0.252187 0.133213 0.903141
O31   O     O_2   0.367053 0.213603 0.120027 -0.482210
O32   O     O_R   0.570905 0.180555 0.106191 -0.718268
H12   H     H_    0.543909 0.097548 0.076803 0.379352
C41   C     C_2   0.306019 0.137696 0.421173 0.910172
O33   O     O_2   0.314927 0.242463 0.388845 -0.561208
O34   O     O_R   0.191510 0.074943 0.420395 -0.678327
H13   H     H_    0.127039 0.124116 0.389782 0.366372
C42   C     C_2   0.643230 0.864097 0.607942 0.919968
O35   O     O_2   0.701634 0.756809 0.603541 -0.522008
O36   O     O_R   0.652109 0.937855 0.670426 -0.714563
H14   H     H_    0.707900 0.890844 0.706667 0.378345
C43   C     C_2   0.694021 0.139121 0.576806 0.942601
O37   O     O_2   0.684971 0.238553 0.615499 -0.515825
O38   O     O_R   0.807773 0.072166 0.573587 -0.731504
H15   H     H_    0.872665 0.113385 0.606836 0.376173
C44   C     C_2   0.350034 0.850197 0.399812 0.926719
O39   O     O_2   0.386385 0.846066 0.341844 -0.602385
O40   O     O_R   0.235954 0.795718 0.411601 -0.686985
H16   H     H_    0.194967 0.750452 0.368958 0.354528

loop_
_geom_bond_atom_site_label_1
_geom_bond_atom_site_label_2
_ccdc_geom_bond_type
O30   H11   S    
C4    N6    A    
C41   O33   D    
C36   O23   D    
C13   N2    A    
O34   H13   S    
C14   N1    A    
O14   H3    S    
C24   C40   S    
C4    C25   S    
C15   N2    A    
C37   O25   D    
C18   C34   S    
C44   O40   S    
C43   O37   D    
O28   H10   S    
C7    C29   S    
C38   O27   D    
C32   O16   S    
Cu2   O2    S    
C33   O18   S    
C23   C26   A    
C35   O22   S    
C5    O5    A    
C1    O4    A    
C17   C33   S    
C5    C27   S    
C2    O3    A    
C6    C28   S    
C20   C24   A    
C30   O12   S    
O40   H16   S    
C40   O32   S    
C1    O1    A    
C37   O26   S    
O16   H4    S    
C43   O38   S    
Cu1   O7    S    
C36   O24   S    
Cu2   O8    S    
C33   O17   D    
C1    C12   S    
C2    C11   S    
C42   O36   S    
C42   O35   D    
C29   O10   S    
C7    C12   A    
C39   O30   S    
O20   H6    S    
C17   C27   A    
C22   C38   S    
C10   C32   S    
C18   C28   A    
C24   C25   A    
O32   H12   S    
C3    N4    A    
C34   O20   S    
C39   O29   D    
C17   C21   A    
O12   H2    S    
C13   C41   S    
C16   N1    A    
C19   C23   A    
O24   H8    S    
Cu1   Cu2   S    
C2    O2    A    
O10   H1    S    
C3    N5    A    
Cu1   O3    S    
Cu2   O4    S    
C15   C43   S    
C19   C28   A    
C9    C11   A    
C10   C12   A    
C16   C44   S    
C8    C10   A    
C5    O8    A    
C34   O19   D    
C6    O7    A    
C22   C26   A    
O26   H9    S    
C19   C35   S    
C9    C31   S    
C31   O14   S    
Cu1   O1    S    
C14   C42   S    
C7    C9    A    
C21   C25   A    
C4    N3    A    
Cu1   O5    S    
C18   C22   A    
C3    C26   S    
C38   O28   S    
C31   O13   D    
C20   C27   A    
C44   O39   D    
O36   H14   S    
C23   C39   S    
O22   H7    S    
Cu1   N1    S    
Cu2   N2    S    
C32   O15   D    
C8    C11   A    
N3    N5    A    
C20   C36   S    
N4    N6    A    
C35   O21   D    
O18   H5    S    
C29   O9    D    
C41   O34   S    
C30   O11   D    
C6    O6    A    
C13   C16   A    
C21   C37   S    
O38   H15   S    
C14   C15   A    
Cu2   O6    S    
C40   O31   D    
C8    C30   S    
