data_mof_unit_pretest_720.cif
_audit_creation_date              2012-12-11T14:32:55-0500
_audit_creation_method            fapswitch 2.2
_symmetry_space_group_name_H-M    P1
_symmetry_Int_Tables_number       1
_space_group_crystal_system       triclinic
_cell_length_a                    7.017363
_cell_length_b                    14.018127
_cell_length_c                    17.649271
_cell_angle_alpha                 112.113267
_cell_angle_beta                  96.11739
_cell_angle_gamma                 89.70397
_cell_volume                      1598.14364973

loop_
_atom_site_label
_atom_site_type_symbol
_atom_type_description
_atom_site_fract_x
_atom_site_fract_y
_atom_site_fract_z
_atom_type_partial_charge
O1    O     O_R   0.484560 0.544530 0.414330 -0.539197
O2    O     O_R   0.197040 0.638810 0.585080 -0.509896
O3    O     O_R   0.026800 0.455470 0.585670 -0.502292
C1    C     C_R   0.372783 0.679554 0.607013 0.712086
O4    O     O_R   0.155000 0.556150 0.414940 -0.547440
O5    O     O_R   0.984450 0.372220 0.414320 -0.542226
C2    C     C_R   0.316945 0.564792 0.386377 0.741872
O6    O     O_R   0.526900 0.627780 0.585680 -0.549917
O7    O     O_3   0.339170 0.439750 0.499990 -0.377251
V1    V     V_3+5 0.064350 0.511180 0.500000 1.437860
O8    O     O_R   0.654880 0.361190 0.414920 -0.539725
C3    C     C_R   0.817904 0.324246 0.387757 0.748388
O9    O     O_R   0.696930 0.443850 0.585060 -0.550458
C4    C     C_R   0.875088 0.429010 0.611494 0.722984
V2    V     V_3+5 0.564340 0.488820 0.500000 1.384279
O10   O     O_3   0.839390 0.560250 0.500010 -0.378719
C5    C     C_R   0.036921 0.846731 0.813168 -0.075251
C6    C     C_R   0.914309 0.388594 0.681070 -0.076112
C7    C     C_R   0.884380 0.816981 0.676255 -0.137153
C8    C     C_R   0.928464 0.782955 0.740689 -0.092637
C9    C     C_R   0.092123 0.944596 0.819955 -0.199006
C10   C     C_R   0.012903 0.989531 0.764151 0.120575
C11   C     C_R   0.920178 0.920492 0.688429 0.115667
C12   C     C_R   0.014701 0.098857 0.781165 -0.025638
C13   C     C_R   0.941794 0.134109 0.716940 0.019063
C14   C     C_R   0.866364 0.059667 0.640297 -0.172795
C15   C     C_R   0.856797 0.955418 0.626585 -0.194968
C16   C     C_R   0.067979 0.174007 0.861490 0.220595
C17   C     C_R   0.039939 0.278259 0.879319 0.165769
C18   C     C_R   0.995441 0.313676 0.813065 -0.016669
C19   C     C_R   0.945181 0.242288 0.731115 0.051062
C20   C     C_R   0.012121 0.419289 0.826772 -0.070077
C21   C     C_R   0.987520 0.455268 0.761286 -0.052630
C22   C     C_R   0.897634 0.282072 0.666833 -0.198353
H1    H     H_    0.795458 0.901033 0.567224 0.108349
H2    H     H_    0.855122 0.231823 0.603998 0.091557
H3    H     H_    0.808793 0.764705 0.619052 0.135200
H4    H     H_    0.875729 0.707622 0.733661 0.122860
H5    H     H_    0.201256 0.980262 0.869078 0.176776
H6    H     H_    0.807206 0.079797 0.589762 0.118953
H7    H     H_    0.105433 0.228158 0.304053 0.195382
H8    H     H_    0.837035 0.034508 0.195495 0.121167
C23   C     C_2   0.136204 0.035522 0.186226 0.118670
C24   C     C_2   0.973660 0.077026 0.218822 -0.162008
H9    H     H_    0.685295 0.171713 0.306707 0.153680
C25   C     C_2   0.816181 0.219040 0.323083 -0.389709
C26   C     C_2   0.973727 0.180923 0.285756 -0.107007
C27   C     C_R   0.405874 0.785060 0.672834 -0.075499
C28   C     C_R   0.544717 0.470110 0.828186 -0.107483
C29   C     C_R   0.534819 0.883627 0.812338 -0.169178
C30   C     C_R   0.475440 0.790271 0.750709 -0.109659
C31   C     C_R   0.397028 0.877907 0.657383 -0.198638
C32   C     C_R   0.450247 0.978256 0.721247 0.085801
C33   C     C_R   0.517855 0.977684 0.800505 0.031024
C34   C     C_R   0.439723 0.078350 0.711693 0.029232
C35   C     C_R   0.504900 0.172383 0.781516 -0.053317
C36   C     C_R   0.585844 0.160591 0.853395 -0.219538
C37   C     C_R   0.568797 0.070173 0.868125 0.279424
C38   C     C_R   0.370847 0.090416 0.636616 0.307777
C39   C     C_R   0.373134 0.187730 0.631828 -0.251308
C40   C     C_R   0.436534 0.277388 0.698317 0.067203
C41   C     C_R   0.495318 0.275123 0.776681 0.014498
C42   C     C_R   0.437174 0.369903 0.685109 -0.094483
C43   C     C_R   0.497549 0.463043 0.747699 -0.175149
C44   C     C_R   0.536387 0.376302 0.844479 -0.014145
H10   H     H_    0.499716 0.531704 0.733482 0.134797
H11   H     H_    0.319332 0.193483 0.573812 0.123498
H12   H     H_    0.598486 0.880251 0.869649 0.156609
H13   H     H_    0.491722 0.720580 0.763318 0.108896
H14   H     H_    0.353294 0.866466 0.594660 0.164692
H15   H     H_    0.669537 0.221500 0.898273 0.129980
H16   H     H_    0.391689 0.370103 0.624603 0.150491
H17   H     H_    0.336062 0.665104 0.191840 0.157888
H18   H     H_    0.611659 0.588754 0.308294 0.156013
C45   C     C_2   0.313142 0.601584 0.317737 -0.350278
C46   C     C_2   0.474837 0.609250 0.284604 -0.129012
H19   H     H_    0.772077 0.635118 0.208223 0.122959
C47   C     C_2   0.635374 0.654824 0.183802 -0.304870
C48   C     C_2   0.473135 0.645354 0.215934 -0.144688
H20   H     H_    0.176642 0.621853 0.293594 0.125587
O11   O     O_R   0.421600 0.630430 0.917010 -0.558515
O12   O     O_R   0.793840 0.702190 0.087630 -0.514929
O13   O     O_R   0.964010 0.886170 0.088190 -0.549393
C49   C     C_R   0.631860 0.693055 0.115992 0.825177
O14   O     O_R   0.751460 0.619510 0.917500 -0.517043
O15   O     O_R   0.921330 0.802900 0.916840 -0.553268
C50   C     C_R   0.575475 0.578926 0.893265 0.783180
O16   O     O_R   0.464290 0.713700 0.088350 -0.545142
O17   O     O_3   0.609200 0.818520 0.002630 -0.388101
V3    V     V_3+5 0.884140 0.747190 0.002530 1.450341
O18   O     O_R   0.251150 0.814630 0.917340 -0.542755
C51   C     C_R   0.073514 0.817598 0.885892 0.682703
O19   O     O_R   0.293530 0.897310 0.087470 -0.542296
C52   C     C_R   0.131448 0.932732 0.116902 0.663734
V4    V     V_3+5 0.384070 0.769710 0.002370 1.383356
O20   O     O_3   0.109180 0.698190 0.002460 -0.358676
C53   C     C_2   0.086917 0.490193 0.909011 0.485484
H21   H     H_    0.237542 0.504698 0.923970 0.028270
O21   O     O_2   0.983783 0.519938 0.963955 -0.462947
N1    N     N_2   0.315044 0.090647 0.218898 -0.516796
H22   H     H_    0.423761 0.044787 0.227646 0.251782
C54   C     C_3   0.368939 0.150157 0.172846 -0.598887
H23   H     H_    0.495157 0.201529 0.205958 0.205302
H24   H     H_    0.250217 0.199285 0.164362 0.206019
H25   H     H_    0.406149 0.096692 0.112352 0.207035
N2    N     N_2   0.594449 0.070329 0.950660 -0.530792
H26   H     H_    0.507713 0.018121 0.960624 0.261075
C55   C     C_3   0.633429 0.162727 0.024777 -0.621429
H27   H     H_    0.711819 0.141241 0.073731 0.211575
H28   H     H_    0.500104 0.198764 0.047657 0.196714
H29   H     H_    0.722681 0.220940 0.016926 0.199785
C56   C     C_2   0.539550 0.388158 0.931514 0.257845
H30   H     H_    0.461544 0.332978 0.946509 0.053827
O22   O     O_2   0.624804 0.460099 0.987807 -0.519113
N3    N     N_2   0.285650 0.007846 0.565665 -0.533982
H31   H     H_    0.146448 0.021178 0.548474 0.266390
C57   C     C_3   0.393358 0.976100 0.495201 -0.619357
H32   H     H_    0.401968 0.038166 0.470816 0.198104
H33   H     H_    0.539408 0.955608 0.511821 0.207211
H34   H     H_    0.321031 0.906885 0.445790 0.203492
C58   C     C_2   0.046396 0.563143 0.778840 0.242473
H35   H     H_    0.019526 0.621853 0.836235 0.087278
O23   O     O_2   0.138760 0.586117 0.733108 -0.544323
N4    N     N_2   0.007936 0.340772 0.962821 -0.455438
H36   H     H_    0.886004 0.321335 0.981149 0.270938
C59   C     C_3   0.157495 0.383116 0.032050 -0.451304
H37   H     H_    0.089354 0.430629 0.087458 0.197393
H38   H     H_    0.258823 0.436029 0.022714 0.202690
H39   H     H_    0.236513 0.324490 0.048538 0.158560
N5    N     N_2   0.171830 0.148735 0.924095 -0.533517
H40   H     H_    0.295916 0.191739 0.948385 0.281298
C60   C     C_3   0.069768 0.124907 0.982157 -0.586913
H41   H     H_    0.162191 0.079626 0.009809 0.185500
H42   H     H_    0.033358 0.195328 0.032588 0.206451
H43   H     H_    0.941729 0.075618 0.949991 0.259138

loop_
_geom_bond_atom_site_label_1
_geom_bond_atom_site_label_2
_ccdc_geom_bond_type
C13   C19   A    
C34   C35   A    
C45   C46   D    
O19   C52   A    
C34   C38   A    
C4    C6    S    
O2    C1    A    
C7    C8    A    
C46   C48   S    
C1    O6    A    
C5    C8    A    
C56   O22   D    
C53   H21   S    
H19   C47   S    
C35   C36   A    
C14   C15   A    
C59   H37   S    
H18   C46   S    
C23   N1    S    
C16   C17   A    
C20   C53   S    
C57   H33   S    
O5    C3    A    
C18   C19   A    
O11   V4    S    
N2    H26   S    
N3    H31   S    
C17   N4    S    
C23   C52   S    
C1    C27   S    
C55   H27   S    
C54   H25   S    
C40   C42   A    
C28   C50   S    
C7    H3    S    
O8    V2    S    
C27   C30   A    
V4    O20   S    
C39   H11   S    
C60   H41   S    
N3    C57   S    
O1    V2    S    
C11   C15   A    
C45   H20   S    
C22   H2    S    
C24   C26   S    
C35   C41   A    
O14   C50   A    
O16   V4    S    
C38   C39   A    
O19   V4    S    
C28   C43   A    
O9    C4    A    
C21   C58   S    
C54   H23   S    
C5    C51   S    
H8    C24   S    
O7    V1    S    
C56   H30   S    
C53   O21   D    
C32   C34   A    
H7    C26   S    
C49   O16   A    
C12   C13   A    
C3    C25   S    
O15   V3    S    
C57   H34   S    
O18   C51   A    
O4    C2    A    
C47   C48   D    
C2    C45   S    
C59   H39   S    
C15   H1    S    
C13   C14   A    
C32   C33   A    
O13   C52   A    
C5    C9    A    
C39   C40   A    
C37   N2    S    
C43   H10   S    
O17   V4    S    
N5    C60   S    
C23   C24   D    
C44   C56   S    
C17   C18   A    
C47   C49   S    
C8    H4    S    
C9    H5    S    
O14   V3    S    
N1    C54   S    
C29   C30   A    
H17   C48   S    
C19   C22   A    
C29   C33   A    
C36   H15   S    
C54   H24   S    
C6    C22   A    
C58   H35   S    
O11   C50   A    
O3    C4    A    
C28   C44   A    
C60   H42   S    
O6    V2    S    
O12   C49   A    
O9    V2    S    
C10   C12   A    
O2    V1    S    
C31   C32   A    
C7    C11   A    
N4    C59   S    
C33   C37   A    
O13   V3    S    
C25   C26   D    
C59   H38   S    
C41   C44   A    
O1    C2    A    
C12   C16   A    
O5    V1    S    
O8    C3    A    
V3    O20   S    
O12   V3    S    
C55   H29   S    
C20   C21   A    
N5    H40   S    
O7    V2    S    
O4    V1    S    
O3    V1    S    
V1    O10   S    
C57   H32   S    
C18   C20   A    
C14   H6    S    
C36   C37   A    
N2    C55   S    
C60   H43   S    
N1    H22   S    
C55   H28   S    
C16   N5    S    
C40   C41   A    
C6    C21   A    
C58   O23   D    
C31   H14   S    
O18   V4    S    
C42   C43   A    
H9    C25   S    
C27   C31   A    
C42   H16   S    
C38   N3    S    
C10   C11   A    
O15   C51   A    
C30   H13   S    
O17   V3    S    
C9    C10   A    
C29   H12   S    
V2    O10   S    
N4    H36   S    
