data_mof_unit_pretest_344.cif
_audit_creation_date              2012-12-10T16:59:58-0500
_audit_creation_method            fapswitch 2.2
_symmetry_space_group_name_H-M    P1
_symmetry_Int_Tables_number       1
_space_group_crystal_system       triclinic
_cell_length_a                    14.959004
_cell_length_b                    15.155779
_cell_length_c                    10.051372
_cell_angle_alpha                 93.716809
_cell_angle_beta                  91.755765
_cell_angle_gamma                 89.802647
_cell_volume                      2272.93723221

loop_
_atom_site_label
_atom_site_type_symbol
_atom_type_description
_atom_site_fract_x
_atom_site_fract_y
_atom_site_fract_z
_atom_type_partial_charge
C1    C     C_R   0.378949 0.883534 0.495024 0.986835
C2    C     C_R   0.374837 0.111699 0.500494 0.917428
C3    C     C_R   0.878938 0.383546 0.495024 0.986967
C4    C     C_R   0.874851 0.611717 0.500504 0.917368
C5    C     C_R   0.616661 0.121423 0.505500 0.770777
C6    C     C_R   0.619962 0.881922 0.498029 0.872368
C7    C     C_R   0.116649 0.621436 0.505498 0.770667
C8    C     C_R   0.119967 0.381925 0.498034 0.872178
C9    C     C_2   0.664284 0.734332 0.426801 -0.149032
C10   C     C_2   0.658844 0.270301 0.454316 -0.308310
C11   C     C_2   0.164332 0.234381 0.426589 -0.148968
C12   C     C_2   0.158872 0.770273 0.454102 -0.308562
C13   C     C_2   0.686841 0.813840 0.488172 0.303787
C14   C     C_2   0.672516 0.198942 0.526008 0.275216
C15   C     C_2   0.186840 0.313831 0.488204 0.303764
C16   C     C_2   0.172463 0.698992 0.525994 0.275049
C17   C     C_2   0.236617 0.171528 0.399839 -0.143301
C18   C     C_2   0.221648 0.843424 0.480205 -0.004117
C19   C     C_2   0.736561 0.671484 0.399980 -0.142782
C20   C     C_2   0.721617 0.343446 0.480475 -0.004481
C21   C     C_2   0.290590 0.156842 0.505454 -0.285730
C22   C     C_2   0.308643 0.820964 0.477885 -0.249960
C23   C     C_2   0.790625 0.656887 0.505520 -0.285838
C24   C     C_2   0.808613 0.320999 0.477872 -0.250142
C25   C     C_2   0.572526 0.008580 0.929945 0.514360
C26   C     C_2   0.072546 0.508526 0.929922 0.514812
C27   C     C_2   0.566480 0.027885 0.080477 -0.186108
C28   C     C_2   0.066507 0.527832 0.080477 -0.186378
H1    H     H_    0.271082 0.181232 0.604728 0.187006
H2    H     H_    0.328509 0.754647 0.442437 0.166641
H3    H     H_    0.771189 0.681337 0.604800 0.186773
H4    H     H_    0.828439 0.254720 0.442167 0.166771
H5    H     H_    0.620201 0.063636 0.134467 0.183501
H6    H     H_    0.120240 0.563542 0.134500 0.183334
H7    H     H_    0.457854 0.955897 0.098225 0.173851
H8    H     H_    0.957818 0.455935 0.098221 0.173941
N1    N     N_2   0.501330 0.000000 0.852150 -0.208946
N2    N     N_2   0.001330 0.500000 0.852150 -0.208897
N3    N     N_2   0.501360 0.000000 0.147810 -0.171172
N4    N     N_2   0.001360 0.500000 0.147810 -0.171073
O1    O     O_R   0.409520 0.909540 0.613040 -0.536658
O2    O     O_R   0.409520 0.090460 0.613040 -0.603774
O3    O     O_R   0.909520 0.409540 0.613040 -0.536736
O4    O     O_R   0.909520 0.590460 0.613040 -0.603710
O5    O     O_R   0.409560 0.909540 0.386900 -0.627056
O6    O     O_R   0.409560 0.090460 0.386900 -0.574069
O7    O     O_R   0.909560 0.409540 0.386900 -0.626830
O8    O     O_R   0.909560 0.590460 0.386900 -0.573999
O9    O     O_R   0.590440 0.090460 0.613100 -0.560351
O10   O     O_R   0.590440 0.909540 0.613100 -0.592630
O11   O     O_R   0.090440 0.590460 0.613100 -0.560530
O12   O     O_R   0.090440 0.409540 0.613100 -0.592518
O13   O     O_R   0.590480 0.090460 0.386960 -0.630264
O14   O     O_R   0.590480 0.909540 0.386960 -0.611092
O15   O     O_R   0.090480 0.590460 0.386960 -0.630260
O16   O     O_R   0.090480 0.409540 0.386960 -0.611112
Zn1   Zn    Zn3+2 0.499970 0.000000 0.650990 1.075113
Zn2   Zn    Zn3+2 0.999970 0.500000 0.650990 1.075113
Zn3   Zn    Zn3+2 0.500030 0.000000 0.349010 1.019985
Zn4   Zn    Zn3+2 0.000030 0.500000 0.349010 1.020129
C29   C     C_2   0.570635 0.703103 0.399285 0.848481
O17   O     O_2   0.509645 0.733011 0.466658 -0.680253
O18   O     O_R   0.553151 0.635699 0.300346 -0.762107
H9    H     H_    0.487565 0.618860 0.292755 0.356946
C30   C     C_2   0.587373 0.277161 0.349417 1.027078
O19   O     O_2   0.607122 0.297202 0.238400 -0.526781
O20   O     O_R   0.497450 0.265078 0.376965 -0.699416
H10   H     H_    0.487860 0.258038 0.475041 0.293981
C31   C     C_2   0.070696 0.203232 0.398651 0.848588
O21   O     O_2   0.009635 0.233010 0.465998 -0.680230
O22   O     O_R   0.053295 0.136053 0.299328 -0.762045
H11   H     H_    0.987704 0.119253 0.291462 0.356982
C32   C     C_2   0.087476 0.777051 0.349072 1.027202
O23   O     O_2   0.107307 0.797006 0.238046 -0.526811
O24   O     O_R   0.997529 0.764991 0.376499 -0.699371
H12   H     H_    0.987869 0.758022 0.474575 0.293858
O25   O     O_3   0.776606 0.838124 0.500171 -0.588675
C33   C     C_3   0.795639 0.877676 0.628425 -0.274264
H13   H     H_    0.772456 0.836101 0.707978 0.173919
H14   H     H_    0.765585 0.944403 0.639073 0.165942
H15   H     H_    0.869157 0.885241 0.641771 0.207807
O26   O     O_3   0.727888 0.208395 0.640538 -0.553290
C34   C     C_3   0.786467 0.135708 0.649429 -0.213482
H16   H     H_    0.803713 0.103388 0.550633 0.119282
H17   H     H_    0.757211 0.087383 0.713343 0.212530
H18   H     H_    0.849918 0.159492 0.699137 0.205131
O27   O     O_3   0.276613 0.338052 0.500665 -0.588901
C35   C     C_3   0.295404 0.377616 0.628982 -0.273292
H19   H     H_    0.271751 0.336227 0.708454 0.174288
H20   H     H_    0.265634 0.444479 0.639272 0.166045
H21   H     H_    0.368923 0.384864 0.642844 0.207619
O28   O     O_3   0.227712 0.708563 0.640644 -0.553219
C36   C     C_3   0.286316 0.635918 0.649789 -0.213799
H22   H     H_    0.303924 0.603758 0.551050 0.119461
H23   H     H_    0.256875 0.587465 0.713301 0.212427
H24   H     H_    0.349583 0.659707 0.700060 0.205194
C37   C     C_2   0.250047 0.135831 0.260249 1.126052
O29   O     O_2   0.245258 0.185927 0.169968 -0.533438
O30   O     O_R   0.263809 0.045712 0.228759 -0.737121
H25   H     H_    0.259295 0.008850 0.308622 0.299934
C38   C     C_2   0.186839 0.932474 0.523883 0.885805
O31   O     O_2   0.232076 0.983004 0.597470 -0.625563
O32   O     O_R   0.100069 0.956889 0.485564 -0.773671
H26   H     H_    0.083451 0.018317 0.522875 0.354256
C39   C     C_2   0.749870 0.635685 0.260412 1.125733
O33   O     O_2   0.744951 0.685700 0.170036 -0.533806
O34   O     O_R   0.763666 0.545555 0.229057 -0.737105
H27   H     H_    0.759235 0.508756 0.309003 0.299851
C40   C     C_2   0.686814 0.432448 0.524442 0.886501
O35   O     O_2   0.732232 0.483065 0.597618 -0.625788
O36   O     O_R   0.599853 0.456715 0.486874 -0.773686
H28   H     H_    0.583264 0.518118 0.524325 0.354304
O37   O     O_3   0.654585 0.002592 0.867694 -0.593369
C41   C     C_3   0.725613 0.980183 0.954934 -0.321439
H29   H     H_    0.708500 0.923216 0.013966 0.195379
H30   H     H_    0.746943 0.038551 0.020586 0.181710
H31   H     H_    0.784011 0.960092 0.894841 0.185906
O38   O     O_3   0.154583 0.502355 0.867595 -0.593466
C42   C     C_3   0.225845 0.480933 0.955078 -0.322535
H32   H     H_    0.209164 0.424271 0.014995 0.195648
H33   H     H_    0.246862 0.539812 0.019862 0.181857
H34   H     H_    0.284299 0.460815 0.895128 0.186045
C43   C     C_2   0.417887 0.035574 0.895984 0.968974
O39   O     O_2   0.414081 0.109490 0.952496 -0.583116
O40   O     O_R   0.339580 0.987412 0.866448 -0.725778
H35   H     H_    0.284304 0.019646 0.899840 0.378459
C44   C     C_2   0.917929 0.535670 0.895998 0.968910
O41   O     O_2   0.914207 0.609601 0.952480 -0.583283
O42   O     O_R   0.839570 0.487581 0.866518 -0.725742
H36   H     H_    0.784331 0.519877 0.899920 0.378402

loop_
_geom_bond_atom_site_label_1
_geom_bond_atom_site_label_2
_ccdc_geom_bond_type
O27   C35   S    
C36   H22   S    
N4    Zn4   S    
O6    Zn3   S    
C32   O23   D    
H7    N3    S    
O36   H28   S    
C7    O15   A    
C8    O16   A    
C44   O42   S    
C37   O29   D    
O13   Zn3   S    
C43   O39   D    
O25   C33   S    
C2    O6    A    
C39   O34   S    
C3    O3    A    
C38   O31   D    
C9    C29   S    
C5    O13   A    
O42   H36   S    
C40   O36   S    
C33   H14   S    
C43   O40   S    
C28   N4    D    
O9    Zn1   S    
C29   O18   S    
C31   O22   S    
C9    C13   D    
O38   C42   S    
O3    Zn2   S    
C25   N1    D    
O7    Zn4   S    
N1    C43   S    
C11   C15   D    
C9    C19   S    
O5    Zn3   S    
C20   C24   D    
O4    Zn2   S    
C30   O20   S    
O34   H27   S    
C8    O12   A    
C28   H6    S    
C1    C22   S    
C38   O32   S    
N2    Zn2   S    
C12   C32   S    
C32   O24   S    
C5    O9    A    
C3    C24   S    
C31   O21   D    
C6    O14   A    
O2    Zn1   S    
C37   O30   S    
O8    Zn4   S    
O14   Zn3   S    
C42   H33   S    
C13   O25   S    
C27   N3    D    
O20   H10   S    
C12   C16   D    
H8    N4    S    
C10   C14   D    
C10   C20   S    
C4    C23   S    
C33   H13   S    
C26   N2    D    
C4    O4    A    
C21   H1    S    
C27   H5    S    
O16   Zn4   S    
C18   C38   S    
C23   H3    S    
C19   C23   D    
O24   H12   S    
C24   H4    S    
C25   O37   S    
C34   H16   S    
C35   H21   S    
N3    Zn3   S    
C2    C21   S    
O11   Zn2   S    
C6    O10   A    
C5    C14   S    
O12   Zn2   S    
C19   C39   S    
C1    O1    A    
C7    C16   S    
C34   H17   S    
C35   H20   S    
C16   O28   S    
C8    C15   S    
O40   H35   S    
C25   C27   S    
C14   O26   S    
C44   O41   D    
C15   O27   S    
O37   C41   S    
C4    O8    A    
C10   C30   S    
C11   C17   S    
C22   H2    S    
C18   C22   D    
O10   Zn1   S    
C26   O38   S    
O18   H9    S    
C41   H30   S    
C42   H32   S    
C11   C31   S    
C41   H29   S    
C36   H24   S    
C39   O33   D    
C26   C28   S    
O30   H25   S    
C7    O11   A    
O22   H11   S    
C40   O35   D    
C6    C13   S    
C33   H15   S    
C1    O5    A    
C2    O2    A    
N2    C44   S    
C3    O7    A    
O28   C36   S    
C42   H34   S    
C30   O19   D    
C29   O17   D    
C17   C21   D    
C41   H31   S    
O1    Zn1   S    
C20   C40   S    
C34   H18   S    
C35   H19   S    
C36   H23   S    
O26   C34   S    
C12   C18   S    
O32   H26   S    
O15   Zn4   S    
C17   C37   S    
N1    Zn1   S    
