data_mof_unit_pretest_241.cif
_audit_creation_date              2012-12-10T20:26:31-0500
_audit_creation_method            fapswitch 2.2
_symmetry_space_group_name_H-M    P1
_symmetry_Int_Tables_number       1
_space_group_crystal_system       triclinic
_cell_length_a                    10.732124
_cell_length_b                    10.652322
_cell_length_c                    9.874044
_cell_angle_alpha                 89.87332
_cell_angle_beta                  89.750265
_cell_angle_gamma                 90.173318
_cell_volume                      1128.8021795

loop_
_atom_site_label
_atom_site_type_symbol
_atom_type_description
_atom_site_fract_x
_atom_site_fract_y
_atom_site_fract_z
_atom_type_partial_charge
C1    C     C_R   0.510108 0.260346 0.499960 0.863611
C2    C     C_R   0.561166 0.590406 0.071400 -0.103004
C3    C     C_R   0.561628 0.590109 0.927475 -0.080560
C4    C     C_R   0.262685 0.505065 0.500204 0.935490
C5    C     C_R   0.445985 0.403587 0.929835 0.199529
C6    C     C_3   0.311731 0.362403 0.930532 -0.288992
C7    C     C_3   0.318776 0.355418 0.084299 -0.509974
C8    C     C_R   0.503952 0.740100 0.499939 0.892209
C9    C     C_R   0.737402 0.498890 0.499643 0.913794
C10   C     C_2   0.932923 0.528751 0.388733 -0.154094
C11   C     C_2   0.869246 0.492710 0.498613 -0.327433
C12   C     C_R   0.537997 0.129202 0.501708 -0.212342
C13   C     C_2   0.067084 0.522647 0.386390 -0.146971
C14   C     C_2   0.131583 0.523150 0.501570 -0.343896
C15   C     C_R   0.517328 0.063770 0.622124 0.154838
C16   C     C_2   0.220080 0.459574 0.882311 0.521068
C17   C     C_2   0.639621 0.127902 0.266918 0.413874
C18   C     C_R   0.583524 0.063841 0.386481 -0.031941
C19   C     C_R   0.573995 0.933023 0.386907 -0.191370
C20   C     C_R   0.526403 0.871354 0.501525 -0.157013
C21   C     C_R   0.512393 0.936256 0.622124 0.124824
C22   C     C_3   0.409904 0.931495 0.724793 -0.434194
C23   C     C_3   0.415347 0.073678 0.725315 -0.481308
C24   C     C_R   0.449233 0.401726 0.072168 0.218467
H1    H     H_    0.886231 0.559723 0.297126 0.174288
H2    H     H_    0.089043 0.540199 0.599544 0.156731
H3    H     H_    0.600230 0.880004 0.297696 0.197508
H4    H     H_    0.321450 0.893271 0.683208 0.207788
H5    H     H_    0.440658 0.888621 0.821776 0.222972
H6    H     H_    0.329738 0.118373 0.684614 0.194733
H7    H     H_    0.141108 0.430191 0.821860 0.024740
H8    H     H_    0.676681 0.222352 0.275279 0.089777
H9    H     H_    0.449808 0.112528 0.822640 0.218131
H10   H     H_    0.608511 0.664801 0.125182 0.144745
H11   H     H_    0.609513 0.664142 0.872868 0.144551
H12   H     H_    0.297549 0.269232 0.882999 0.123584
H13   H     H_    0.257377 0.422273 0.138741 0.224998
H14   H     H_    0.315070 0.257695 0.123872 0.194877
H15   H     H_    0.912512 0.455674 0.589206 0.146302
H16   H     H_    0.112353 0.516365 0.288205 0.175190
N1    N     N_R   0.499170 0.499140 0.142800 -0.107550
N2    N     N_R   0.499170 0.499180 0.857150 -0.098881
O1    O     O_R   0.500020 0.316790 0.614690 -0.615186
O2    O     O_2   0.647725 0.074636 0.157834 -0.592741
O3    O     O_R   0.500000 0.316760 0.385350 -0.635645
O4    O     O_R   0.319080 0.500020 0.614640 -0.613573
O5    O     O_R   0.319070 0.499980 0.385300 -0.610543
O6    O     O_R   0.500000 0.683240 0.614650 -0.612307
O7    O     O_R   0.499980 0.683210 0.385310 -0.622673
O8    O     O_R   0.680930 0.500020 0.614700 -0.622226
O9    O     O_R   0.680920 0.499980 0.385360 -0.631317
O10   O     O_2   0.231371 0.570134 0.912775 -0.569381
Zn1   Zn    Zn3+2 0.500010 0.500020 0.653130 0.968010
Zn2   Zn    Zn3+2 0.499990 0.499980 0.346870 0.948481

loop_
_geom_bond_atom_site_label_1
_geom_bond_atom_site_label_2
_ccdc_geom_bond_type
C5    N2    A    
C8    O6    A    
C3    N2    A    
C6    C7    S    
C22   H5    S    
C19   H3    S    
C19   C20   A    
C9    O9    A    
C12   C15   A    
C3    H11   S    
O9    Zn2   S    
C2    H10   S    
C15   C23   S    
C2    C3    A    
C7    H13   S    
C17   O2    D    
C10   C13   S    
C22   H4    S    
C21   C22   S    
C14   H2    S    
C16   H7    S    
C11   H15   S    
C24   N1    A    
C9    C11   S    
C1    O3    A    
C8    C20   S    
C5    C24   A    
O5    Zn2   S    
C5    C6    S    
O4    Zn1   S    
C7    H14   S    
C6    H12   S    
O3    Zn2   S    
C17   C18   S    
N2    Zn1   S    
C4    C14   S    
O6    Zn1   S    
N1    Zn2   S    
O8    Zn1   S    
C10   C11   D    
C2    N1    A    
C6    C16   S    
O7    Zn2   S    
C23   H6    S    
C16   O10   D    
C15   C21   A    
C20   C21   A    
C10   H1    S    
C18   C19   A    
C12   C18   A    
C17   H8    S    
C22   C23   S    
C13   H16   S    
C4    O4    A    
C13   C14   D    
O1    Zn1   S    
C8    O7    A    
C1    O1    A    
C1    C12   S    
C9    O8    A    
C7    C24   S    
C23   H9    S    
C4    O5    A    
