data_mof_unit_pretest_1510.cif
_audit_creation_date              2012-12-10T17:01:23-0500
_audit_creation_method            fapswitch 2.2
_symmetry_space_group_name_H-M    P1
_symmetry_Int_Tables_number       1
_space_group_crystal_system       triclinic
_cell_length_a                    20.060378
_cell_length_b                    22.558286
_cell_length_c                    15.085868
_cell_angle_alpha                 90.277826
_cell_angle_beta                  90.348271
_cell_angle_gamma                 90.009054
_cell_volume                      6826.56732231

loop_
_atom_site_label
_atom_site_type_symbol
_atom_type_description
_atom_site_fract_x
_atom_site_fract_y
_atom_site_fract_z
_atom_type_partial_charge
C1    C     C_R   0.372988 0.885646 0.484895 0.807795
C2    C     C_R   0.266679 0.754092 0.539041 0.097091
C3    C     C_R   0.780921 0.757504 0.516304 0.096356
C4    C     C_R   0.766677 0.254094 0.539042 0.097092
C5    C     C_R   0.331980 0.215636 0.514419 -0.224291
C6    C     C_R   0.310906 0.801420 0.547933 -0.217779
C7    C     C_R   0.831978 0.715634 0.514428 -0.224292
C8    C     C_R   0.810903 0.301423 0.547934 -0.217778
C9    C     C_R   0.255074 0.142326 0.454823 -0.223989
C10   C     C_R   0.292786 0.827172 0.393643 -0.214722
C11   C     C_R   0.755077 0.642329 0.454807 -0.223988
C12   C     C_R   0.372517 0.114033 0.485817 0.805167
C13   C     C_R   0.792791 0.327168 0.393641 -0.214723
C14   C     C_R   0.203351 0.183441 0.458390 -0.148976
C15   C     C_R   0.249603 0.779190 0.383549 -0.147008
C16   C     C_R   0.703355 0.683446 0.458370 -0.148979
C17   C     C_R   0.749610 0.279185 0.383547 -0.147009
C18   C     C_R   0.519804 0.995662 0.163789 -0.019316
C19   C     C_R   0.019804 0.495662 0.163789 -0.019315
C20   C     C_R   0.478640 0.001481 0.834903 0.010006
C21   C     C_R   0.978640 0.501481 0.834903 0.010006
C22   C     C_R   0.420995 0.036422 0.965361 -0.206929
C23   C     C_R   0.872989 0.385646 0.484894 0.807792
C24   C     C_R   0.920994 0.536422 0.965361 -0.206928
C25   C     C_R   0.425285 0.031866 0.873575 -0.193209
C26   C     C_R   0.925285 0.531867 0.873575 -0.193209
C27   C     C_R   0.528436 0.976152 0.887581 -0.271969
C28   C     C_R   0.028437 0.476152 0.887581 -0.271969
C29   C     C_R   0.627181 0.113889 0.514959 0.876429
C30   C     C_R   0.627332 0.886343 0.514690 0.870570
C31   C     C_R   0.127181 0.613889 0.514959 0.876433
C32   C     C_R   0.127332 0.386343 0.514690 0.870563
C33   C     C_R   0.525887 0.982421 0.979597 0.181111
C34   C     C_R   0.872517 0.614033 0.485817 0.805171
C35   C     C_R   0.025887 0.482421 0.979597 0.181111
C36   C     C_R   0.471285 0.012213 0.018780 0.173651
C37   C     C_R   0.971285 0.512213 0.018780 0.173650
C38   C     C_R   0.468218 0.017870 0.110687 -0.262608
C39   C     C_R   0.968218 0.517870 0.110687 -0.262607
C40   C     C_R   0.574781 0.967603 0.124711 -0.179874
C41   C     C_R   0.074781 0.467603 0.124711 -0.179878
C42   C     C_R   0.577489 0.960445 0.033014 -0.211259
C43   C     C_R   0.077489 0.460444 0.033013 -0.211257
C44   C     C_R   0.514466 0.999566 0.260055 0.822802
C45   C     C_R   0.715659 0.741148 0.489330 0.047994
C46   C     C_R   0.014466 0.499566 0.260055 0.822801
C47   C     C_R   0.484940 0.000231 0.739303 0.781791
C48   C     C_R   0.984940 0.500231 0.739303 0.781790
C49   C     C_R   0.319262 0.158085 0.483807 -0.015034
C50   C     C_R   0.324142 0.837985 0.475494 -0.012016
C51   C     C_R   0.819263 0.658086 0.483805 -0.015040
C52   C     C_R   0.824143 0.337984 0.475493 -0.012013
C53   C     C_R   0.678789 0.841334 0.519018 -0.123575
C54   C     C_R   0.677425 0.159922 0.521393 -0.124701
C55   C     C_R   0.178790 0.341334 0.519017 -0.123584
C56   C     C_R   0.736368 0.242184 0.455776 0.048561
C57   C     C_R   0.177425 0.659922 0.521393 -0.124701
C58   C     C_R   0.794316 0.815627 0.543980 -0.197748
C59   C     C_R   0.751867 0.218848 0.612437 -0.194635
C60   C     C_R   0.294320 0.315631 0.543962 -0.197749
C61   C     C_R   0.251872 0.718843 0.612435 -0.194631
C62   C     C_R   0.743572 0.857596 0.543997 -0.290434
C63   C     C_R   0.706595 0.172484 0.603848 -0.290758
C64   C     C_R   0.243576 0.357598 0.543982 -0.290426
C65   C     C_R   0.206600 0.672480 0.603847 -0.290757
C66   C     C_R   0.664407 0.783158 0.492578 0.538663
C67   C     C_R   0.215658 0.241147 0.489339 0.047989
C68   C     C_R   0.692634 0.194125 0.447049 0.540119
C69   C     C_R   0.164405 0.283156 0.492590 0.538662
C70   C     C_R   0.192630 0.694127 0.447050 0.540114
C71   C     C_R   0.236365 0.742186 0.455777 0.048560
C72   C     C_R   0.280922 0.257505 0.516298 0.096358
F1    F     F_    0.601470 0.768456 0.466606 -0.675203
F2    F     F_    0.662660 0.182118 0.367866 -0.676056
F3    F     F_    0.101466 0.268450 0.466632 -0.675196
F4    F     F_    0.162651 0.682124 0.367868 -0.676055
H1    H     H_    0.381792 0.227947 0.536014 0.157497
H2    H     H_    0.070183 0.453712 0.856715 0.137271
H3    H     H_    0.244569 0.097790 0.431473 0.166207
H4    H     H_    0.302945 0.854957 0.336941 0.167394
H5    H     H_    0.744574 0.597795 0.431449 0.166213
H6    H     H_    0.802953 0.354951 0.336938 0.167392
H7    H     H_    0.344123 0.328793 0.564169 0.159449
H8    H     H_    0.274410 0.727742 0.676604 0.159422
H9    H     H_    0.844117 0.828787 0.564199 0.159450
H10   H     H_    0.774400 0.227749 0.676607 0.159424
H11   H     H_    0.653984 0.670040 0.436779 0.198122
H12   H     H_    0.334662 0.810119 0.611466 0.155755
H13   H     H_    0.726659 0.271221 0.319404 0.197580
H14   H     H_    0.153978 0.170033 0.436810 0.198121
H15   H     H_    0.226649 0.771229 0.319407 0.197580
H16   H     H_    0.754688 0.902802 0.563705 0.168520
H17   H     H_    0.694248 0.146283 0.661484 0.168401
H18   H     H_    0.254694 0.402806 0.563679 0.168526
H19   H     H_    0.194256 0.646277 0.661482 0.168397
H20   H     H_    0.426042 0.040050 0.140920 0.157875
H21   H     H_    0.926042 0.540050 0.140920 0.157875
H22   H     H_    0.614778 0.949918 0.165247 0.166981
H23   H     H_    0.881788 0.727944 0.536034 0.157502
H24   H     H_    0.114778 0.449918 0.165247 0.166979
H25   H     H_    0.379159 0.059686 0.994431 0.146306
H26   H     H_    0.879158 0.559686 0.994432 0.146306
H27   H     H_    0.834655 0.310124 0.611468 0.155752
H28   H     H_    0.619845 0.937950 0.003939 0.146574
H29   H     H_    0.119846 0.437950 0.003939 0.146573
H30   H     H_    0.387018 0.051946 0.832574 0.144736
H31   H     H_    0.887017 0.551947 0.832574 0.144735
H32   H     H_    0.570183 0.953713 0.856715 0.137271
O1    O     O_3   0.500000 0.000000 0.500000 -0.496751
O2    O     O_R   0.135640 0.430410 0.463140 -0.653146
O3    O     O_R   0.456890 0.000000 0.295720 -0.645793
O4    O     O_R   0.956890 0.500000 0.295720 -0.645794
O5    O     O_R   0.488070 0.049450 0.698020 -0.641979
O6    O     O_R   0.488070 0.950550 0.698020 -0.642813
O7    O     O_R   0.988070 0.549450 0.698020 -0.641980
O8    O     O_R   0.988070 0.450550 0.698020 -0.642812
O9    O     O_R   0.370630 0.069610 0.433010 -0.645108
O10   O     O_R   0.370630 0.930390 0.433010 -0.650091
O11   O     O_R   0.870630 0.569610 0.433010 -0.645110
O12   O     O_3   1.000000 0.500000 0.500000 -0.496751
O13   O     O_R   0.870630 0.430390 0.433010 -0.650092
O14   O     O_R   0.574320 0.880940 0.560740 -0.606331
O15   O     O_R   0.574320 0.119060 0.560740 -0.647947
O16   O     O_R   0.074320 0.380940 0.560740 -0.606321
O17   O     O_R   0.074320 0.619060 0.560740 -0.647944
O18   O     O_R   0.566990 0.000000 0.308240 -0.627864
O19   O     O_R   0.066990 0.500000 0.308240 -0.627865
O20   O     O_R   0.419410 0.880950 0.543120 -0.628301
O21   O     O_R   0.419410 0.119050 0.543120 -0.641935
O22   O     O_R   0.919410 0.380950 0.543120 -0.628297
O23   O     O_R   0.919410 0.619050 0.543120 -0.641936
O24   O     O_R   0.635640 0.069590 0.463140 -0.609695
O25   O     O_R   0.635640 0.930410 0.463140 -0.653142
O26   O     O_R   0.135640 0.569590 0.463140 -0.609700
Zn1   Zn    Zn3+2 0.583120 0.000000 0.434770 1.012359
Zn2   Zn    Zn3+2 0.083120 0.500000 0.434770 1.012353
Zn3   Zn    Zn3+2 0.425830 0.000000 0.416880 0.978530
Zn4   Zn    Zn3+2 0.925830 0.500000 0.416880 0.978529
Zn5   Zn    Zn3+2 0.495530 0.070660 0.574170 0.974458
Zn6   Zn    Zn3+2 0.495530 0.929340 0.574170 0.998297
Zn7   Zn    Zn3+2 0.995530 0.570660 0.574170 0.974460
Zn8   Zn    Zn3+2 0.995530 0.429340 0.574170 0.998301

loop_
_geom_bond_atom_site_label_1
_geom_bond_atom_site_label_2
_ccdc_geom_bond_type
C58   C62   A    
C47   O6    A    
C21   C26   A    
O7    Zn7   S    
C46   O4    A    
O1    Zn1   S    
C32   O16   A    
O2    Zn2   S    
C1    O20   A    
C4    C8    A    
C5    C49   A    
C12   C49   S    
C19   C46   S    
C23   O13   A    
C11   H5    S    
C44   O18   A    
C34   C51   S    
C22   H25   S    
C7    H23   S    
O1    Zn6   S    
C33   C42   A    
C19   C39   A    
C35   C37   A    
C24   C26   A    
C5    C72   A    
C3    C7    A    
C10   C15   A    
C40   H22   S    
C60   H7    S    
C39   H21   S    
C29   O24   A    
C54   C68   A    
C20   C25   A    
C60   C72   A    
C68   F2    S    
O15   Zn5   S    
C33   C36   A    
C6    H12   S    
O1    Zn3   S    
C67   C72   A    
C9    H3    S    
C18   C40   A    
C54   C63   A    
C14   H14   S    
C30   O14   A    
C28   C35   A    
O17   Zn7   S    
C22   C25   A    
C62   H16   S    
C16   H11   S    
C14   C67   A    
O5    Zn5   S    
C70   C71   A    
O6    Zn6   S    
C57   C70   A    
O10   Zn3   S    
C35   C43   A    
C1    C50   S    
C8    C52   A    
C32   C55   S    
O23   Zn7   S    
C2    C61   A    
C48   O8    A    
C21   C48   S    
C40   C42   A    
C4    C56   A    
C41   C43   A    
O16   Zn8   S    
O1    Zn5   S    
C2    C6    A    
C31   O26   A    
C25   H30   S    
C30   C53   S    
C12   O21   A    
O4    Zn4   S    
C46   O19   A    
C9    C49   A    
O19   Zn2   S    
C10   H4    S    
O26   Zn2   S    
C56   C68   A    
C66   F1    S    
C15   H15   S    
C13   H6    S    
C3    C45   A    
C27   C33   A    
C23   O22   A    
O12   Zn2   S    
O13   Zn4   S    
C16   C45   A    
C9    C14   A    
C3    C58   A    
C18   C44   S    
C13   C52   A    
C11   C16   A    
O21   Zn5   S    
C43   H29   S    
C30   O25   A    
C55   C64   A    
C24   C37   A    
C41   H24   S    
C17   H13   S    
O12   Zn8   S    
C6    C50   A    
C53   C66   A    
C17   C56   A    
C55   C69   A    
C32   O2    A    
C15   C71   A    
C48   O7    A    
O8    Zn8   S    
C21   C28   A    
O18   Zn1   S    
C70   F4    S    
O12   Zn4   S    
C31   O17   A    
C5    H1    S    
C2    C71   A    
C10   C50   A    
C58   H9    S    
C28   H2    S    
O3    Zn3   S    
C34   O11   A    
C47   O5    A    
O11   Zn4   S    
O9    Zn3   S    
O12   Zn7   S    
C57   C65   A    
O14   Zn6   S    
C61   H8    S    
C42   H28   S    
C26   H31   S    
C34   O23   A    
C20   C27   A    
C22   C36   A    
C63   H17   S    
C59   C63   A    
C13   C17   A    
C60   C64   A    
C31   C57   S    
C36   C38   A    
O20   Zn6   S    
C59   H10   S    
C7    C51   A    
C37   C39   A    
C23   C52   S    
C27   H32   S    
O24   Zn1   S    
C29   O15   A    
C4    C59   A    
C69   F3    S    
C24   H26   S    
C1    O10   A    
C18   C38   A    
O22   Zn8   S    
C8    H27   S    
C20   C47   S    
C11   C51   A    
C64   H18   S    
C12   O9    A    
C44   O3    A    
C61   C65   A    
C65   H19   S    
C53   C62   A    
C29   C54   S    
C38   H20   S    
C45   C66   A    
O25   Zn1   S    
C67   C69   A    
C19   C41   A    
