data_mof_unit_pretest_1966.cif
_audit_creation_date              2012-12-10T18:00:48-0500
_audit_creation_method            fapswitch 2.2
_symmetry_space_group_name_H-M    P1
_symmetry_Int_Tables_number       1
_space_group_crystal_system       triclinic
_cell_length_a                    30.768259
_cell_length_b                    30.705129
_cell_length_c                    24.802757
_cell_angle_alpha                 90.002503
_cell_angle_beta                  128.454286
_cell_angle_gamma                 89.949414
_cell_volume                      18349.883679

loop_
_atom_site_label
_atom_site_type_symbol
_atom_type_description
_atom_site_fract_x
_atom_site_fract_y
_atom_site_fract_z
_atom_type_partial_charge
C1    C     C_R   0.809162 0.809328 0.499903 0.801775
C2    C     C_R   0.534365 0.751263 0.070516 0.375502
C3    C     C_R   0.908244 0.093130 0.500310 -0.084700
C4    C     C_R   0.649052 0.590414 0.540913 0.123026
C5    C     C_R   0.392489 0.590731 0.541366 0.125534
C6    C     C_R   0.107642 0.090687 0.458730 0.125593
C7    C     C_R   0.850920 0.090624 0.458689 0.122394
C8    C     C_3   0.697849 0.562922 0.592670 -0.476262
C9    C     C_3   0.396854 0.563832 0.594483 -0.474852
C10   C     C_3   0.103569 0.063696 0.405894 -0.475020
C11   C     C_3   0.802114 0.063352 0.406551 -0.474520
C12   C     C_3   0.733214 0.597845 0.591442 -0.460060
C13   C     C_R   0.963348 0.253175 0.930740 0.396381
C14   C     C_3   0.360299 0.598808 0.593359 -0.469153
C15   C     C_3   0.140094 0.098644 0.407026 -0.468766
C16   C     C_3   0.766717 0.098291 0.407804 -0.460542
C17   C     C_R   0.440478 0.559432 0.499839 0.802025
C18   C     C_R   0.559453 0.559430 0.500031 0.801555
C19   C     C_R   0.940545 0.059440 0.499942 0.801641
C20   C     C_R   0.059516 0.059427 0.500134 0.801716
C21   C     C_R   0.940386 0.940694 0.499927 0.801015
C22   C     C_R   0.059611 0.940523 0.500138 0.797257
C23   C     C_R   0.440422 0.440709 0.500022 0.800951
C24   C     C_R   0.034477 0.251278 0.070569 0.375206
C25   C     C_R   0.559514 0.440510 0.499965 0.796952
C26   C     C_R   0.816329 0.749976 0.632594 0.778487
C27   C     C_R   0.183726 0.749953 0.367407 0.778203
C28   C     C_R   0.316301 0.249947 0.632608 0.778505
C29   C     C_R   0.683714 0.249962 0.367418 0.780645
C30   C     C_R   0.612630 0.787467 0.255837 -0.165772
C31   C     C_R   0.383980 0.788905 0.743714 -0.167320
C32   C     C_R   0.113344 0.287722 0.255886 -0.163079
C33   C     C_R   0.884548 0.288770 0.743752 -0.172734
C34   C     C_R   0.575549 0.788572 0.183839 0.432652
C35   C     C_R   0.898689 0.842807 0.545752 0.122584
C36   C     C_R   0.417365 0.791434 0.815520 0.425873
C37   C     C_R   0.076307 0.288849 0.183890 0.432285
C38   C     C_R   0.917997 0.291340 0.815565 0.426364
C39   C     C_R   0.571268 0.751693 0.146240 -0.040017
C40   C     C_R   0.423862 0.754186 0.854089 -0.052387
C41   C     C_R   0.071391 0.251721 0.146294 -0.039718
C42   C     C_R   0.923928 0.254299 0.854143 -0.052449
C43   C     C_R   0.603744 0.714727 0.181937 -0.194625
C44   C     C_R   0.392957 0.716530 0.818145 -0.199149
C45   C     C_R   0.103200 0.214496 0.182000 -0.195655
C46   C     C_R   0.150289 0.843244 0.549817 0.106454
C47   C     C_R   0.892416 0.216859 0.818207 -0.198762
C48   C     C_R   0.640911 0.714297 0.253835 -0.181687
C49   C     C_R   0.357681 0.715252 0.746287 -0.193137
C50   C     C_R   0.140340 0.214044 0.253899 -0.190056
C51   C     C_R   0.857112 0.215565 0.746350 -0.184937
C52   C     C_R   0.352851 0.342817 0.454246 0.119522
C53   C     C_R   0.600453 0.343456 0.450052 0.105357
C54   C     C_R   0.841312 0.842664 0.498608 -0.083937
C55   C     C_R   0.158319 0.843465 0.500355 -0.081775
C56   C     C_R   0.342661 0.342679 0.501317 -0.082818
C57   C     C_R   0.190444 0.809457 0.499445 0.797301
C58   C     C_R   0.658037 0.343444 0.499802 -0.080683
C59   C     C_R   0.815467 0.876720 0.449879 -0.203128
C60   C     C_R   0.139851 0.879558 0.456141 -0.200471
C61   C     C_R   0.365511 0.376781 0.549886 -0.205695
C62   C     C_R   0.683940 0.379286 0.544493 -0.199758
C63   C     C_R   0.847932 0.908944 0.449504 -0.205139
C64   C     C_R   0.107288 0.911667 0.455750 -0.210391
C65   C     C_R   0.398312 0.409022 0.550224 -0.206871
C66   C     C_R   0.651772 0.411371 0.544953 -0.210016
C67   C     C_R   0.906348 0.908108 0.499344 -0.094813
C68   C     C_R   0.309253 0.309330 0.500084 0.800728
C69   C     C_R   0.094767 0.908516 0.501268 -0.083749
C70   C     C_R   0.406878 0.408161 0.500497 -0.092268
C71   C     C_R   0.593600 0.408441 0.499057 -0.084999
C72   C     C_R   0.929650 0.874505 0.547054 0.127332
C73   C     C_R   0.119618 0.875604 0.550867 0.146134
C74   C     C_R   0.382464 0.374537 0.452897 0.126410
C75   C     C_R   0.568753 0.375784 0.449102 0.145812
C76   C     C_3   0.982988 0.855488 0.607408 -0.466104
C77   C     C_3   0.093648 0.844219 0.569244 -0.501851
C78   C     C_3   0.375497 0.355469 0.392735 -0.466446
C79   C     C_R   0.691020 0.309452 0.500587 0.797903
C80   C     C_3   0.524135 0.344454 0.430086 -0.498989
C81   C     C_3   0.947494 0.819529 0.606279 -0.479267
C82   C     C_3   0.127335 0.808640 0.567940 -0.448474
C83   C     C_3   0.341176 0.319490 0.393903 -0.470361
C84   C     C_3   0.559097 0.308911 0.431246 -0.451537
C85   C     C_R   0.683691 0.750097 0.367412 0.803038
C86   C     C_R   0.316213 0.750123 0.632553 0.803786
C87   C     C_R   0.183700 0.250092 0.367425 0.802631
C88   C     C_R   0.816202 0.250147 0.632565 0.801553
C89   C     C_R   0.836337 0.764921 0.745185 -0.179451
C90   C     C_R   0.645492 0.750597 0.291387 -0.118883
C91   C     C_R   0.163588 0.765540 0.254844 -0.182569
C92   C     C_R   0.336467 0.265476 0.745187 -0.182516
C93   C     C_R   0.663663 0.265118 0.254820 -0.179708
C94   C     C_R   0.872191 0.764466 0.817127 -0.153168
C95   C     C_R   0.127832 0.765077 0.182895 -0.153309
C96   C     C_R   0.372265 0.265005 0.817135 -0.153084
C97   C     C_R   0.627854 0.264636 0.182874 -0.153001
C98   C     C_R   0.927151 0.749817 0.853880 0.054999
C99   C     C_R   0.073202 0.749705 0.146069 0.054980
C100  C     C_R   0.426951 0.249678 0.853937 0.054840
C101  C     C_R   0.353431 0.751223 0.708518 -0.115342
C102  C     C_R   0.573045 0.249707 0.146116 0.055193
C103  C     C_R   0.945379 0.735254 0.817226 -0.153005
C104  C     C_R   0.055231 0.734395 0.182650 -0.151652
C105  C     C_R   0.444942 0.234424 0.817337 -0.151908
C106  C     C_R   0.554936 0.234866 0.182757 -0.152805
C107  C     C_R   0.909191 0.734920 0.745267 -0.187039
C108  C     C_R   0.091327 0.734084 0.254605 -0.177958
C109  C     C_R   0.408803 0.234114 0.745381 -0.177971
C110  C     C_R   0.591082 0.234559 0.254712 -0.183819
C111  C     C_R   0.854414 0.749934 0.708596 -0.030824
C112  C     C_R   0.145543 0.250594 0.291426 -0.120098
C113  C     C_R   0.145754 0.749861 0.291375 -0.029261
C114  C     C_R   0.354318 0.249844 0.708637 -0.029578
C115  C     C_R   0.645694 0.249883 0.291404 -0.030685
C116  C     C_R   0.035165 0.749680 0.069944 0.407371
C117  C     C_R   0.965220 0.749736 0.930004 0.406892
C118  C     C_R   0.534981 0.249646 0.069995 0.407023
C119  C     C_R   0.465012 0.249633 0.930058 0.407307
C120  C     C_R   0.679913 0.620750 0.539310 0.122965
C121  C     C_R   0.360088 0.621099 0.539891 0.126414
C122  C     C_R   0.140034 0.121039 0.460220 0.126673
C123  C     C_R   0.853418 0.251287 0.708553 -0.114584
C124  C     C_R   0.820037 0.120960 0.460311 0.122302
C125  C     C_R   0.656667 0.657720 0.498579 -0.091344
C126  C     C_R   0.341746 0.657716 0.498368 -0.088433
C127  C     C_R   0.158205 0.157709 0.501572 -0.088915
C128  C     C_R   0.843308 0.157737 0.501392 -0.090708
C129  C     C_R   0.598433 0.662314 0.456512 -0.201872
C130  C     C_R   0.356847 0.661906 0.455279 -0.202182
C131  C     C_R   0.142893 0.161957 0.544448 -0.202065
C132  C     C_R   0.901553 0.162161 0.543769 -0.202321
C133  C     C_R   0.690613 0.690669 0.499863 0.802044
C134  C     C_R   0.463270 0.753094 0.930686 0.395853
C135  C     C_R   0.309211 0.690682 0.499821 0.802864
C136  C     C_R   0.190769 0.190671 0.500161 0.802787
C137  C     C_R   0.809371 0.190681 0.500128 0.802148
C138  C     C_R   0.565987 0.629720 0.456134 -0.205771
C139  C     C_R   0.388864 0.629264 0.454815 -0.205255
C140  C     C_R   0.110892 0.129334 0.544909 -0.205060
C141  C     C_R   0.934010 0.129560 0.544117 -0.206196
C142  C     C_R   0.591743 0.593100 0.499614 -0.084776
C143  C     C_R   0.407563 0.593037 0.499183 -0.085980
C144  C     C_R   0.092388 0.093044 0.500735 -0.086142
Cu1   Cu    Cu3+1 0.780910 0.719090 0.500000 0.951087
Cu2   Cu    Cu3+1 0.534240 0.500000 0.568430 0.955433
Cu3   Cu    Cu3+1 0.965760 0.000000 0.431570 0.957464
Cu4   Cu    Cu3+1 0.034240 0.000000 0.568430 0.957905
Cu5   Cu    Cu3+1 0.219090 0.719090 0.500000 0.948308
Cu6   Cu    Cu3+1 0.280910 0.219090 0.500000 0.951019
Cu7   Cu    Cu3+1 0.719090 0.219090 0.500000 0.947646
Cu8   Cu    Cu3+1 0.719070 0.780890 0.500010 0.958530
Cu9   Cu    Cu3+1 0.280930 0.780890 0.499990 0.959190
Cu10  Cu    Cu3+1 0.219070 0.280890 0.500010 0.959172
Cu11  Cu    Cu3+1 0.780930 0.280890 0.499990 0.958886
Cu12  Cu    Cu3+1 0.465760 0.500000 0.431570 0.959713
H1    H     H_    0.615644 0.815768 0.284097 0.172262
H2    H     H_    0.205411 0.777724 0.281896 0.150696
H3    H     H_    0.294600 0.277625 0.718150 0.150877
H4    H     H_    0.705630 0.276950 0.281833 0.153180
H5    H     H_    0.857056 0.776061 0.843983 0.152836
H6    H     H_    0.142764 0.777244 0.156092 0.151527
H7    H     H_    0.357319 0.277130 0.843956 0.151877
H8    H     H_    0.642892 0.276440 0.156018 0.152511
H9    H     H_    0.987446 0.723626 0.844167 0.151998
H10   H     H_    0.013432 0.722181 0.155655 0.152770
H11   H     H_    0.486786 0.222246 0.844321 0.152763
H12   H     H_    0.379989 0.817413 0.715167 0.173973
H13   H     H_    0.512992 0.223006 0.155809 0.151723
H14   H     H_    0.924268 0.723386 0.718310 0.150115
H15   H     H_    0.076430 0.721954 0.281469 0.152591
H16   H     H_    0.423709 0.222023 0.718494 0.152932
H17   H     H_    0.576086 0.222800 0.281643 0.149557
H18   H     H_    0.578143 0.690522 0.423515 0.159136
H19   H     H_    0.343390 0.689840 0.421628 0.155474
H20   H     H_    0.156187 0.189924 0.577964 0.155604
H21   H     H_    0.921832 0.190233 0.577022 0.159240
H22   H     H_    0.521288 0.633400 0.422951 0.152435
H23   H     H_    0.116858 0.316207 0.284159 0.174448
H24   H     H_    0.399646 0.632638 0.420939 0.152791
H25   H     H_    0.099981 0.132767 0.578649 0.152651
H26   H     H_    0.978726 0.133084 0.577544 0.152722
H27   H     H_    0.704876 0.561253 0.642332 0.210366
H28   H     H_    0.375952 0.531768 0.573949 0.194027
H29   H     H_    0.124578 0.031654 0.426672 0.192997
H30   H     H_    0.795288 0.061873 0.357005 0.210670
H31   H     H_    0.697353 0.531064 0.570991 0.193514
H32   H     H_    0.439936 0.562655 0.643671 0.209474
H33   H     H_    0.060551 0.062461 0.356607 0.209991
H34   H     H_    0.881003 0.317116 0.715213 0.171551
H35   H     H_    0.802422 0.031414 0.427899 0.194252
H36   H     H_    0.760370 0.616541 0.640246 0.198995
H37   H     H_    0.318438 0.586855 0.572640 0.208513
H38   H     H_    0.182040 0.086690 0.427986 0.208270
H39   H     H_    0.739746 0.117189 0.359137 0.199058
H40   H     H_    0.753470 0.586045 0.569542 0.208711
H41   H     H_    0.382408 0.618017 0.641737 0.196286
H42   H     H_    0.118030 0.117782 0.358552 0.196676
H43   H     H_    0.746257 0.086424 0.429389 0.208792
H44   H     H_    0.600887 0.686323 0.153962 0.161329
H45   H     H_    0.947956 0.820356 0.651442 0.197482
H46   H     H_    0.396515 0.687608 0.845639 0.171755
H47   H     H_    0.099840 0.185896 0.154030 0.160463
H48   H     H_    0.895519 0.188106 0.845706 0.172369
H49   H     H_    0.665593 0.685376 0.280068 0.163392
H50   H     H_    0.334540 0.685753 0.720283 0.160258
H51   H     H_    0.164488 0.184917 0.280160 0.160122
H52   H     H_    0.833498 0.186230 0.720375 0.163425
H53   H     H_    0.770679 0.878036 0.411876 0.155128
H54   H     H_    0.148286 0.881780 0.419833 0.154435
H55   H     H_    0.358746 0.378116 0.587812 0.153557
H56   H     H_    0.101355 0.784639 0.525782 0.212084
H57   H     H_    0.728779 0.381324 0.581067 0.154562
H58   H     H_    0.827526 0.934615 0.411270 0.157669
H59   H     H_    0.091156 0.938328 0.419347 0.152296
H60   H     H_    0.416141 0.434713 0.588369 0.155705
H61   H     H_    0.672141 0.437853 0.581648 0.153583
H62   H     H_    0.009195 0.843542 0.593896 0.191962
H63   H     H_    0.106588 0.850391 0.621557 0.203781
H64   H     H_    0.350612 0.376782 0.346541 0.212456
H65   H     H_    0.519874 0.340836 0.471228 0.191696
H66   H     H_    0.004301 0.876855 0.653490 0.209947
H67   H     H_    0.361125 0.286853 0.407914 0.208189
H68   H     H_    0.048141 0.840857 0.527882 0.192227
H69   H     H_    0.415334 0.343559 0.406438 0.191362
H70   H     H_    0.484756 0.350891 0.377748 0.203800
H71   H     H_    0.953495 0.786868 0.592474 0.207872
H72   H     H_    0.159658 0.794298 0.619491 0.199891
H73   H     H_    0.296382 0.320257 0.348649 0.201793
H74   H     H_    0.575111 0.284667 0.473072 0.212934
H75   H     H_    0.514103 0.820604 0.103632 0.333617
H76   H     H_    0.440289 0.835328 0.884042 0.333506
H77   H     H_    0.015419 0.321247 0.103687 0.333987
H78   H     H_    0.539869 0.294868 0.379578 0.196514
H79   H     H_    0.941704 0.335388 0.884150 0.333597
H80   H     H_    0.794247 0.776524 0.718175 0.153203
N1    N     N_R   0.492481 0.721934 0.034590 -0.223359
N2    N     N_R   0.979302 0.749210 0.034121 -0.235886
N3    N     N_R   0.520877 0.249326 0.965862 -0.236109
N4    N     N_R   0.479116 0.249761 0.034191 -0.236559
N5    N     N_R   0.055362 0.750168 0.034402 -0.236514
N6    N     N_R   0.945027 0.749417 0.965548 -0.235720
N7    N     N_R   0.555165 0.249515 0.034438 -0.235956
N8    N     N_R   0.444829 0.249937 0.965615 -0.236178
N9    N     N_R   0.457578 0.722888 0.966005 -0.236308
N10   N     N_R   0.992094 0.222364 0.034645 -0.222935
N11   N     N_R   0.957177 0.223350 0.966062 -0.235475
N12   N     N_R   0.506374 0.781489 0.967009 -0.201855
N13   N     N_R   0.540999 0.780834 0.035551 -0.211133
N14   N     N_R   0.006935 0.281138 0.967057 -0.202794
N15   N     N_R   0.041581 0.280454 0.035599 -0.212615
N16   N     N_R   0.021087 0.750014 0.965824 -0.237105
O1    O     O_R   0.821190 0.768980 0.500000 -0.582647
O2    O     O_R   0.074010 0.954920 0.557790 -0.582215
O3    O     O_R   0.425990 0.454920 0.442210 -0.583610
O4    O     O_R   0.574010 0.454920 0.557790 -0.585262
O5    O     O_R   0.983760 0.954940 0.557800 -0.584835
O6    O     O_R   0.016240 0.954940 0.442200 -0.585270
O7    O     O_R   0.483760 0.454940 0.557800 -0.587665
O8    O     O_R   0.516240 0.454940 0.442200 -0.582480
O9    O     O_R   0.768960 0.821170 0.500020 -0.582994
O10   O     O_R   0.231040 0.821170 0.499980 -0.582469
O11   O     O_R   0.268960 0.321170 0.500020 -0.582509
O12   O     O_R   0.178810 0.768980 0.500000 -0.586389
O13   O     O_R   0.731040 0.321170 0.499980 -0.582543
O14   O     O_R   0.726180 0.723900 0.400140 -0.581771
O15   O     O_R   0.273820 0.723900 0.599860 -0.586071
O16   O     O_R   0.226180 0.223900 0.400140 -0.586244
O17   O     O_R   0.773820 0.223900 0.599860 -0.582544
O18   O     O_R   0.673950 0.776090 0.400160 -0.589059
O19   O     O_R   0.326050 0.776090 0.599840 -0.581817
O20   O     O_R   0.173950 0.276090 0.400160 -0.582979
O21   O     O_R   0.826050 0.276090 0.599840 -0.588012
O22   O     O_R   0.731010 0.678810 0.499990 -0.583619
O23   O     O_R   0.321190 0.268980 0.500000 -0.583638
O24   O     O_R   0.268990 0.678810 0.500010 -0.582834
O25   O     O_R   0.231010 0.178810 0.499990 -0.583094
O26   O     O_R   0.768990 0.178810 0.500010 -0.583395
O27   O     O_R   0.678790 0.731000 0.500010 -0.584058
O28   O     O_R   0.321210 0.731000 0.499990 -0.583455
O29   O     O_R   0.178790 0.231000 0.500010 -0.583657
O30   O     O_R   0.821210 0.231000 0.499990 -0.583782
O31   O     O_R   0.826030 0.723890 0.599860 -0.588438
O32   O     O_R   0.173970 0.723890 0.400140 -0.584325
O33   O     O_R   0.326030 0.223890 0.599860 -0.584116
O34   O     O_R   0.678810 0.268980 0.500000 -0.585931
O35   O     O_R   0.673970 0.223890 0.400140 -0.588253
O36   O     O_R   0.773800 0.776080 0.599870 -0.583336
O37   O     O_R   0.226200 0.776080 0.400130 -0.589218
O38   O     O_R   0.273800 0.276080 0.599870 -0.589202
O39   O     O_R   0.726200 0.276080 0.400130 -0.582774
O40   O     O_R   0.425940 0.545090 0.442170 -0.586367
O41   O     O_R   0.574060 0.545090 0.557830 -0.584927
O42   O     O_R   0.925940 0.045090 0.442170 -0.584905
O43   O     O_R   0.074060 0.045090 0.557830 -0.586294
O44   O     O_3   0.544048 0.825854 0.153179 -0.723259
O45   O     O_R   0.483700 0.545120 0.557760 -0.585600
O46   O     O_3   0.441389 0.831090 0.845329 -0.710198
O47   O     O_3   0.045468 0.326410 0.153228 -0.721645
O48   O     O_3   0.942654 0.330846 0.845371 -0.712382
O49   O     O_R   0.516300 0.545120 0.442240 -0.586467
O50   O     O_R   0.983700 0.045120 0.557760 -0.587277
O51   O     O_R   0.016300 0.045120 0.442240 -0.585123
O52   O     O_R   0.925990 0.954920 0.442210 -0.586276

loop_
_geom_bond_atom_site_label_1
_geom_bond_atom_site_label_2
_ccdc_geom_bond_type
Cu8   O9    S    
C19   O42   A    
C51   C123  A    
C20   C144  S    
C31   C101  A    
C89   H80   S    
C4    C142  A    
C95   C99   A    
C5    C143  A    
N4    N8    A    
C10   H29   S    
C89   C94   A    
Cu5   Cu9   S    
C131  C140  A    
C80   H65   S    
Cu3   O52   S    
C25   O8    A    
C46   C55   A    
C70   C74   A    
C3    C19   S    
Cu1   O14   S    
Cu6   O33   S    
Cu7   Cu11  S    
C84   H74   S    
C22   C69   S    
C109  H16   S    
C30   C90   A    
C87   O16   A    
C83   H67   S    
C79   O34   A    
C14   C121  S    
C24   C41   S    
C12   H40   S    
Cu9   O19   S    
Cu10  O20   S    
C134  N12   A    
C13   C42   S    
C25   O4    A    
C8    H31   S    
C12   H36   S    
Cu3   O51   S    
C57   O10   A    
C135  O28   A    
C127  C136  S    
C99   C116  S    
C30   C34   A    
C120  C125  A    
Cu7   O17   S    
C87   C112  S    
C82   H72   S    
C85   O18   A    
C36   C40   A    
C85   C90   S    
C97   H8    S    
N1    N9    A    
Cu11  O13   S    
C58   C79   S    
C34   O44   S    
C18   O41   A    
C137  O30   A    
C55   C57   S    
C125  C129  A    
Cu5   O15   S    
H77   O47   S    
C24   N15   A    
Cu7   O35   S    
C53   C58   A    
Cu8   O36   S    
C64   C69   A    
C59   C63   A    
C33   C38   A    
C133  O27   A    
C60   C64   A    
Cu3   O6    S    
C16   C124  S    
C16   H39   S    
C21   O5    A    
C77   C82   S    
C47   H48   S    
C127  C131  A    
C91   C113  A    
C88   O17   A    
C49   H50   S    
C9    H28   S    
C20   O43   A    
C126  C130  A    
C31   C36   A    
C134  N9    A    
N3    N7    A    
C26   C111  S    
C37   O47   S    
C57   O12   A    
C38   O48   S    
Cu3   Cu4   S    
C3    C141  A    
C1    C54   S    
C53   C84   S    
C45   C50   A    
C86   O19   A    
C66   H61   S    
C52   C74   A    
C65   C70   A    
C131  H20   S    
C92   C96   A    
C67   C72   A    
C122  C127  A    
C91   H2    S    
C46   C82   S    
C15   H38   S    
C139  C143  A    
Cu4   O50   S    
C25   C71   S    
C29   C115  S    
C48   C90   A    
C44   H46   S    
C23   C70   S    
C117  N16   A    
C82   H56   S    
C54   C59   A    
C14   H41   S    
C17   O45   A    
C10   H33   S    
C62   C66   A    
C34   C39   A    
Cu5   O24   S    
C2    N13   A    
C76   H62   S    
C27   O32   A    
C77   H63   S    
C56   C68   S    
C40   C134  S    
C84   H78   S    
C88   O21   A    
C5    C9    S    
Cu8   O27   S    
C61   C65   A    
C87   O20   A    
C36   O46   S    
C8    C12   S    
C19   O50   A    
C100  C119  S    
C32   C37   A    
C94   H5    S    
C109  C114  A    
C27   C113  S    
C8    H27   S    
C103  H9    S    
C6    C144  A    
Cu1   O31   S    
C93   C97   A    
H76   O46   S    
C118  N4    A    
C132  C141  A    
Cu4   O43   S    
C105  C109  A    
N10   N11   A    
C41   C45   A    
C107  C111  A    
C85   O14   A    
C103  C107  A    
C2    N1    A    
Cu3   O42   S    
C130  H19   S    
Cu1   O22   S    
Cu6   O25   S    
H75   O44   S    
C119  N3    A    
C68   O23   A    
C96   C100  A    
C11   H35   S    
H79   O48   S    
C63   H58   S    
C37   C41   A    
Cu1   Cu8   S    
C91   C95   A    
C40   C44   A    
C80   H70   S    
C46   C73   A    
C59   H53   S    
C58   C62   A    
C30   H1    S    
C15   C122  S    
Cu6   O16   S    
C11   H30   S    
C64   H59   S    
Cu4   O5    S    
C80   C84   S    
C9    H32   S    
C53   C75   A    
C22   O6    A    
Cu4   O2    S    
Cu7   O26   S    
C3    C7    A    
C49   C101  A    
C110  H17   S    
C94   C98   A    
C98   C103  A    
C18   O49   A    
Cu12  O40   S    
C73   C77   S    
C78   H64   S    
C78   C83   S    
Cu9   O37   S    
C48   H49   S    
C69   C73   A    
C43   H44   S    
C119  N8    A    
C97   C102  A    
Cu12  O3    S    
C4    C8    S    
C124  C128  A    
Cu11  O39   S    
C117  N6    A    
C78   H69   S    
C99   C104  A    
C29   O35   A    
C55   C60   A    
C35   C54   A    
Cu1   O1    S    
C86   O15   A    
C130  C139  A    
C1    O1    A    
Cu6   O23   S    
C138  C142  A    
C15   H42   S    
C81   H45   S    
C83   H73   S    
N14   N15   A    
C33   H34   S    
C93   H4    S    
C9    C14   S    
C26   O36   A    
C11   C16   S    
C77   H68   S    
C66   C71   A    
C27   O37   A    
C136  O29   A    
C13   N11   A    
C14   H37   S    
C126  C135  S    
Cu9   O28   S    
C62   H57   S    
Cu12  O49   S    
C104  C108  A    
N12   N13   A    
C89   C111  A    
C116  N5    A    
C32   C112  A    
C140  C144  A    
C6    C10   S    
C47   C51   A    
C38   C42   A    
C17   O40   A    
C17   C143  S    
C21   O52   A    
C104  H10   S    
C31   H12   S    
C74   C78   S    
C56   C61   A    
Cu10  O29   S    
C110  C115  A    
C107  H14   S    
C44   C49   A    
C108  C113  A    
C5    C121  A    
C52   C83   S    
C24   N10   A    
C7    C124  A    
Cu11  O21   S    
C35   C81   S    
C7    C11   S    
C13   N14   A    
C100  C105  A    
C92   H3    S    
C141  H26   S    
C10   C15   S    
C61   H55   S    
C116  N2    A    
C135  O24   A    
C93   C115  A    
C139  H24   S    
C12   C120  S    
C2    C39   S    
C129  C138  A    
Cu8   O18   S    
C32   H23   S    
C75   C80   S    
C29   O39   A    
Cu5   O12   S    
C102  C118  S    
C45   H47   S    
C132  H21   S    
C50   H51   S    
C23   O7    A    
C21   C67   S    
Cu2   O7    S    
Cu10  O11   S    
N5    N16   A    
C88   C123  S    
C128  C132  A    
Cu2   O41   S    
C63   C67   A    
C137  O26   A    
C20   O51   A    
C18   C142  S    
C65   H60   S    
C23   O3    A    
C95   H6    S    
C51   H52   S    
C39   C43   A    
C76   H66   S    
Cu10  O38   S    
C105  H11   S    
C128  C137  S    
C50   C112  A    
C72   C76   S    
Cu9   O10   S    
C26   O31   A    
C16   H43   S    
C28   C114  S    
C1    O9    A    
C28   O33   A    
C106  H13   S    
C6    C122  A    
C138  H22   S    
Cu7   O34   S    
C118  N7    A    
C98   C117  S    
C43   C48   A    
Cu2   O45   S    
C125  C133  S    
C133  O22   A    
C81   H71   S    
Cu2   O4    S    
C76   C81   S    
C35   C72   A    
N2    N6    A    
C140  H25   S    
C96   H7    S    
Cu11  O30   S    
C136  O25   A    
C28   O38   A    
C121  C126  A    
C71   C75   A    
C92   C114  A    
C79   O13   A    
Cu5   O32   S    
C102  C106  A    
C42   C47   A    
C129  H18   S    
C22   O2    A    
Cu2   Cu12  S    
C106  C110  A    
Cu6   Cu10  S    
C108  H15   S    
C33   C123  A    
C4    C120  A    
C86   C101  S    
C60   H54   S    
C68   O11   A    
C52   C56   A    
Cu12  O8    S    
