data_mof_unit_pretest_1320.cif
_audit_creation_date              2013-03-05T16:14:06-0500
_audit_creation_method            fapswitch 2.2
_symmetry_space_group_name_H-M    P1
_symmetry_Int_Tables_number       1
_space_group_crystal_system       triclinic
_cell_length_a                    8.213316
_cell_length_b                    17.434314
_cell_length_c                    22.844193
_cell_angle_alpha                 99.927857
_cell_angle_beta                  89.871441
_cell_angle_gamma                 98.686307
_cell_volume                      3184.24809404

loop_
_atom_site_label
_atom_site_type_symbol
_atom_site_description
_atom_site_fract_x
_atom_site_fract_y
_atom_site_fract_z
_atom_type_partial_charge
P1    P     P_3+3 0.055640 0.433080 0.366120 0.495354
O1    O     O_2   0.889310 0.456460 0.358460 -0.356253
O2    O     O_3   0.129890 0.457280 0.429550 -0.407262
O3    O     O_3   0.674650 0.600620 0.400940 -0.384906
O4    O     O_2   0.795983 0.542715 0.295930 -0.379979
O5    O     O_3   0.015838 0.330249 0.347023 -0.533340
O6    O     O_3   0.726541 0.683475 0.304319 -0.508817
H1    H     H_    0.695642 0.744658 0.389282 0.119751
C1    C     C_3   0.693018 0.819292 0.323929 -0.922978
H2    H     H_    0.822887 0.846151 0.338757 0.277069
H3    H     H_    0.681361 0.813354 0.274185 0.269613
P2    P     P_3+3 0.671420 0.681950 0.554390 0.463134
P3    P     P_3+3 0.145296 0.742163 0.433836 0.469116
O7    O     O_2   0.849130 0.693580 0.537840 -0.366192
O8    O     O_3   0.093680 0.641380 0.431770 -0.362422
O9    O     O_2   0.056243 0.784220 0.486871 -0.377242
O10   O     O_3   0.673998 0.710683 0.631538 -0.564696
O11   O     O_3   0.059006 0.763418 0.369530 -0.487618
C2    C     C_3   0.162852 0.741931 0.321905 0.414853
H4    H     H_    0.177029 0.678271 0.317125 0.082038
H5    H     H_    0.284806 0.779987 0.328819 0.035908
C3    C     C_3   0.092313 0.755652 0.263851 -0.860598
H6    H     H_    0.977189 0.714532 0.251100 0.291510
H7    H     H_    0.068395 0.817629 0.267839 0.252802
C4    C     C_3   0.232660 0.700462 0.601932 0.441266
H8    H     H_    0.351086 0.679028 0.589526 0.088224
H9    H     H_    0.142816 0.682474 0.563813 0.144594
C5    C     C_3   0.262422 0.790749 0.617101 -0.943181
H10   H     H_    0.357912 0.811454 0.653124 0.262477
H11   H     H_    0.305421 0.816278 0.577785 0.233117
H12   H     H_    0.144859 0.811969 0.631588 0.266832
Ba1   Ba    Ba6+2 0.857050 0.537370 0.474190 1.561057
C6    C     C_3   0.964358 0.297683 0.396993 0.256527
H13   H     H_    0.849605 0.318984 0.412823 0.054688
H14   H     H_    0.059056 0.314254 0.433321 0.133663
C7    C     C_3   0.931906 0.207727 0.380146 -0.112306
H15   H     H_    0.830506 0.189249 0.346083 0.143475
H16   H     H_    0.891619 0.181847 0.419833 0.082149
C8    C     C_3   0.724424 0.652807 0.659013 0.422072
H17   H     H_    0.840851 0.636191 0.640050 0.103542
H18   H     H_    0.625970 0.600701 0.653288 0.100007
C9    C     C_3   0.753378 0.686597 0.725112 -0.949648
H19   H     H_    0.848787 0.740051 0.731023 0.275133
H20   H     H_    0.796955 0.643795 0.749527 0.221317
H21   H     H_    0.636572 0.702548 0.744728 0.266433
P4    P     P_3+3 0.134070 0.566990 0.633890 0.479716
O12   O     O_2   0.300380 0.543560 0.641570 -0.365364
O13   O     O_3   0.059830 0.542790 0.570460 -0.412100
O14   O     O_3   0.515070 0.399440 0.599070 -0.386270
O15   O     O_3   0.170961 0.669952 0.651648 -0.557741
P5    P     P_3+3 0.064045 0.258087 0.569785 0.460313
O16   O     O_3   0.612780 0.404640 0.465950 -0.405098
O17   O     O_3   0.096040 0.358680 0.568240 -0.373221
O18   O     O_2   0.191417 0.221024 0.528592 -0.360469
O19   O     O_3   0.119767 0.246079 0.640982 -0.502879
Ba2   Ba    Ba6+2 0.332790 0.462700 0.525820 1.574456
P6    P     P_3+3 0.663204 0.590990 0.323197 0.470286
C10   C     C_3   0.650655 0.739170 0.342462 0.508767
H22   H     H_    0.514928 0.721869 0.338881 -0.026330
H23   H     H_    0.606645 0.859094 0.345630 0.212209
O20   O     O_3   0.576930 0.595420 0.534060 -0.406722
C11   C     C_3   0.487134 0.342923 0.342790 0.442933
H24   H     H_    0.361253 0.354601 0.354953 0.097098
H25   H     H_    0.577489 0.396900 0.357574 0.108400
C12   C     C_3   0.494218 0.323135 0.275523 -0.886888
H26   H     H_    0.403745 0.269874 0.258682 0.296138
H27   H     H_    0.463929 0.373191 0.255538 0.206663
H28   H     H_    0.620253 0.312193 0.262246 0.263177
P7    P     P_3+3 0.525510 0.305148 0.445183 0.468688
O21   O     O_2   0.340570 0.306450 0.462190 -0.342283
O22   O     O_3   0.525062 0.279242 0.367624 -0.543791
H29   H     H_    0.181405 0.744370 0.228000 0.236041
C13   C     C_3   0.999459 0.270383 0.680543 0.387707
H30   H     H_    0.971539 0.329472 0.675650 0.087339
H31   H     H_    0.885806 0.226257 0.672996 0.055331
C14   C     C_3   0.061755 0.275298 0.743908 -0.860142
H32   H     H_    0.177328 0.318217 0.752626 0.283782
H33   H     H_    0.968006 0.294944 0.775605 0.246370
H34   H     H_    0.086268 0.216489 0.750944 0.249308
P8    P     P_3+3 0.527720 0.414496 0.676637 0.488414
C15   C     C_3   0.549798 0.266637 0.652723 0.528277
H35   H     H_    0.676814 0.281397 0.637118 -0.020432
O23   O     O_2   0.364362 0.440758 0.699262 -0.380339
O24   O     O_3   0.520298 0.324278 0.700754 -0.504454
H36   H     H_    0.459176 0.261504 0.615711 0.149272
H37   H     H_    0.591633 0.145111 0.641278 0.221048
C16   C     C_3   0.531309 0.187083 0.672975 -0.985795
H38   H     H_    0.398310 0.162776 0.674361 0.276825
H39   H     H_    0.588701 0.193052 0.717860 0.275850
H40   H     H_    0.845835 0.339240 0.053598 0.172891
H41   H     H_    0.766255 0.336788 0.950920 0.171727
C17   C     C_R   0.343790 0.518220 0.332764 -0.519016
C18   C     C_R   0.137700 0.560118 0.938164 -0.049350
C19   C     C_R   0.087559 0.559040 0.878676 0.521622
O25   O     O_2   0.146626 0.613182 0.853473 -0.589554
N1    N     N_R   0.969556 0.498582 0.849376 -0.164570
C20   C     C_R   0.898139 0.439204 0.879369 0.512643
O26   O     O_2   0.798977 0.384488 0.853433 -0.593293
C21   C     C_R   0.940165 0.440673 0.939723 -0.046407
C22   C     C_R   0.061633 0.501142 0.969038 -0.017524
C23   C     C_R   0.261203 0.619539 0.967775 -0.116804
C24   C     C_R   0.303461 0.621998 0.027440 -0.114443
C25   C     C_R   0.225176 0.564528 0.059343 -0.044364
C26   C     C_R   0.106721 0.502996 0.029632 -0.020064
C27   C     C_R   0.863053 0.383135 0.971618 -0.117691
C28   C     C_R   0.908891 0.384546 0.030827 -0.111246
C29   C     C_R   0.032636 0.443779 0.060380 -0.050919
C30   C     C_R   0.084668 0.444544 0.119691 0.531014
N2    N     N_R   0.197057 0.506657 0.150130 -0.162117
C31   C     C_R   0.261972 0.567950 0.120364 0.514383
C32   C     C_2   0.759157 0.484358 0.770052 -0.164259
C33   C     C_3   0.710038 0.487592 0.706566 0.141075
C34   C     C_1   0.001969 0.516531 0.685790 0.300961
C35   C     C_2   0.047315 0.515356 0.741590 -0.185266
C36   C     C_2   0.920560 0.498139 0.787532 0.104474
C37   C     C_R   0.412710 0.537416 0.232750 -0.216870
C38   C     C_R   0.457443 0.545135 0.293075 0.196070
C39   C     C_R   0.186227 0.482504 0.313571 0.298154
C40   C     C_R   0.135447 0.480099 0.254280 -0.178435
C41   C     C_R   0.247940 0.507983 0.212297 0.113975
O27   O     O_2   0.031332 0.389002 0.143627 -0.588691
O28   O     O_2   0.349783 0.626826 0.147163 -0.603466
C42   C     C_2   0.854030 0.481815 0.665647 -0.487905
H42   H     H_    0.398937 0.668915 0.048431 0.170543
H43   H     H_    0.506495 0.555030 0.202252 0.183727
H44   H     H_    0.325296 0.664673 0.944931 0.170681
H45   H     H_    0.176694 0.525736 0.754329 0.190141
H46   H     H_    0.663105 0.476983 0.802174 0.168762
H47   H     H_    0.008625 0.456568 0.241649 0.199050
H48   H     H_    0.380505 0.522139 0.378718 0.174273
H49   H     H_    0.832935 0.456477 0.619297 0.175434
C43   C     C_2   0.448840 0.717667 0.478456 -0.424779
C44   C     C_3   0.374065 0.768284 0.441572 0.075565
C45   C     C_2   0.430530 0.855209 0.460289 -0.219273
C46   C     C_2   0.559768 0.881849 0.498693 0.111535
C47   C     C_2   0.639356 0.823823 0.525270 -0.259908
C48   C     C_1   0.577117 0.747909 0.514780 0.315817
C49   C     C_R   0.787924 0.138825 0.537428 -0.268172
C50   C     C_R   0.853449 0.218454 0.541536 0.206608
C51   C     C_R   0.616794 0.239904 0.486691 0.269086
C52   C     C_R   0.550191 0.160443 0.482522 -0.242100
C53   C     C_R   0.633432 0.109215 0.508559 0.118653
C54   C     C_2   0.636166 0.966160 0.510778 -0.157461
C55   C     C_2   0.555559 0.025452 0.502613 -0.156615
C56   C     C_R   0.763840 0.269086 0.518517 -0.516191
H50   H     H_    0.426170 0.012365 0.489062 0.145245
H51   H     H_    0.748679 0.844774 0.553807 0.157807
H52   H     H_    0.857985 0.101499 0.556840 0.138524
H53   H     H_    0.764558 0.978227 0.525235 0.140150
H54   H     H_    0.375642 0.894341 0.436975 0.136705
H55   H     H_    0.435502 0.138167 0.457825 0.193385
H56   H     H_    0.408628 0.654503 0.468391 0.167326
H57   H     H_    0.813878 0.330679 0.521697 0.169428
N3    N     N_R   0.081094 0.177588 0.357768 0.286643
O29   O     O_R   0.158915 0.138236 0.389153 -0.378443
O30   O     O_R   0.131950 0.186368 0.305008 -0.343256

loop_
_geom_bond_atom_site_label_1
_geom_bond_atom_site_label_2
_geom_bond_distance
_ccdc_geom_bond_type
C16   H38   1.112876 S    
C18   C19   1.417068 A    
P2    O20   1.581211 S    
Ba1   O13   2.741638 S    
C13   H30   1.112443 S    
H41   C27   1.088322 S    
C2    H4    1.120040 S    
C14   H34   1.112161 S    
C30   O27   1.217350 D    
P8    O24   1.746678 S    
C15   H35   1.109274 S    
C7    N3    1.462152 S    
O8    Ba1   2.745451 S    
C8    H18   1.110793 S    
C37   C38   1.405552 A    
C4    C5    1.534158 S    
C23   C24   1.399114 A    
P3    O11   1.751955 S    
C25   C31   1.416276 A    
C5    H10   1.112462 S    
C2    H5    1.110079 S    
C14   H33   1.107316 S    
Ba1   O20   2.898277 S    
C1    C10   1.519207 S    
P7    O21   1.569536 D    
C6    H14   1.108804 S    
C28   C29   1.414518 A    
C54   C55   1.347376 D    
C45   H54   1.082410 S    
C22   C26   1.427427 A    
C6    C7    1.531299 S    
C30   N2    1.396264 Am   
O1    Ba1   2.805939 S    
P1    O1    1.502305 D    
O10   C8    1.389023 S    
P7    O22   1.751235 S    
C17   C39   1.385533 A    
C4    O15   1.397821 S    
Ba1   O16   2.804389 S    
C11   H25   1.109495 S    
O16   P7    1.757783 S    
H1    C10   1.115998 S    
C39   C40   1.409945 A    
C32   C33   1.518867 S    
C49   H52   1.079345 S    
C43   C44   1.512732 S    
C12   H27   1.111474 S    
P2    O10   1.746413 S    
C29   C30   1.418903 A    
N1    C36   1.468254 S    
C1    H2    1.125977 S    
O6    C10   1.406846 S    
N3    O30   1.301002 A    
C11   C12   1.518740 S    
C56   H57   1.080388 S    
P7    C51   1.840606 S    
C46   C54   1.487559 S    
P2    Ba1   3.404511 S    
Ba1   Ba2   4.521083 S    
C13   H31   1.109510 S    
O2    Ba1   2.907787 S    
C9    H20   1.105032 S    
P8    O23   1.542015 D    
C24   H42   1.089328 S    
C3    H29   1.109101 S    
C20   C21   1.417056 A    
C20   O26   1.223509 D    
C8    C9    1.528459 S    
C21   C27   1.412921 A    
P4    O13   1.537819 S    
P1    O5    1.750765 S    
C46   C47   1.494208 S    
C2    C3    1.518673 S    
C51   C52   1.397615 A    
H40   C28   1.086100 S    
C33   C42   1.510331 S    
C55   H50   1.086798 S    
C49   C53   1.414222 A    
C18   C23   1.415553 A    
C8    H17   1.106585 S    
H37   C16   1.109269 S    
O11   C2    1.415361 S    
P5    O19   1.745914 S    
C10   H22   1.109374 S    
P1    Ba1   3.375072 S    
C37   C41   1.422494 A    
P1    O2    1.537849 S    
C9    H21   1.110955 S    
O3    P6    1.756220 S    
C17   H48   1.080793 S    
C17   C38   1.387156 A    
C11   H24   1.109229 S    
O2    Ba2   2.742233 S    
C21   C22   1.413167 A    
C34   C42   1.318632 D    
C12   H28   1.112769 S    
N1    C20   1.394461 Am   
P8    C33   1.860530 S    
C23   H44   1.088064 S    
C19   O25   1.227069 D    
O3    Ba1   2.721556 S    
C14   H32   1.111544 S    
C19   N1    1.396225 Am   
C1    H3    1.126108 S    
C18   C22   1.413853 A    
N3    O29   1.302857 A    
C15   C16   1.522526 S    
P2    O7    1.499670 D    
Ba2   O21   2.867844 S    
C37   H43   1.083028 S    
P3    O8    1.736605 S    
C44   C45   1.503243 S    
C43   H56   1.085263 S    
C13   C14   1.520446 S    
C3    H7    1.115592 S    
C9    H19   1.112348 S    
C32   H46   1.084752 S    
C15   O24   1.401658 S    
C52   H55   1.082959 S    
P6    C38   1.837409 S    
C34   C35   1.333220 D    
O17   Ba2   2.746155 S    
O13   Ba2   2.908616 S    
P4    O12   1.502598 D    
C50   C56   1.398373 A    
P4    C34   1.849956 S    
C42   H49   1.078293 S    
C3    H6    1.103322 S    
P3    C44   1.866644 S    
P2    C48   1.836306 S    
C5    H12   1.114896 S    
O7    Ba1   2.867591 S    
C47   C48   1.325608 D    
C51   C56   1.391700 A    
C40   C41   1.425101 A    
O14   P8    1.746923 S    
C35   C36   1.511534 S    
C45   C46   1.351606 D    
C4    H9    1.113550 S    
O14   Ba2   2.721059 S    
C27   C28   1.399944 A    
P4    O15   1.750384 S    
O5    C6    1.397517 S    
O4    P6    1.542423 D    
C1    H23   1.122090 S    
P5    O18   1.545180 D    
C7    H16   1.108891 S    
C4    H8    1.112693 S    
N2    C31   1.401925 Am   
C31   O28   1.228938 D    
C35   H45   1.082480 S    
C5    H11   1.103830 S    
C40   H47   1.080736 S    
C6    H13   1.102213 S    
C11   O22   1.404961 S    
C53   C55   1.486631 S    
P1    C39   1.845430 S    
C24   C25   1.415480 A    
C47   H51   1.089082 S    
C49   C50   1.398347 A    
O19   C13   1.401118 S    
C54   H53   1.084401 S    
C7    H15   1.112802 S    
C12   H26   1.109999 S    
P3    O9    1.546658 D    
P4    Ba2   3.375673 S    
C25   C26   1.412326 A    
C16   H39   1.111288 S    
Ba2   O20   2.803636 S    
C32   C36   1.359282 D    
C43   C48   1.327343 D    
P5    O17   1.740150 S    
C52   C53   1.410066 A    
O6    P6    1.744096 S    
C26   C29   1.409916 A    
C15   H36   1.110618 S    
O16   Ba2   2.897442 S    
N2    C41   1.476644 S    
O12   Ba2   2.806231 S    
P5    C50   1.837383 S    
