data_mof_unit_pretest_222.cif
_audit_creation_date              2013-03-05T15:50:10-0500
_audit_creation_method            fapswitch 2.2
_symmetry_space_group_name_H-M    P1
_symmetry_Int_Tables_number       1
_space_group_crystal_system       triclinic
_cell_length_a                    20.528892
_cell_length_b                    6.914782
_cell_length_c                    17.672962
_cell_angle_alpha                 90.056528
_cell_angle_beta                  103.607978
_cell_angle_gamma                 89.819433
_cell_volume                      2438.29013253

loop_
_atom_site_label
_atom_site_type_symbol
_atom_site_description
_atom_site_fract_x
_atom_site_fract_y
_atom_site_fract_z
_atom_type_partial_charge
O1    O     O_R   0.312200 0.620210 0.189560 -0.574961
O2    O     O_R   0.687800 0.379790 0.810440 -0.602715
O3    O     O_R   0.187800 0.120210 0.310440 -0.579895
O4    O     O_R   0.812200 0.879790 0.689560 -0.603103
O5    O     O_R   0.171590 0.286140 0.165000 -0.597351
O6    O     O_R   0.828410 0.713860 0.835000 -0.584195
O7    O     O_R   0.328410 0.786140 0.335000 -0.595120
O8    O     O_R   0.671590 0.213860 0.665000 -0.587205
C1    C     C_R   0.145307 0.459495 0.144294 0.946830
C2    C     C_R   0.854507 0.540547 0.855978 0.946436
C3    C     C_R   0.354752 0.959177 0.355647 0.949799
C4    C     C_R   0.645566 0.040802 0.643883 0.944689
O9    O     O_R   0.310670 0.290220 0.180540 -0.599830
O10   O     O_R   0.689330 0.709780 0.819460 -0.577776
O11   O     O_R   0.189330 0.790220 0.319460 -0.594350
O12   O     O_R   0.810670 0.209780 0.680540 -0.576903
O13   O     O_R   0.327870 0.124170 0.326080 -0.580847
O14   O     O_R   0.672130 0.875830 0.673920 -0.584406
O15   O     O_R   0.172130 0.624170 0.173920 -0.577874
O16   O     O_R   0.827870 0.375830 0.826080 -0.583905
C5    C     C_R   0.326841 0.459714 0.159050 0.967656
C6    C     C_R   0.675131 0.539370 0.842723 0.962724
C7    C     C_R   0.172980 0.959895 0.340700 0.971218
C8    C     C_R   0.823525 0.038701 0.655997 0.954728
O17   O     O_3   0.255480 0.455050 0.297740 -0.272720
O18   O     O_3   0.744520 0.544950 0.702260 -0.279094
O19   O     O_3   0.244520 0.955050 0.202260 -0.273412
O20   O     O_3   0.755480 0.044950 0.797740 -0.272779
V1    V     V_3+5 0.248980 0.178550 0.241140 1.164108
V2    V     V_3+5 0.751020 0.821450 0.758860 1.160919
V3    V     V_3+5 0.251020 0.678550 0.258860 1.169893
V4    V     V_3+5 0.748980 0.321450 0.741140 1.158188
C9    C     C_R   0.937179 0.062763 0.638541 -0.127913
C10   C     C_R   0.057527 0.959690 0.354532 -0.142489
C11   C     C_R   0.560247 0.545596 0.857405 -0.131919
C12   C     C_R   0.441834 0.486207 0.144707 -0.139663
C13   C     C_R   0.870657 0.024758 0.603683 -0.368331
C14   C     C_R   0.125119 0.966890 0.392268 -0.361326
C15   C     C_R   0.627511 0.526744 0.894266 -0.363189
C16   C     C_R   0.374415 0.468327 0.107048 -0.362039
C17   C     C_R   0.852834 0.970574 0.523177 0.546619
C18   C     C_R   0.143477 0.975589 0.475647 0.555682
C19   C     C_R   0.645940 0.494541 0.976506 0.552081
C20   C     C_R   0.355721 0.467942 0.023470 0.554398
C21   C     C_R   0.903595 0.963914 0.479426 -0.145444
C22   C     C_R   0.091499 0.001972 0.517076 -0.164339
C23   C     C_R   0.594956 0.499099 0.020008 -0.155124
C24   C     C_R   0.406863 0.497575 0.980988 -0.160530
C25   C     C_R   0.971263 0.003496 0.517540 -0.087111
C26   C     C_R   0.023160 0.989858 0.476594 -0.081707
C27   C     C_R   0.526684 0.518903 0.980166 -0.085504
C28   C     C_R   0.475109 0.508194 0.021609 -0.083556
C29   C     C_R   0.987428 0.055087 0.597013 -0.023879
C30   C     C_R   0.006768 0.957691 0.395715 -0.026797
C31   C     C_R   0.509791 0.545510 0.898832 -0.017013
C32   C     C_R   0.492120 0.507257 0.103586 -0.009394
C33   C     C_R   0.889261 0.913216 0.398806 0.428428
C34   C     C_R   0.105785 0.034953 0.599178 0.450723
C35   C     C_R   0.610033 0.486775 0.102906 0.444799
C36   C     C_R   0.391843 0.517517 0.898078 0.455160
C37   C     C_R   0.939945 0.921897 0.356812 0.179988
C38   C     C_R   0.054380 0.086800 0.635933 0.159391
C39   C     C_R   0.559714 0.521481 0.143835 0.146047
C40   C     C_R   0.442352 0.564956 0.859042 0.144776
H1    H     H_    0.949572 0.090902 0.700546 0.181520
H2    H     H_    0.045095 0.952844 0.291563 0.182161
H3    H     H_    0.547727 0.553806 0.794477 0.179364
H4    H     H_    0.454986 0.477479 0.207690 0.172698
C41   C     C_1   0.583080 0.027991 0.581430 -0.279032
C42   C     C_1   0.417230 0.971926 0.418115 -0.285158
C43   C     C_1   0.916973 0.527388 0.918429 -0.279267
C44   C     C_1   0.082839 0.472639 0.081846 -0.284008
C45   C     C_1   0.530966 0.011067 0.530039 0.089849
C46   C     C_1   0.469331 0.988764 0.469528 0.091222
C47   C     C_1   0.969085 0.510818 0.969858 0.092068
C48   C     C_1   0.030728 0.489160 0.030413 0.094593
O21   O     O_3   0.786508 0.951134 0.482485 -0.651436
C49   C     C_3   0.750231 0.804750 0.510894 0.205530
H5    H     H_    0.705775 0.774937 0.462745 0.168645
H6    H     H_    0.728767 0.861535 0.558114 0.068137
C50   C     C_3   0.788125 0.611993 0.535383 -0.395175
H7    H     H_    0.830551 0.591461 0.507563 0.181572
H8    H     H_    0.810903 0.612164 0.598620 0.233268
C51   C     C_3   0.740693 0.439478 0.516427 -0.833566
H9    H     H_    0.699994 0.451964 0.547863 0.266461
H10   H     H_    0.768789 0.304110 0.534121 0.264620
H11   H     H_    0.718023 0.431077 0.452959 0.258645
O22   O     O_3   0.209763 0.988359 0.518430 -0.652867
C52   C     C_3   0.255321 0.849599 0.500771 0.174600
H12   H     H_    0.300675 0.855622 0.549551 0.159097
H13   H     H_    0.273194 0.895674 0.449635 0.066829
C53   C     C_3   0.231608 0.636439 0.493324 -0.403241
H14   H     H_    0.213986 0.589887 0.544437 0.195071
H15   H     H_    0.189728 0.615450 0.441642 0.216605
C54   C     C_3   0.288965 0.499923 0.487905 -0.810787
H16   H     H_    0.312703 0.544655 0.440602 0.271766
H17   H     H_    0.269568 0.350413 0.476081 0.265784
H18   H     H_    0.327636 0.499983 0.543710 0.262188
O23   O     O_3   0.712495 0.485644 0.017841 -0.650936
C55   C     C_3   0.751676 0.339103 0.993253 0.184454
H19   H     H_    0.795990 0.317770 0.042536 0.158855
H20   H     H_    0.772840 0.392334 0.945336 0.071795
C56   C     C_3   0.717394 0.140309 0.972337 -0.423981
H21   H     H_    0.679778 0.111025 0.006017 0.188302
H22   H     H_    0.690047 0.137164 0.910459 0.231616
C57   C     C_3   0.768667 0.975848 0.986627 -0.799095
H23   H     H_    0.808066 0.001860 0.954236 0.260825
H24   H     H_    0.743370 0.837263 0.966706 0.266822
H25   H     H_    0.792464 0.963537 0.049765 0.264855
O24   O     O_3   0.289207 0.470444 0.980851 -0.652426
C58   C     C_3   0.245781 0.329738 0.000816 0.170703
H26   H     H_    0.200219 0.329108 0.952216 0.160225
H27   H     H_    0.227428 0.377966 0.051401 0.070989
C59   C     C_3   0.272351 0.119211 0.010785 -0.403585
H28   H     H_    0.291957 0.072248 0.961051 0.192291
H29   H     H_    0.313622 0.103946 0.063492 0.217894
C60   C     C_3   0.216312 0.978362 0.015704 -0.804017
H30   H     H_    0.189265 0.026672 0.059742 0.270051
H31   H     H_    0.237695 0.832212 0.031799 0.264865
H32   H     H_    0.179854 0.968616 0.958371 0.255087
O25   O     O_3   0.826639 0.844986 0.360878 -0.608397
C61   C     C_3   0.828396 0.639759 0.356059 0.204798
H33   H     H_    0.789104 0.582029 0.382927 0.140204
H34   H     H_    0.876790 0.572735 0.388020 0.071282
C62   C     C_3   0.809321 0.570157 0.271520 -0.323854
H35   H     H_    0.754327 0.556401 0.253850 0.258615
H36   H     H_    0.823182 0.673977 0.230794 0.278285
C63   C     C_3   0.841519 0.375871 0.262055 -0.780809
H37   H     H_    0.897006 0.387383 0.278666 0.281181
H38   H     H_    0.826408 0.330419 0.200228 0.280316
H39   H     H_    0.825503 0.265080 0.299295 0.258063
O26   O     O_3   0.168293 0.996705 0.645944 -0.592803
C64   C     C_3   0.175422 0.793199 0.654698 0.222074
H40   H     H_    0.228651 0.757441 0.657660 0.159147
H41   H     H_    0.144613 0.709489 0.605048 0.054642
C65   C     C_3   0.157011 0.720195 0.728555 -0.357718
H42   H     H_    0.183277 0.802742 0.780474 0.251704
H43   H     H_    0.102040 0.732592 0.722481 0.232738
C66   C     C_3   0.177682 0.510364 0.741248 -0.756000
H44   H     H_    0.152146 0.422679 0.690500 0.271436
H45   H     H_    0.166183 0.456594 0.795784 0.300208
H46   H     H_    0.231852 0.498906 0.745575 0.276921
O27   O     O_3   0.672826 0.431550 0.144514 -0.605661
C67   C     C_3   0.675774 0.226559 0.148979 0.220427
H47   H     H_    0.724472 0.181176 0.137688 0.152421
H48   H     H_    0.635513 0.151358 0.105391 0.046136
C68   C     C_3   0.672382 0.153761 0.229548 -0.328746
H49   H     H_    0.707377 0.236012 0.275636 0.248212
H50   H     H_    0.620539 0.170791 0.237381 0.232228
C69   C     C_3   0.691415 0.941332 0.238017 -0.773550
H51   H     H_    0.657470 0.855623 0.192189 0.265457
H52   H     H_    0.688211 0.888728 0.296359 0.310536
H53   H     H_    0.743338 0.923106 0.231307 0.277660
O28   O     O_3   0.328809 0.477705 0.853482 -0.595161
C70   C     C_3   0.322098 0.274340 0.845141 0.221004
H54   H     H_    0.269338 0.237846 0.844479 0.162178
H55   H     H_    0.355125 0.191958 0.893716 0.052287
C71   C     C_3   0.337203 0.202499 0.769386 -0.349864
H56   H     H_    0.304443 0.274948 0.718323 0.255307
H57   H     H_    0.390630 0.228631 0.769772 0.232282
C72   C     C_3   0.324584 0.987794 0.761941 -0.756749
H58   H     H_    0.357211 0.912214 0.812048 0.268166
H59   H     H_    0.333778 0.935634 0.705981 0.298872
H60   H     H_    0.272384 0.959274 0.763836 0.260963
N1    N     N_R   0.923967 0.878289 0.275091 0.236283
O29   O     O_R   0.951486 0.730336 0.249067 -0.432723
O30   O     O_R   0.881385 0.984726 0.226451 -0.445930
N2    N     N_R   0.069838 0.169800 0.713072 0.232946
O31   O     O_R   0.038373 0.325006 0.726773 -0.437051
O32   O     O_R   0.119076 0.105251 0.767513 -0.438052
N3    N     N_R   0.576692 0.582600 0.224420 0.235398
O33   O     O_R   0.542365 0.721165 0.246709 -0.420770
O34   O     O_R   0.632365 0.529881 0.271711 -0.444925
N4    N     N_R   0.425658 0.635321 0.779603 0.231844
O35   O     O_R   0.458747 0.780518 0.760461 -0.435435
O36   O     O_R   0.371719 0.580030 0.729933 -0.440936

loop_
_geom_bond_atom_site_label_1
_geom_bond_atom_site_label_2
_geom_bond_distance
_ccdc_geom_bond_type
C34   C38   1.408488 A    
C38   N2    1.443829 S    
C4    C41   1.485212 S    
O1    C5    1.298350 A    
N1    O29   1.301925 A    
C70   H55   1.116163 S    
O13   V1    1.967479 S    
C45   C46   1.460336 S    
O3    C7    1.298959 A    
C54   H16   1.106882 S    
C49   C50   1.550861 S    
C1    C44   1.484686 S    
C44   C48   1.235147 T    
O15   V3    1.968863 S    
C63   H37   1.110512 S    
C10   H2    1.082645 S    
C50   H7    1.105015 S    
C3    C42   1.485225 S    
C9    H1    1.082643 S    
O21   C49   1.418782 S    
O7    C3    1.329510 A    
N3    O34   1.298510 A    
C21   C33   1.428950 A    
O5    C1    1.328847 A    
C26   C30   1.406878 A    
O9    V1    1.998280 S    
C68   H50   1.110953 S    
C19   O23   1.390716 S    
C14   C18   1.433765 A    
C65   C66   1.512475 S    
C17   O21   1.389032 S    
O4    C8    1.296580 A    
C66   H46   1.099203 S    
C49   H6    1.102750 S    
N2    O32   1.298865 A    
O19   V1    1.684679 S    
C57   H23   1.110490 S    
O27   C67   1.420049 S    
O1    V3    1.989924 S    
C52   H13   1.100084 S    
O2    V4    1.989921 S    
C18   C22   1.440183 A    
C33   C37   1.414523 A    
O3    V1    1.992014 S    
O24   C58   1.421279 S    
C53   H14   1.097991 S    
C12   C16   1.393305 A    
C71   C72   1.508164 S    
C50   H8    1.105328 S    
N4    O35   1.302683 A    
C71   H57   1.110595 S    
C68   H49   1.108755 S    
C2    O16   1.319957 A    
O26   C64   1.419170 S    
C69   H53   1.106692 S    
C42   C46   1.235474 T    
C62   C63   1.521748 S    
C51   H11   1.110181 S    
C24   C36   1.431308 A    
O14   V2    1.967477 S    
C21   C25   1.421291 A    
C56   C57   1.527385 S    
C19   C23   1.437320 A    
C16   C20   1.436059 A    
C27   C31   1.409198 A    
C2    C43   1.484687 S    
O11   C7    1.298486 A    
C35   O27   1.378289 S    
N1    O30   1.299377 A    
C22   C34   1.429289 A    
C70   C71   1.525913 S    
O17   V1    2.146838 S    
O10   V2    1.998277 S    
C67   C68   1.527743 S    
C53   H15   1.107023 S    
C72   H60   1.098448 S    
C72   H59   1.109268 S    
C1    O15   1.319495 A    
C72   H58   1.107032 S    
O5    V1    1.968957 S    
C9    C29   1.400489 A    
C54   H18   1.111079 S    
C23   C35   1.426936 A    
O7    V3    1.971735 S    
C11   C31   1.402057 A    
C27   C28   1.424226 A    
O8    V4    1.971738 S    
O20   V4    2.147846 S    
C68   C69   1.517244 S    
C51   H9    1.109975 S    
C65   H43   1.111215 S    
C60   H32   1.111164 S    
C34   O26   1.378014 S    
C49   H5    1.111255 S    
C67   H47   1.108824 S    
C23   C27   1.418978 A    
O19   V3    2.147847 S    
C55   C56   1.550537 S    
C9    C13   1.385499 A    
C59   H29   1.106761 S    
C71   H56   1.109422 S    
C11   C15   1.387052 A    
C47   C48   1.459783 S    
O2    C6    1.295198 A    
C12   C32   1.403275 A    
C64   C65   1.528412 S    
C29   C38   1.402519 A    
C39   N3    1.447267 S    
O23   C55   1.421627 S    
C11   H3    1.082410 S    
O8    C4    1.328918 A    
C31   C40   1.403630 A    
C55   H20   1.102794 S    
C8    C13   1.490111 S    
O25   C61   1.422420 S    
C32   C39   1.406198 A    
O9    C5    1.300282 A    
C58   H27   1.099763 S    
C52   C53   1.549461 S    
C41   C45   1.235515 T    
N3    O33   1.302079 A    
O28   C70   1.417543 S    
C67   H48   1.117698 S    
N2    O31   1.302449 A    
O6    V2    1.968959 S    
O18   V2    2.146838 S    
C64   H40   1.108763 S    
C56   H22   1.105732 S    
C69   H52   1.110190 S    
C18   O22   1.395595 S    
C61   H34   1.119994 S    
C63   H39   1.110200 S    
C56   H21   1.099621 S    
C50   C51   1.528533 S    
C62   H36   1.101391 S    
O16   V4    1.968862 S    
C54   H17   1.110877 S    
C3    O13   1.319369 A    
C58   H26   1.111121 S    
C10   C14   1.391951 A    
O17   V3    1.685393 S    
C51   H10   1.104055 S    
C65   H42   1.107511 S    
C63   H38   1.108764 S    
O6    C2    1.328178 A    
C15   C19   1.430565 A    
C66   H44   1.107477 S    
C12   H4    1.083569 S    
O11   V3    1.994371 S    
O18   V4    1.685394 S    
C30   C37   1.404906 A    
O12   V4    1.994374 S    
C7    C14   1.489706 S    
C22   C26   1.419649 A    
C35   C39   1.413352 A    
C36   C40   1.413467 A    
O10   C6    1.304603 A    
C61   C62   1.530241 S    
C60   H31   1.110825 S    
C52   H12   1.110989 S    
C60   H30   1.107844 S    
C43   C47   1.235169 T    
C66   H45   1.109590 S    
C10   C30   1.404558 A    
C62   H35   1.102662 S    
C5    C16   1.491572 S    
C57   H24   1.108327 S    
C25   C29   1.410853 A    
C6    C15   1.487562 S    
O20   V2    1.684679 S    
C55   H19   1.111090 S    
N4    O36   1.299045 A    
C58   C59   1.548556 S    
C37   N1    1.435703 S    
C59   H28   1.097774 S    
C53   C54   1.527277 S    
C13   C17   1.432969 A    
C36   O28   1.375992 S    
C59   C60   1.527686 S    
C33   O25   1.386462 S    
C28   C32   1.408148 A    
C24   C28   1.418057 A    
O22   C52   1.422603 S    
O12   C8    1.306937 A    
C25   C26   1.424635 A    
C4    O14   1.319671 A    
C70   H54   1.110265 S    
C64   H41   1.115871 S    
C17   C21   1.436893 A    
C69   H51   1.108553 S    
C61   H33   1.103672 S    
C40   N4    1.448814 S    
O4    V2    1.992017 S    
C20   C24   1.442386 A    
C57   H25   1.111033 S    
C20   O24   1.395710 S    
