data_mof_unit_pretest_1231.cif
_audit_creation_date              2012-12-10T17:50:36-0500
_audit_creation_method            fapswitch 2.2
_symmetry_space_group_name_H-M    P1
_symmetry_Int_Tables_number       1
_space_group_crystal_system       triclinic
_cell_length_a                    15.709724
_cell_length_b                    10.62003
_cell_length_c                    9.935436
_cell_angle_alpha                 89.86918
_cell_angle_beta                  89.820798
_cell_angle_gamma                 91.529473
_cell_volume                      1657.00238136

loop_
_atom_site_label
_atom_site_type_symbol
_atom_type_description
_atom_site_fract_x
_atom_site_fract_y
_atom_site_fract_z
_atom_type_partial_charge
C1    C     C_R   0.501916 0.260762 0.500155 0.842787
C2    C     C_3   0.082701 0.501549 0.501648 0.118797
C3    C     C_3   0.972093 0.548646 0.619106 -0.162318
C4    C     C_3   0.917203 0.502262 0.501031 0.131686
C5    C     C_3   0.029889 0.619279 0.516754 0.335983
C6    C     C_3   0.973379 0.574242 0.398872 -0.181185
C7    C     C_1   0.173664 0.500722 0.501334 -0.006476
C8    C     C_1   0.826297 0.501924 0.500296 -0.008972
C9    C     C_R   0.648908 0.136276 0.609229 -0.234142
C10   C     C_R   0.718540 0.072883 0.660130 -0.163029
C11   C     C_R   0.718838 0.941713 0.658582 0.337178
C12   C     C_R   0.338042 0.499775 0.500192 0.886491
C13   C     C_R   0.649215 0.873745 0.606645 -0.236711
C14   C     C_R   0.577950 0.936701 0.555371 0.044347
C15   C     C_R   0.577856 0.068637 0.556282 0.102444
C16   C     C_R   0.507180 0.128603 0.500106 -0.066928
C17   C     C_R   0.439943 0.062217 0.440207 -0.211980
C18   C     C_R   0.439922 0.933506 0.439823 -0.179882
C19   C     C_R   0.507224 0.871859 0.499078 -0.077435
C20   C     C_R   0.388986 0.334330 0.140616 -0.144045
C21   C     C_R   0.334502 0.252485 0.070955 -0.189535
C22   C     C_R   0.334477 0.252567 0.931645 -0.178379
C23   C     C_R   0.501728 0.739349 0.499774 0.870708
C24   C     C_R   0.388980 0.334437 0.861107 -0.140144
C25   C     C_R   0.445362 0.418370 0.928202 0.165336
C26   C     C_R   0.445373 0.418378 0.072657 0.170373
C27   C     C_R   0.552281 0.578106 0.070953 -0.097911
C28   C     C_R   0.552269 0.578071 0.927991 -0.094470
C29   C     C_R   0.661947 0.500593 0.499866 0.874456
C30   C     C_3   0.969467 0.383332 0.485814 -0.140963
C31   C     C_3   0.027521 0.455279 0.383818 -0.202305
C32   C     C_1   0.249031 0.500147 0.500778 -0.157563
C33   C     C_1   0.750937 0.501344 0.499780 -0.159476
C34   C     C_3   0.026280 0.429726 0.603683 -0.211332
H1    H     H_    0.052205 0.416948 0.287877 0.161740
H2    H     H_    0.652321 0.772179 0.604789 0.162125
H3    H     H_    0.386638 0.881587 0.395570 0.161786
H4    H     H_    0.595033 0.642033 0.124090 0.157113
H5    H     H_    0.384862 0.328977 0.247346 0.196852
H6    H     H_    0.291909 0.188756 0.125612 0.156634
H7    H     H_    0.291842 0.188926 0.877693 0.162291
H8    H     H_    0.384935 0.329270 0.754387 0.201437
H9    H     H_    0.595004 0.641992 0.874029 0.162128
H10   H     H_    0.942382 0.286464 0.473161 0.163419
H11   H     H_    0.949822 0.633823 0.315680 0.170531
H12   H     H_    0.947462 0.587455 0.714857 0.188838
H13   H     H_    0.049944 0.370566 0.687141 0.165560
H14   H     H_    0.386732 0.110349 0.396008 0.140233
H15   H     H_    0.651997 0.238046 0.609859 0.164151
H16   H     H_    0.772678 0.126009 0.699495 0.171392
N1    N     N_R   0.499210 0.498800 0.142780 -0.123519
N2    N     N_R   0.499180 0.498720 0.857170 -0.123922
O1    O     O_R   0.500000 0.316780 0.614690 -0.639712
O2    O     O_R   0.499990 0.316750 0.385360 -0.630110
O3    O     O_R   0.376780 0.500000 0.614650 -0.624984
O4    O     O_R   0.376770 0.499980 0.385310 -0.631581
O5    O     O_R   0.500010 0.683250 0.614640 -0.610963
O6    O     O_R   0.500000 0.683220 0.385310 -0.611155
O7    O     O_R   0.623230 0.500020 0.614690 -0.617637
O8    O     O_R   0.623220 0.500000 0.385350 -0.605009
Zn1   Zn    Zn3+2 0.500010 0.500020 0.653130 0.948189
Zn2   Zn    Zn3+2 0.499990 0.499980 0.346870 0.951053
Br1   Br    Br    0.815159 0.854746 0.724711 -0.519145
Br2   Br    Br    0.075081 0.789328 0.539224 -0.483138

loop_
_geom_bond_atom_site_label_1
_geom_bond_atom_site_label_2
_ccdc_geom_bond_type
O6    Zn2   S    
C23   O6    A    
C19   C23   S    
C1    O2    A    
C17   H14   S    
C24   C25   A    
O5    Zn1   S    
C7    C32   T    
C6    H11   S    
C22   H7    S    
C28   H9    S    
C24   H8    S    
C9    C10   A    
C29   O7    A    
C3    H12   S    
C11   Br1   S    
C2    C7    S    
C29   O8    A    
C30   C31   S    
C4    C8    S    
C2    C34   S    
C17   C18   A    
C9    C15   A    
C25   N2    A    
C1    C16   S    
C13   C14   A    
C12   C32   S    
C28   N2    A    
C30   H10   S    
C12   O4    A    
N1    Zn2   S    
C20   C26   A    
C11   C13   A    
O3    Zn1   S    
C31   H1    S    
O8    Zn2   S    
C18   H3    S    
C27   N1    A    
C6    C31   S    
C26   N1    A    
C22   C24   A    
N2    Zn1   S    
C5    C6    S    
O4    Zn2   S    
O7    Zn1   S    
C2    C5    S    
C16   C17   A    
C10   C11   A    
C30   C34   S    
C27   H4    S    
C15   C16   A    
C10   H16   S    
C29   C33   S    
C12   O3    A    
C9    H15   S    
C20   C21   A    
C13   H2    S    
C4    C6    S    
C18   C19   A    
C27   C28   A    
C23   O5    A    
C20   H5    S    
C1    O1    A    
C14   C15   A    
C2    C31   S    
C34   H13   S    
O2    Zn2   S    
C3    C34   S    
C25   C26   A    
C21   C22   A    
O1    Zn1   S    
C14   C19   A    
C4    C30   S    
C3    C4    S    
C5    Br2   S    
C8    C33   T    
C3    C5    S    
C21   H6    S    
