data_mof_unit_pretest_92.cif
_audit_creation_date              2012-12-11T15:43:18-0500
_audit_creation_method            fapswitch 2.2
_symmetry_space_group_name_H-M    P1
_symmetry_Int_Tables_number       1
_space_group_crystal_system       triclinic
_cell_length_a                    19.170302
_cell_length_b                    10.868828
_cell_length_c                    18.755541
_cell_angle_alpha                 89.681843
_cell_angle_beta                  90.038424
_cell_angle_gamma                 89.991702
_cell_volume                      3907.81925404

loop_
_atom_site_label
_atom_site_type_symbol
_atom_type_description
_atom_site_fract_x
_atom_site_fract_y
_atom_site_fract_z
_atom_type_partial_charge
C1    C     C_R   0.728962 0.376276 0.145519 0.531746
C2    C     C_R   0.269384 0.378493 0.853019 0.533980
C3    C     C_R   0.228959 0.876266 0.145516 0.531767
C4    C     C_R   0.769385 0.878492 0.853019 0.533976
C5    C     C_R   0.501974 0.411247 0.920917 0.236673
C6    C     C_R   0.481486 0.408435 0.070511 0.236548
C7    C     C_R   0.001756 0.911207 0.920936 0.236880
C8    C     C_R   0.981203 0.908400 0.070517 0.236175
C9    C     C_R   0.984971 0.016935 0.957699 -0.145852
C10   C     C_R   0.975547 0.015718 0.029767 -0.147779
C11   C     C_R   0.485506 0.517052 0.957747 -0.146182
C12   C     C_R   0.476150 0.515836 0.029823 -0.147799
C13   C     C_R   0.747926 0.921121 0.922277 0.020335
C14   C     C_R   0.240409 0.907217 0.071873 0.012231
C15   C     C_R   0.247924 0.421117 0.922278 0.020306
C16   C     C_R   0.740417 0.407248 0.071878 0.012271
C17   C     C_R   0.729532 0.832798 0.973181 0.016211
C18   C     C_R   0.306219 0.921915 0.041653 0.013807
C19   C     C_R   0.229566 0.332785 0.973189 0.016163
C20   C     C_R   0.806231 0.421975 0.041662 0.013852
C21   C     C_R   0.723738 0.862725 0.044295 0.049588
C22   C     C_R   0.312785 0.927836 0.968170 0.035301
C23   C     C_R   0.223773 0.362714 0.044304 0.049678
C24   C     C_R   0.812801 0.427889 0.968178 0.035338
C25   C     C_R   0.756153 0.071976 0.016130 -0.157859
C26   C     C_R   0.188497 0.908366 0.954163 -0.169016
C27   C     C_R   0.256108 0.571997 0.016120 -0.157689
C28   C     C_R   0.688510 0.408387 0.954163 -0.169068
C29   C     C_R   0.764125 0.040501 0.944566 -0.142880
C30   C     C_R   0.181369 0.904590 0.027193 -0.176835
C31   C     C_R   0.264082 0.540519 0.944556 -0.142825
C32   C     C_R   0.681378 0.404610 0.027193 -0.176813
C33   C     C_3   0.667079 0.751008 0.975872 -0.260459
C34   C     C_3   0.370825 0.847262 0.050917 -0.288032
C35   C     C_3   0.167137 0.250941 0.975894 -0.260371
C36   C     C_3   0.870844 0.347344 0.050934 -0.288121
C37   C     C_3   0.661991 0.780681 0.054555 -0.270294
C38   C     C_3   0.376377 0.847884 0.970270 -0.276524
C39   C     C_3   0.162055 0.280610 0.054577 -0.270242
C40   C     C_3   0.876396 0.347940 0.970286 -0.276538
C41   C     C_R   0.734398 0.983759 0.066222 0.031923
C42   C     C_R   0.254044 0.919381 0.923608 0.002779
C43   C     C_R   0.234395 0.483763 0.066222 0.032055
C44   C     C_R   0.754059 0.419410 0.923614 0.002806
C45   C     C_R   0.531832 0.157753 0.145767 0.587124
C46   C     C_R   0.470314 0.157810 0.852054 0.586015
C47   C     C_R   0.031822 0.657756 0.145776 0.587118
C48   C     C_R   0.970305 0.657809 0.852060 0.585960
C49   C     C_R   0.509741 0.161281 0.581602 0.021398
C50   C     C_R   0.548054 0.158711 0.437004 0.014428
C51   C     C_R   0.009739 0.661281 0.581602 0.021390
C52   C     C_R   0.048049 0.658713 0.437003 0.014428
C53   C     C_R   0.522302 0.050396 0.545926 0.027629
C54   C     C_R   0.539958 0.049490 0.475070 0.015916
C55   C     C_R   0.022300 0.550397 0.545926 0.027630
C56   C     C_R   0.039955 0.549490 0.475070 0.015902
C57   C     C_R   0.545594 0.270451 0.474578 -0.162568
C58   C     C_R   0.526930 0.271940 0.547009 -0.167278
C59   C     C_R   0.045589 0.770452 0.474577 -0.162562
C60   C     C_R   0.026927 0.771940 0.547009 -0.167292
C61   C     C_3   0.475794 0.940554 0.537554 -0.267420
C62   C     C_3   0.494098 0.941421 0.459425 -0.268043
C63   C     C_3   0.975791 0.440555 0.537554 -0.267415
C64   C     C_3   0.994095 0.441421 0.459425 -0.268028
C65   C     C_R   0.752207 0.933740 0.580022 0.022676
C66   C     C_R   0.252940 0.922295 0.421020 0.018560
C67   C     C_R   0.252207 0.433740 0.580022 0.022668
C68   C     C_R   0.752940 0.422294 0.421020 0.018561
C69   C     C_R   0.804415 0.993953 0.540816 0.021760
C70   C     C_R   0.220990 0.022757 0.453330 0.019352
C71   C     C_R   0.304415 0.493953 0.540816 0.021761
C72   C     C_R   0.720990 0.522757 0.453330 0.019362
C73   C     C_R   0.800530 0.001264 0.468259 0.020872
C74   C     C_R   0.219666 0.030326 0.526235 0.037480
C75   C     C_R   0.300530 0.501265 0.468259 0.020893
C76   C     C_R   0.719666 0.530325 0.526236 0.037480
C77   C     C_R   0.687002 0.908609 0.470851 -0.164075
C78   C     C_R   0.295774 0.855899 0.537640 -0.176498
C79   C     C_R   0.187002 0.408610 0.470851 -0.164078
C80   C     C_R   0.795773 0.355897 0.537640 -0.176501
C81   C     C_R   0.689905 0.903396 0.545439 -0.156088
C82   C     C_R   0.296018 0.845249 0.463319 -0.165470
C83   C     C_R   0.189905 0.403396 0.545439 -0.156094
C84   C     C_R   0.796017 0.345247 0.463319 -0.165467
C85   C     C_3   0.881943 0.974566 0.537852 -0.264383
C86   C     C_3   0.149743 0.078122 0.446646 -0.273283
C87   C     C_3   0.381943 0.474567 0.537852 -0.264362
C88   C     C_3   0.649744 0.578123 0.446647 -0.273303
C89   C     C_R   0.728122 0.018375 0.140154 0.553878
C90   C     C_R   0.259284 0.967839 0.852079 0.568511
C91   C     C_R   0.228121 0.518378 0.140154 0.553956
C92   C     C_R   0.759289 0.467850 0.852083 0.568497
C93   C     C_3   0.876914 0.984542 0.457644 -0.271106
C94   C     C_3   0.146837 0.078322 0.527387 -0.265027
C95   C     C_3   0.376913 0.484543 0.457644 -0.271147
C96   C     C_3   0.646837 0.578323 0.527388 -0.265025
C97   C     C_R   0.745169 0.948922 0.431459 0.014613
C98   C     C_R   0.252935 0.943925 0.569918 0.021859
C99   C     C_R   0.245169 0.448923 0.431459 0.014633
C100  C     C_R   0.752935 0.443924 0.569918 0.021856
C101  C     C_R   0.730122 0.378960 0.351975 0.538557
C102  C     C_R   0.270322 0.381164 0.648540 0.532866
C103  C     C_R   0.230122 0.878960 0.351975 0.538570
C104  C     C_R   0.770322 0.881164 0.648540 0.532879
C105  C     C_R   0.563667 0.152632 0.361111 0.558202
C106  C     C_R   0.469195 0.156850 0.647244 0.553248
C107  C     C_R   0.063662 0.652633 0.361111 0.558201
C108  C     C_R   0.969195 0.656850 0.647244 0.553224
C109  C     C_R   0.740181 0.975327 0.356081 0.558377
C110  C     C_R   0.258949 0.973220 0.644790 0.553571
C111  C     C_R   0.240180 0.475328 0.356081 0.558399
C112  C     C_R   0.758949 0.473220 0.644790 0.553602
C113  C     C_R   0.505801 0.177843 0.920740 0.032086
C114  C     C_R   0.509105 0.174064 0.070855 0.013995
C115  C     C_R   0.005775 0.677852 0.920755 0.032112
C116  C     C_R   0.009095 0.674064 0.070868 0.013898
C117  C     C_R   0.502293 0.293642 0.957788 -0.038277
C118  C     C_R   0.497103 0.291779 0.035314 -0.044345
C119  C     C_R   0.002188 0.793629 0.957816 -0.038304
C120  C     C_R   0.996989 0.791769 0.035339 -0.044385
C121  C     C_R   0.521079 0.068465 0.029986 -0.172141
C122  C     C_R   0.522567 0.071398 0.957295 -0.167460
C123  C     C_R   0.021136 0.568484 0.029988 -0.172167
C124  C     C_R   0.022597 0.571423 0.957297 -0.167470
Cr1   Cr    Cr6+3 0.772010 0.169670 0.250090 1.060410
Cr2   Cr    Cr6+3 0.227990 0.169670 0.749910 1.071932
Cr3   Cr    Cr6+3 0.272010 0.669670 0.250090 1.060077
Cr4   Cr    Cr6+3 0.727990 0.669670 0.749910 1.071900
Cr5   Cr    Cr6+3 0.615000 0.323260 0.249260 1.109884
Cr6   Cr    Cr6+3 0.385000 0.323260 0.750740 1.121950
Cr7   Cr    Cr6+3 0.115000 0.823260 0.249260 1.110132
Cr8   Cr    Cr6+3 0.885000 0.823260 0.750740 1.121891
Cr9   Cr    Cr6+3 0.616710 0.010760 0.250840 1.011771
Cr10  Cr    Cr6+3 0.383290 0.010760 0.749160 1.017026
Cr11  Cr    Cr6+3 0.116710 0.510760 0.250840 1.011836
Cr12  Cr    Cr6+3 0.883290 0.510760 0.749160 1.017046
H1    H     H_    0.531528 0.980020 0.054242 0.129967
H2    H     H_    0.530879 0.985612 0.929328 0.124177
H3    H     H_    0.031647 0.480045 0.054233 0.130005
H4    H     H_    0.030943 0.485654 0.929322 0.124178
H5    H     H_    0.552508 0.356202 0.446865 0.129634
H6    H     H_    0.520060 0.359071 0.573711 0.130894
H7    H     H_    0.052500 0.856204 0.446863 0.129640
H8    H     H_    0.020058 0.859072 0.573711 0.130890
H9    H     H_    0.920200 0.462818 0.547342 0.166164
H10   H     H_    0.023167 0.358034 0.442898 0.127365
H11   H     H_    0.420204 0.962814 0.547343 0.166164
H12   H     H_    0.523168 0.858034 0.442897 0.127335
H13   H     H_    0.495980 0.858462 0.566579 0.134282
H14   H     H_    0.448980 0.965547 0.424710 0.164809
H15   H     H_    0.995975 0.358462 0.566580 0.134297
H16   H     H_    0.948978 0.465546 0.424709 0.164825
H17   H     H_    0.640295 0.879409 0.443960 0.128616
H18   H     H_    0.327261 0.793805 0.569590 0.130223
H19   H     H_    0.140295 0.379409 0.443960 0.128619
H20   H     H_    0.827260 0.293802 0.569590 0.130230
H21   H     H_    0.645973 0.868097 0.575326 0.122180
H22   H     H_    0.324633 0.769599 0.440040 0.145731
H23   H     H_    0.145973 0.368097 0.575327 0.122188
H24   H     H_    0.824632 0.269596 0.440041 0.145747
H25   H     H_    0.897221 0.880915 0.555770 0.164895
H26   H     H_    0.109878 0.018998 0.422123 0.159314
H27   H     H_    0.397222 0.380916 0.555770 0.164890
H28   H     H_    0.609877 0.519000 0.422123 0.159296
H29   H     H_    0.911455 0.051512 0.562446 0.137726
H30   H     H_    0.152067 0.171415 0.422700 0.137501
H31   H     H_    0.411454 0.551513 0.562446 0.137713
H32   H     H_    0.652069 0.671416 0.422701 0.137484
H33   H     H_    0.902285 0.068644 0.435835 0.143959
H34   H     H_    0.143008 0.170765 0.550679 0.146861
H35   H     H_    0.402285 0.568645 0.435835 0.143888
H36   H     H_    0.643008 0.670765 0.550679 0.146854
H37   H     H_    0.889973 0.897512 0.429703 0.163017
H38   H     H_    0.109397 0.010382 0.549690 0.141279
H39   H     H_    0.389973 0.397513 0.429703 0.162983
H40   H     H_    0.609396 0.510383 0.549690 0.141281
H41   H     H_    0.982139 0.105074 0.930554 0.133444
H42   H     H_    0.965183 0.103932 0.053874 0.142609
H43   H     H_    0.482823 0.605229 0.930640 0.133697
H44   H     H_    0.465995 0.604075 0.053984 0.143040
H45   H     H_    0.765007 0.165506 0.032113 0.122502
H46   H     H_    0.142761 0.906064 0.921680 0.211970
H47   H     H_    0.264931 0.665536 0.032097 0.122479
H48   H     H_    0.642780 0.406070 0.921667 0.211710
H49   H     H_    0.782059 0.108912 0.906609 0.129186
H50   H     H_    0.129370 0.893047 0.048416 0.154507
H51   H     H_    0.281984 0.608942 0.906592 0.129175
H52   H     H_    0.629381 0.393047 0.048413 0.154378
H53   H     H_    0.180893 0.153854 0.965562 0.183147
H54   H     H_    0.862034 0.254693 0.074248 0.170800
H55   H     H_    0.680805 0.653906 0.965543 0.183072
H56   H     H_    0.362011 0.754601 0.074215 0.171282
H57   H     H_    0.622607 0.787264 0.943936 0.143265
H58   H     H_    0.412740 0.900563 0.077463 0.146385
H59   H     H_    0.122649 0.287156 0.943966 0.143362
H60   H     H_    0.912759 0.400668 0.077470 0.146409
H61   H     H_    0.613804 0.831087 0.068914 0.137666
H62   H     H_    0.423112 0.896104 0.950124 0.156286
H63   H     H_    0.113852 0.330967 0.068945 0.137658
H64   H     H_    0.923134 0.396155 0.950135 0.156313
H65   H     H_    0.674193 0.700588 0.089544 0.165063
H66   H     H_    0.367602 0.756089 0.946150 0.129879
H67   H     H_    0.174288 0.200531 0.089565 0.165137
H68   H     H_    0.867616 0.256137 0.946177 0.129698
O1    O     O_R   0.787520 0.042810 0.170440 -0.401567
O2    O     O_R   0.212480 0.042810 0.829560 -0.427639
O3    O     O_R   0.287520 0.542810 0.170440 -0.401397
O4    O     O_R   0.712480 0.542810 0.829560 -0.427633
O5    O     O_R   0.556610 0.252880 0.323980 -0.460630
O6    O     O_R   0.443390 0.252880 0.676020 -0.473643
O7    O     O_R   0.056610 0.752880 0.323980 -0.460605
O8    O     O_R   0.943390 0.752880 0.676020 -0.473683
O9    O     O_R   0.545950 0.051210 0.330860 -0.515284
O10   O     O_R   0.454050 0.051210 0.669140 -0.527289
O11   O     O_R   0.045950 0.551210 0.330860 -0.515263
O12   O     O_R   0.954050 0.551210 0.669140 -0.527272
O13   O     O_R   0.681390 0.959480 0.325510 -0.522795
O14   O     O_R   0.318610 0.959480 0.674490 -0.515735
O15   O     O_R   0.181390 0.459480 0.325510 -0.522756
O16   O     O_R   0.818610 0.459480 0.674490 -0.515728
O17   O     O_3   0.667900 0.167900 0.250060 -0.314833
O18   O     O_3   0.332100 0.167900 0.749940 -0.274267
O19   O     O_3   0.167900 0.667900 0.250060 -0.314860
O20   O     O_3   0.832100 0.667900 0.749940 -0.274265
O21   O     O_R   0.765640 0.292100 0.175020 -0.520807
O22   O     O_R   0.234360 0.292100 0.824980 -0.500692
O23   O     O_R   0.265640 0.792100 0.175020 -0.520880
O24   O     O_R   0.734360 0.792100 0.824980 -0.500671
O25   O     O_R   0.670190 0.408840 0.168540 -0.495022
O26   O     O_R   0.329810 0.408840 0.831460 -0.491523
O27   O     O_R   0.170190 0.908840 0.168540 -0.494793
O28   O     O_R   0.829810 0.908840 0.831460 -0.491634
O29   O     O_R   0.556620 0.251410 0.175160 -0.423239
O30   O     O_R   0.443380 0.251410 0.824840 -0.426224
O31   O     O_R   0.056620 0.751410 0.175160 -0.423091
O32   O     O_R   0.943380 0.751410 0.824840 -0.426331
O33   O     O_R   0.545960 0.049620 0.170320 -0.541556
O34   O     O_R   0.454040 0.049620 0.829680 -0.539095
O35   O     O_R   0.045960 0.549620 0.170320 -0.541578
O36   O     O_R   0.954040 0.549620 0.829680 -0.539084
O37   O     O_R   0.681390 0.958010 0.176690 -0.506696
O38   O     O_R   0.318610 0.958010 0.823310 -0.512104
O39   O     O_R   0.181390 0.458010 0.176690 -0.506719
O40   O     O_R   0.818610 0.458010 0.823310 -0.512103
O41   O     O_R   0.787510 0.044390 0.330970 -0.485249
O42   O     O_R   0.212490 0.044390 0.669030 -0.489299
O43   O     O_R   0.287510 0.544390 0.330970 -0.485458
O44   O     O_R   0.712490 0.544390 0.669030 -0.489250
O45   O     O_R   0.765630 0.293570 0.323840 -0.513065
O46   O     O_R   0.234370 0.293570 0.676160 -0.511279
O47   O     O_R   0.265630 0.793570 0.323840 -0.513136
O48   O     O_R   0.734370 0.793570 0.676160 -0.511278
O49   O     O_R   0.670190 0.410420 0.329080 -0.519204
O50   O     O_R   0.329810 0.410420 0.670920 -0.511083
O51   O     O_R   0.170190 0.910420 0.329080 -0.519162
O52   O     O_R   0.829810 0.910420 0.670920 -0.511080
S1    S     S_3+6 0.534944 0.445578 0.833646 -0.011671
O53   O     O_2   0.580488 0.344130 0.805645 -0.294378
O54   O     O_2   0.476104 0.469217 0.782366 -0.277257
O55   O     O_3   0.581310 0.576672 0.838249 -0.537297
H69   H     H_    0.550242 0.642706 0.820153 0.329624
S2    S     S_3+6 0.461172 0.439051 0.161970 0.025801
O56   O     O_2   0.421158 0.334753 0.195382 -0.245680
O57   O     O_2   0.526367 0.464246 0.203958 -0.282263
O58   O     O_3   0.414237 0.568987 0.168087 -0.512521
H70   H     H_    0.447603 0.635211 0.180391 0.321701
S3    S     S_3+6 0.034909 0.945631 0.833752 -0.011683
O59   O     O_2   0.080506 0.844217 0.805800 -0.294448
O60   O     O_2   0.976172 0.969331 0.782356 -0.277307
O61   O     O_3   0.081274 0.076707 0.838541 -0.537469
H71   H     H_    0.050219 0.142803 0.820518 0.329647
S4    S     S_3+6 0.961247 0.939112 0.162065 0.025824
O62   O     O_2   0.921440 0.834776 0.195705 -0.245611
O63   O     O_2   0.026629 0.964452 0.203728 -0.282094
O64   O     O_3   0.914271 0.068967 0.168453 -0.511805
H72   H     H_    0.947781 0.135420 0.180021 0.321238

loop_
_geom_bond_atom_site_label_1
_geom_bond_atom_site_label_2
_ccdc_geom_bond_type
C49   C106  S    
C87   H27   S    
C55   C56   A    
C88   C96   S    
C67   C83   A    
C98   C110  S    
C116  C123  A    
C39   H67   S    
Cr2   O42   S    
C103  O51   A    
C14   C18   A    
C35   C39   S    
O64   H72   S    
C86   H30   S    
C73   C93   S    
C72   C76   A    
Cr4   O20   S    
S2    O58   S    
C84   H24   S    
C68   C84   A    
C75   C95   S    
C123  C124  A    
C74   C98   A    
C22   C42   A    
C53   C54   A    
C65   C69   A    
C15   C19   A    
Cr8   O8    S    
C108  O12   A    
C8    C120  A    
C50   C54   A    
C17   C33   S    
C64   H16   S    
C59   H7    S    
C36   H54   S    
C30   H50   S    
C13   C29   A    
C65   C104  S    
C45   O29   A    
Cr2   O46   S    
C5    C11   A    
Cr7   O19   S    
C6    C12   A    
C82   H22   S    
S3    O61   S    
Cr7   O51   S    
C107  O7    A    
Cr6   O26   S    
C50   C57   A    
Cr7   O27   S    
Cr11  O19   S    
C22   C38   S    
C123  H3    S    
Cr6   O50   S    
C105  O5    A    
Cr6   O30   S    
C112  O44   A    
S1    O53   D    
C121  H1    S    
C4    C13   S    
C95   H39   S    
C85   H25   S    
Cr10  O38   S    
Cr3   O3    S    
C86   C94   S    
Cr9   O37   S    
C90   O2    A    
C114  C121  A    
C85   C93   S    
C45   C114  S    
C89   O1    A    
C113  C122  A    
C40   H68   S    
C52   C107  S    
C29   H49   S    
S4    O62   D    
Cr10  O18   S    
C55   C63   S    
C70   C74   A    
C50   C105  S    
Cr9   O17   S    
C56   C64   S    
C77   C97   A    
C99   C111  S    
C86   H26   S    
C37   H61   S    
Cr1   O45   S    
C96   H40   S    
O58   H70   S    
C52   C56   A    
Cr3   O47   S    
C44   C92   S    
C16   C20   A    
C58   H6    S    
C77   H17   S    
C34   H58   S    
C25   C41   A    
C46   O34   A    
C72   C88   S    
C109  O41   A    
C59   C60   A    
C35   H53   S    
C62   H12   S    
C80   C100  A    
Cr3   O23   S    
Cr10  O34   S    
Cr8   O20   S    
Cr2   O22   S    
Cr9   O33   S    
C14   C30   A    
C111  O15   A    
Cr1   O21   S    
Cr8   O28   S    
C75   C99   A    
C34   C38   S    
C108  O8    A    
C25   H45   S    
C5    S1    S    
C80   H20   S    
C47   O31   A    
C67   C102  S    
Cr11  O39   S    
S4    O63   D    
C25   C29   A    
C47   C116  S    
C106  O10   A    
Cr11  O11   S    
C71   C75   A    
C105  O9    A    
C32   H52   S    
C63   C64   S    
C27   C31   A    
C80   C84   A    
C10   H42   S    
C20   C24   A    
C76   C100  A    
C28   C32   A    
Cr6   O18   S    
C81   H21   S    
C68   C101  S    
C122  H2    S    
Cr5   O17   S    
Cr3   O19   S    
C3    O27   A    
Cr12  O40   S    
C78   H18   S    
C20   C36   S    
S2    O57   D    
C54   C62   S    
C51   C55   A    
Cr7   O31   S    
C42   C90   S    
Cr10  O14   S    
C79   H19   S    
C15   C31   A    
C28   C44   A    
C43   C91   S    
C49   C58   A    
C116  C120  A    
C11   H43   S    
Cr5   O29   S    
C68   C72   A    
C102  O50   A    
Cr4   O44   S    
C101  O49   A    
C19   C23   A    
C17   C21   A    
C36   H60   S    
C78   C98   A    
C92   O4    A    
C52   C59   A    
C7    C119  A    
C76   C96   S    
C66   C82   A    
C97   C109  S    
C78   C82   A    
C65   C81   A    
Cr12  O20   S    
C36   C40   S    
Cr4   O24   S    
Cr11  O15   S    
C46   O30   A    
C38   H62   S    
C112  O16   A    
C79   C99   A    
C83   H23   S    
C6    S2    S    
C1    C16   S    
Cr4   O48   S    
Cr5   O25   S    
C69   C73   A    
C2    C15   S    
C18   C34   S    
C63   H15   S    
C121  C122  A    
C114  C118  A    
C3    C14   S    
C38   H66   S    
C94   H38   S    
C48   C115  S    
C21   C41   A    
C26   H46   S    
C45   O33   A    
C111  O43   A    
C103  O47   A    
C12   H44   S    
Cr5   O49   S    
C73   C97   A    
C115  C119  A    
C94   H34   S    
C90   O38   A    
C102  O46   A    
Cr7   O7    S    
C24   C44   A    
C89   O37   A    
Cr6   O6    S    
Cr3   O43   S    
Cr8   O52   S    
Cr5   O5    S    
C70   C86   S    
C3    O23   A    
C9    H41   S    
C26   C42   A    
C4    O28   A    
C33   C37   S    
C9    C10   A    
C113  C117  A    
C1    O21   A    
C104  O48   A    
C7    C9    A    
C27   C43   A    
C39   H63   S    
C87   C95   S    
C93   H33   S    
C115  C124  A    
C62   H14   S    
C46   C113  S    
C64   H10   S    
C41   C89   S    
C18   C22   A    
C23   C43   A    
C66   C103  S    
C69   C85   S    
C101  O45   A    
C124  H4    S    
C91   O39   A    
O55   H69   S    
Cr1   O1    S    
C107  O11   A    
Cr10  O10   S    
C91   O3    A    
C119  C120  A    
Cr2   O18   S    
C100  C112  S    
S2    O56   D    
Cr12  O16   S    
C35   H59   S    
C16   C32   A    
C87   H31   S    
C40   H64   S    
C48   O36   A    
C51   C108  S    
C104  O52   A    
C57   H5    S    
C33   H55   S    
S3    O59   D    
C85   H29   S    
S1    O55   S    
Cr12  O36   S    
C28   H48   S    
Cr9   O9    S    
C8    S4    S    
C88   H28   S    
C117  C118  A    
C7    S3    S    
Cr1   O17   S    
C79   C83   A    
C92   O40   A    
C110  O42   A    
C57   C58   A    
C66   C70   A    
C61   H13   S    
C34   H56   S    
Cr2   O2    S    
S4    O64   S    
C23   C39   S    
C88   H32   S    
C93   H37   S    
C48   O32   A    
C47   O35   A    
Cr11  O35   S    
C67   C71   A    
C53   C61   S    
C4    O24   A    
C61   H11   S    
C61   C62   S    
C110  O14   A    
C27   H47   S    
C24   C40   S    
C49   C53   A    
C109  O13   A    
C2    O26   A    
C33   H57   S    
C13   C17   A    
Cr8   O32   S    
C1    O25   A    
C21   C37   S    
C2    O22   A    
C8    C10   A    
C77   C81   A    
C96   H36   S    
C5    C117  A    
C74   C94   S    
C37   H65   S    
O61   H71   S    
C71   C87   S    
C19   C35   S    
C51   C60   A    
Cr4   O4    S    
Cr1   O41   S    
C31   H51   S    
S1    O54   D    
C95   H35   S    
C63   H9    S    
C60   H8    S    
S3    O60   D    
C11   C12   A    
C6    C118  A    
Cr9   O13   S    
Cr12  O12   S    
C26   C30   A    
C106  O6    A    
