data_mof_unit_pretest_657.cif
_audit_creation_date              2012-12-10T18:09:53-0500
_audit_creation_method            fapswitch 2.2
_symmetry_space_group_name_H-M    P1
_symmetry_Int_Tables_number       1
_space_group_crystal_system       triclinic
_cell_length_a                    10.730507
_cell_length_b                    12.680904
_cell_length_c                    13.160507
_cell_angle_alpha                 82.376341
_cell_angle_beta                  92.14075
_cell_angle_gamma                 103.155322
_cell_volume                      1728.32616886

loop_
_atom_site_label
_atom_site_type_symbol
_atom_type_description
_atom_site_fract_x
_atom_site_fract_y
_atom_site_fract_z
_atom_type_partial_charge
C1    C     C_R   0.496217 0.438951 0.691398 0.885449
C2    C     C_R   0.494402 0.461287 0.967713 0.063186
C3    C     C_R   0.549707 0.477618 0.869808 -0.058941
C4    C     C_R   0.742103 0.502144 0.499757 0.851856
C5    C     C_R   0.530551 0.544548 0.032158 0.021106
C6    C     C_R   0.627693 0.639000 0.001060 -0.088485
C7    C     C_R   0.685961 0.650327 0.906255 -0.230113
C8    C     C_R   0.650071 0.569646 0.842647 0.574136
C9    C     C_R   0.479475 0.533004 0.129997 -0.245191
C10   C     C_R   0.627543 0.696547 0.169162 -0.275214
C11   C     C_R   0.505299 0.399703 0.801871 -0.157544
C12   C     C_3   0.120507 0.497920 0.505634 -0.014740
C13   C     C_R   0.290592 0.075855 0.375479 -0.288781
C14   C     C_R   0.662528 0.803797 0.623027 -0.134098
C15   C     C_R   0.692955 0.907157 0.654687 0.601656
C16   C     C_R   0.514401 0.561239 0.308897 0.917014
C17   C     C_R   0.624615 0.984832 0.615603 -0.282094
C18   C     C_R   0.525160 0.959488 0.543876 -0.122920
C19   C     C_R   0.497108 0.852075 0.513873 0.071257
C20   C     C_R   0.456104 0.037548 0.496960 0.035065
C21   C     C_R   0.351949 0.002200 0.431350 0.054098
C22   C     C_R   0.321235 0.896350 0.408316 -0.351164
C23   C     C_3   0.057793 0.471059 0.401770 -0.484887
C24   C     C_R   0.398898 0.826233 0.441033 0.625325
C25   C     C_R   0.489116 0.150544 0.506730 -0.084952
C26   C     C_R   0.342682 0.186405 0.372984 0.338161
C27   C     C_R   0.257788 0.498749 0.500880 0.893737
C28   C     C_3   0.904230 0.405954 0.586563 -0.043359
C29   C     C_3   0.052551 0.411449 0.594245 -0.012051
C30   C     C_3   0.917859 0.479380 0.399269 -0.547434
C31   C     C_3   0.964405 0.616547 0.533366 0.709662
C32   C     C_3   0.879045 0.503790 0.505218 0.027141
C33   C     C_3   0.440738 0.192896 0.785710 -0.414387
C34   C     C_3   0.104684 0.613840 0.521340 -0.417366
C35   C     C_3   0.471647 0.093973 0.853291 -0.830765
C36   C     C_3   0.828170 0.387044 0.689178 -0.307911
C37   C     C_3   0.828527 0.277938 0.754916 -0.891716
C38   C     C_3   0.325511 0.254458 0.272933 -0.392349
C39   C     C_3   0.214687 0.310731 0.272830 -0.866797
C40   C     C_3   0.118073 0.430001 0.700863 -0.327188
C41   C     C_3   0.159101 0.328217 0.752880 -0.923712
C42   C     C_3   0.942484 0.728793 0.478029 -0.350600
C43   C     C_3   0.926798 0.740832 0.361626 -0.962666
C44   C     C_R   0.670992 0.717131 0.068528 0.672382
C45   C     C_R   0.536502 0.600829 0.200789 -0.132364
C46   C     C_R   0.447690 0.290748 0.843102 0.158842
C47   C     C_R   0.393830 0.274301 0.940474 -0.148374
C48   C     C_R   0.410256 0.359728 0.999077 -0.227882
F1    F     F_    0.762778 0.808425 0.039940 -0.654151
F2    F     F_    0.722229 0.576943 0.758726 -0.669350
F3    F     F_    0.788885 0.932033 0.723557 -0.649652
F4    F     F_    0.383843 0.741042 0.388424 -0.658381
F5    F     F_    0.946142 0.621019 0.636282 -0.665328
H1    H     H_    0.862297 0.330115 0.551471 0.148769
H2    H     H_    0.245820 0.871491 0.353289 0.182692
H3    H     H_    0.215928 0.047910 0.320782 0.156240
H4    H     H_    0.562907 0.183958 0.558788 0.129717
H5    H     H_    0.716345 0.744469 0.653140 0.234937
H6    H     H_    0.650622 0.063558 0.642863 0.161696
H7    H     H_    0.064965 0.330871 0.576356 0.164633
H8    H     H_    0.857664 0.400506 0.380153 0.208813
H9    H     H_    0.060447 0.386309 0.391581 0.199562
H10   H     H_    0.159333 0.643600 0.589441 0.198066
H11   H     H_    0.560862 0.118631 0.898171 0.272421
H12   H     H_    0.147396 0.671692 0.454094 0.192126
H13   H     H_    0.391782 0.054112 0.906312 0.260240
H14   H     H_    0.485409 0.032779 0.804189 0.262885
H15   H     H_    0.344236 0.168654 0.751054 0.226122
H16   H     H_    0.513131 0.213550 0.724341 0.224476
H17   H     H_    0.735886 0.247104 0.795219 0.260004
H18   H     H_    0.842613 0.215075 0.707983 0.274760
H19   H     H_    0.902967 0.289120 0.815516 0.277931
H20   H     H_    0.859498 0.454021 0.736450 0.302310
H21   H     H_    0.726386 0.385072 0.671178 0.211067
H22   H     H_    0.132873 0.256671 0.316729 0.254330
H23   H     H_    0.901224 0.539771 0.334930 0.207035
H24   H     H_    0.246198 0.388954 0.304293 0.281999
H25   H     H_    0.181814 0.329906 0.192916 0.235215
H26   H     H_    0.416811 0.310153 0.248685 0.221564
H27   H     H_    0.305293 0.201009 0.210856 0.175029
H28   H     H_    0.080158 0.254500 0.756183 0.281470
H29   H     H_    0.237427 0.313206 0.708468 0.267738
H30   H     H_    0.192824 0.340916 0.831925 0.267616
H31   H     H_    0.206330 0.495905 0.693195 0.197732
H32   H     H_    0.058829 0.457707 0.753856 0.249620
H33   H     H_    0.007011 0.719225 0.324414 0.268649
H34   H     H_    0.110199 0.527118 0.337033 0.206882
H35   H     H_    0.833333 0.690863 0.339718 0.261779
H36   H     H_    0.927068 0.827296 0.332976 0.274336
H37   H     H_    0.860557 0.751572 0.511175 0.249809
H38   H     H_    0.025191 0.794444 0.496350 0.201685
H39   H     H_    0.669913 0.752060 0.223273 0.184097
H40   H     H_    0.763755 0.719436 0.882827 0.252050
H41   H     H_    0.399556 0.468672 0.155615 0.161097
H42   H     H_    0.361305 0.340841 0.070729 0.143142
H43   H     H_    0.336928 0.195429 0.971291 0.160813
N1    N     N_R   0.433240 0.222190 0.444680 -0.118451
N2    N     N_R   0.566070 0.776970 0.554790 -0.148617
O1    O     O_R   0.468120 0.366740 0.627160 -0.652269
O2    O     O_R   0.510770 0.544830 0.662520 -0.566922
O3    O     O_R   0.663880 0.410950 0.482330 -0.645882
O4    O     O_R   0.706530 0.589040 0.517700 -0.587978
O5    O     O_R   0.489230 0.455170 0.337480 -0.633829
O6    O     O_R   0.531880 0.633260 0.372840 -0.535372
O7    O     O_R   0.293470 0.410960 0.482300 -0.623842
O8    O     O_R   0.336120 0.589050 0.517670 -0.572772
Zn1   Zn    Zn3+2 0.471520 0.381090 0.476390 0.928224
Zn2   Zn    Zn3+2 0.528480 0.618910 0.523610 1.017395

loop_
_geom_bond_atom_site_label_1
_geom_bond_atom_site_label_2
_ccdc_geom_bond_type
C44   F1    S    
C24   F4    S    
C9    C45   A    
C48   H42   S    
C12   C29   S    
C40   H31   S    
C1    C11   S    
C1    O1    A    
C7    C8    A    
O7    Zn1   S    
C12   C23   S    
C43   H36   S    
C38   H27   S    
C43   H35   S    
C39   H24   S    
C36   C37   S    
C31   C42   S    
C18   C19   A    
C38   C39   S    
C38   H26   S    
C27   O7    A    
C41   H30   S    
N2    Zn2   S    
C34   H12   S    
C42   H38   S    
C16   O6    A    
C23   H9    S    
C47   C48   A    
C4    O4    A    
C47   H43   S    
O4    Zn2   S    
C35   H11   S    
C15   F3    S    
C33   H16   S    
C13   H3    S    
C10   H39   S    
C23   H34   S    
C37   H17   S    
C33   C46   S    
C25   H4    S    
C14   H5    S    
C1    O2    A    
C19   N2    A    
C14   N2    A    
C6    C7    A    
C7    H40   S    
O2    Zn2   S    
C12   C27   S    
C10   C44   A    
C23   C30   S    
C28   C32   S    
C3    C8    A    
C28   H1    S    
C26   C38   S    
C27   O8    A    
C2    C48   A    
C42   H37   S    
C40   H32   S    
C39   H25   S    
C5    C9    A    
C30   H23   S    
C16   O5    A    
C31   C32   S    
C29   H7    S    
C35   H14   S    
C41   H28   S    
C4    O3    A    
C10   C45   A    
C17   C18   A    
C31   C34   S    
C13   C21   A    
C31   F5    S    
C4    C32   S    
C36   H21   S    
C17   H6    S    
C25   N1    A    
C40   C41   S    
C39   H22   S    
C37   H18   S    
C22   C24   A    
C13   C26   A    
C37   H19   S    
C2    C5    A    
C42   C43   S    
C12   C34   S    
C8    F2    S    
O6    Zn2   S    
C6    C44   A    
C15   C17   A    
C46   C47   A    
C28   C29   S    
C43   H33   S    
C16   C45   S    
C22   H2    S    
O1    Zn1   S    
C35   H13   S    
C2    C3    A    
C30   C32   S    
C5    C6    A    
O8    Zn2   S    
C41   H29   S    
C29   C40   S    
C34   H10   S    
C33   C35   S    
C19   C24   A    
C18   C20   A    
C3    C11   A    
C36   H20   S    
C26   N1    A    
N1    Zn1   S    
C20   C21   A    
C28   C36   S    
C20   C25   A    
C30   H8    S    
O3    Zn1   S    
C14   C15   A    
C11   C46   A    
O5    Zn1   S    
C21   C22   A    
C9    H41   S    
C33   H15   S    
