data_mof_unit_pretest_357.cif
_audit_creation_date              2012-12-10T20:00:01-0500
_audit_creation_method            fapswitch 2.2
_symmetry_space_group_name_H-M    P1
_symmetry_Int_Tables_number       1
_space_group_crystal_system       triclinic
_cell_length_a                    15.032941
_cell_length_b                    14.312483
_cell_length_c                    8.985898
_cell_angle_alpha                 89.793057
_cell_angle_beta                  92.563426
_cell_angle_gamma                 90.133751
_cell_volume                      1931.4423745

loop_
_atom_site_label
_atom_site_type_symbol
_atom_type_description
_atom_site_fract_x
_atom_site_fract_y
_atom_site_fract_z
_atom_type_partial_charge
C1    C     C_R   0.328340 0.499771 0.500627 0.992093
C2    C     C_R   0.671798 0.500094 0.487794 0.954483
C3    C     C_R   0.451051 0.203245 0.392989 0.357159
C4    C     C_R   0.574297 0.796618 0.548395 0.329138
C5    C     C_R   0.549048 0.203151 0.607106 0.375202
C6    C     C_R   0.425296 0.796605 0.454077 0.323014
C7    C     C_R   0.452909 0.104725 0.388557 0.438268
C8    C     C_R   0.579139 0.894278 0.528906 0.415200
C9    C     C_R   0.547427 0.104618 0.611683 0.440068
C10   C     C_R   0.420844 0.894234 0.473032 0.420107
C11   C     C_R   0.499604 0.500101 0.218688 0.918611
C12   C     C_R   0.500238 0.499890 0.781293 0.903732
C13   C     C_R   0.500255 0.052853 0.500135 -0.215455
C14   C     C_R   0.500116 0.946340 0.500486 -0.222563
C15   C     C_1   0.499751 0.500125 0.065245 -0.156423
C16   C     C_1   0.499976 0.499824 0.934733 -0.161955
C17   C     C_R   0.094488 0.546731 0.371514 0.438120
C18   C     C_R   0.903704 0.411621 0.436068 0.501704
C19   C     C_R   0.909445 0.578867 0.490032 0.499866
C20   C     C_R   0.094329 0.437527 0.582517 0.518991
C21   C     C_R   0.187428 0.550644 0.383485 0.320648
C22   C     C_R   0.811288 0.414466 0.431941 0.292942
C23   C     C_R   0.817562 0.583323 0.474731 0.277853
C24   C     C_R   0.186622 0.441569 0.595634 0.248538
C25   C     C_R   0.232632 0.498730 0.495959 -0.352567
C26   C     C_R   0.767355 0.499722 0.461467 -0.460640
C27   C     C_R   0.048699 0.491194 0.472664 -0.187138
C28   C     C_R   0.952365 0.493396 0.468172 -0.218871
N1    N     N_R   0.500000 0.252470 0.500000 -0.255049
N2    N     N_R   0.500000 0.747530 0.500000 -0.258664
O1    O     O_R   0.369060 0.579480 0.500010 -0.558786
O2    O     O_R   0.630940 0.420520 0.499990 -0.622181
O3    O     O_R   0.630940 0.579480 0.499990 -0.596632
O4    O     O_R   0.369060 0.420520 0.500010 -0.642969
O5    O     O_R   0.500000 0.579460 0.285340 -0.638878
O6    O     O_R   0.500000 0.420540 0.714660 -0.614317
O7    O     O_R   0.500000 0.579460 0.714660 -0.640704
O8    O     O_R   0.500000 0.420540 0.285340 -0.621375
Zn1   Zn    Zn3+2 0.500000 0.606140 0.500000 0.959718
Zn2   Zn    Zn3+2 0.500000 0.393860 0.500000 0.969490
O9    O     O_3   0.399352 0.247195 0.283866 -0.695505
H1    H     H_    0.387135 0.310807 0.317074 0.387430
O10   O     O_3   0.645077 0.753078 0.620541 -0.651995
H2    H     H_    0.620469 0.700239 0.676815 0.369016
O11   O     O_3   0.600484 0.246977 0.716443 -0.693355
H3    H     H_    0.612235 0.310977 0.683713 0.391222
O12   O     O_3   0.353191 0.752624 0.387063 -0.650361
H4    H     H_    0.377666 0.702877 0.324719 0.387947
O13   O     O_3   0.048495 0.602653 0.268136 -0.537361
C29   C     C_3   0.027595 0.550086 0.138950 -0.361652
H5    H     H_    0.966899 0.507455 0.154002 0.156737
H6    H     H_    0.083841 0.505042 0.106557 0.146090
H7    H     H_    0.012660 0.599090 0.045263 0.195004
O14   O     O_3   0.945931 0.326733 0.418317 -0.506687
C30   C     C_3   0.964311 0.315046 0.267042 -0.199298
H8    H     H_    0.023251 0.357201 0.238557 0.128462
H9    H     H_    0.906138 0.332063 0.190548 0.137610
H10   H     H_    0.981160 0.240679 0.248827 0.212453
O15   O     O_3   0.957430 0.660799 0.511455 -0.509879
C31   C     C_3   0.973445 0.674541 0.665578 -0.195320
H11   H     H_    0.024471 0.624806 0.710809 0.104149
H12   H     H_    0.911403 0.669073 0.728491 0.164244
H13   H     H_    0.000447 0.746033 0.683112 0.205733
O16   O     O_3   0.049048 0.377878 0.674535 -0.497842
C32   C     C_3   0.028600 0.425986 0.805157 -0.239564
H14   H     H_    0.971233 0.473554 0.783180 0.118693
H15   H     H_    0.086794 0.465381 0.853777 0.147402
H16   H     H_    0.008677 0.374207 0.889650 0.191086
O17   O     O_3   0.236261 0.601395 0.284059 -0.732171
H17   H     H_    0.196107 0.635624 0.212819 0.383243
O18   O     O_3   0.766372 0.333099 0.395327 -0.679784
H18   H     H_    0.718308 0.349577 0.320750 0.340214
O19   O     O_3   0.779585 0.670636 0.472299 -0.640501
H19   H     H_    0.737317 0.672604 0.384406 0.352209
O20   O     O_3   0.228725 0.389851 0.708313 -0.691530
H20   H     H_    0.287783 0.417458 0.734109 0.334348
O21   O     O_3   0.403270 0.060545 0.276569 -0.482665
C33   C     C_3   0.460295 0.035773 0.163710 -0.218925
H21   H     H_    0.505227 0.977683 0.199875 0.118408
H22   H     H_    0.500003 0.096888 0.127499 0.152464
H23   H     H_    0.418752 0.010634 0.066872 0.181270
O22   O     O_3   0.660824 0.937856 0.549147 -0.492179
C34   C     C_3   0.698117 0.947807 0.408853 -0.135212
H24   H     H_    0.707264 0.878761 0.354873 0.153568
H25   H     H_    0.657026 0.994629 0.334545 0.107790
H26   H     H_    0.764822 0.980466 0.424937 0.210218
O23   O     O_3   0.596839 0.060412 0.724216 -0.480539
C35   C     C_3   0.539530 0.034673 0.836605 -0.223818
H27   H     H_    0.495735 0.975536 0.800800 0.121820
H28   H     H_    0.498598 0.094942 0.871088 0.150589
H29   H     H_    0.580912 0.010643 0.934518 0.180924
O24   O     O_3   0.339156 0.937647 0.453637 -0.494187
C36   C     C_3   0.303974 0.950383 0.594879 -0.162596
H30   H     H_    0.296245 0.882552 0.654137 0.148043
H31   H     H_    0.345701 0.999318 0.664152 0.117479
H32   H     H_    0.236852 0.981909 0.579403 0.207287

loop_
_geom_bond_atom_site_label_1
_geom_bond_atom_site_label_2
_ccdc_geom_bond_type
C30   H8    S    
C36   H30   S    
O19   H19   S    
C19   C23   A    
C4    C8    A    
O21   C33   S    
O3    Zn1   S    
C31   H13   S    
C8    O22   S    
C2    O2    A    
C3    C7    A    
C33   H22   S    
C15   C16   T    
C1    O1    A    
C31   H12   S    
O9    H1    S    
C23   C26   A    
C12   O7    A    
C3    N1    A    
C9    C13   A    
C11   C15   S    
C34   H24   S    
C32   H15   S    
C29   H6    S    
C12   O6    A    
C7    O21   S    
C10   O24   S    
O15   C31   S    
C36   H31   S    
C13   C14   S    
C1    C25   S    
C23   O19   S    
C12   C16   S    
C1    O4    A    
C5    N1    A    
C29   H7    S    
C6    O12   S    
C17   C27   A    
C20   C24   A    
O6    Zn2   S    
C18   C28   A    
C24   C25   A    
C10   C14   A    
C17   O13   S    
C33   H21   S    
C19   O15   S    
O11   H3    S    
C5    O11   S    
O22   C34   S    
C17   C21   A    
C21   O17   S    
C31   H11   S    
C20   O16   S    
C11   O8    A    
O5    Zn1   S    
O20   H20   S    
C5    C9    A    
O12   H4    S    
C35   H29   S    
C32   H16   S    
C29   H5    S    
C2    C26   S    
C19   C28   A    
C2    O3    A    
C34   H25   S    
C35   H28   S    
O13   C29   S    
C36   H32   S    
C30   H9    S    
O10   H2    S    
O4    Zn2   S    
C22   O18   S    
C21   C25   A    
O14   C30   S    
C3    O9    S    
C8    C14   A    
C6    N2    A    
C18   C22   A    
C6    C10   A    
C24   O20   S    
C20   C27   A    
O16   C32   S    
C11   O5    A    
O18   H18   S    
O7    Zn1   S    
C9    O23   S    
O8    Zn2   S    
C33   H23   S    
N1    Zn2   S    
O24   C36   S    
C4    O10   S    
O1    Zn1   S    
N2    Zn1   S    
O2    Zn2   S    
O17   H17   S    
C18   O14   S    
C7    C13   A    
C34   H26   S    
C35   H27   S    
O23   C35   S    
C32   H14   S    
C22   C26   A    
C30   H10   S    
C27   C28   S    
C4    N2    A    
