data_mof_unit_pretest_885.cif
_audit_creation_date              2012-10-26T20:31:20-0400
_audit_creation_method            fapswitch 2.2
_symmetry_space_group_name_H-M    P1
_symmetry_Int_Tables_number       1
_space_group_crystal_system       triclinic
_cell_length_a                    11.694335
_cell_length_b                    10.867718
_cell_length_c                    9.622029
_cell_angle_alpha                 93.100172
_cell_angle_beta                  90.367114
_cell_angle_gamma                 89.180319
_cell_volume                      1220.93668543

loop_
_atom_site_label
_atom_site_type_symbol
_atom_type_description
_atom_site_fract_x
_atom_site_fract_y
_atom_site_fract_z
_atom_type_partial_charge
Br1   Br    Br    0.746021 0.139771 0.527637 -0.489478
Br2   Br    Br    0.177828 0.125268 0.344084 -0.347499
Br3   Br    Br    0.246196 0.219025 0.649597 -0.470135
Br4   Br    Br    0.336444 0.306055 0.145144 -0.447578
C1    C     C_R   0.499090 0.262825 0.496275 0.623263
C2    C     C_R   0.437535 0.417810 0.066826 0.231674
C3    C     C_R   0.437415 0.418561 0.919316 0.004588
C4    C     C_R   0.284363 0.495542 0.499311 0.556643
C5    C     C_R   0.573607 0.573154 0.931035 0.170136
C6    C     C_3   0.581998 0.709509 0.926933 0.131448
C7    C     C_3   0.571686 0.714520 0.085305 0.144521
C8    C     C_R   0.492025 0.737631 0.503445 0.531779
C9    C     C_R   0.715852 0.498402 0.500247 0.568481
C10   C     C_1   0.162761 0.487099 0.498210 0.037582
C11   C     C_1   0.060197 0.484319 0.498428 0.014833
C12   C     C_R   0.498980 0.129596 0.486195 0.016409
C13   C     C_1   0.940253 0.487229 0.499510 0.008004
C14   C     C_1   0.837694 0.492365 0.500352 0.033842
C15   C     C_R   0.397139 0.066216 0.459896 -0.042199
C16   C     C_3   0.366583 0.742902 0.078214 -0.015595
C17   C     C_3   0.270472 0.783044 0.175914 -0.310285
C18   C     C_3   0.154976 0.783844 0.527666 0.030843
C19   C     C_3   0.045537 0.806551 0.610995 -0.327961
C20   C     C_3   0.358382 0.976273 0.774925 -0.042528
C21   C     C_3   0.321359 0.024020 0.919693 -0.319452
C22   C     C_3   0.694687 0.872871 0.877537 -0.017326
C23   C     C_R   0.600635 0.061202 0.506308 0.114584
C24   C     C_3   0.810400 0.909529 0.823671 -0.337353
C25   C     C_R   0.596421 0.932720 0.514123 -0.127133
C26   C     C_R   0.491182 0.872013 0.510517 -0.040322
C27   C     C_R   0.392138 0.941097 0.481369 -0.029655
C28   C     C_3   0.273353 0.957880 0.545443 0.524336
C29   C     C_3   0.275593 0.092195 0.503027 0.347737
C30   C     C_R   0.570378 0.575982 0.078158 0.109504
Cu1   Cu    Cu3+1 0.499990 0.499980 0.640670 1.004398
Cu2   Cu    Cu3+1 0.500010 0.500020 0.359330 1.059915
H1    H     H_    0.510784 0.747842 0.867247 0.112251
H2    H     H_    0.223328 0.742043 0.591938 0.140449
H3    H     H_    0.134756 0.716882 0.440741 0.117599
H4    H     H_    0.976163 0.837939 0.541375 0.171379
H5    H     H_    0.019150 0.720039 0.657081 0.092277
H6    H     H_    0.058163 0.877654 0.696535 0.210958
H7    H     H_    0.414392 0.046885 0.733514 0.143181
H8    H     H_    0.408564 0.890602 0.782333 0.118982
H9    H     H_    0.251520 0.967178 0.958412 0.174945
H10   H     H_    0.395241 0.022510 0.992723 0.145185
H11   H     H_    0.288501 0.119926 0.916503 0.225551
H12   H     H_    0.650211 0.748683 0.139549 0.152552
H13   H     H_    0.682761 0.917841 0.983285 0.151848
H14   H     H_    0.627643 0.907750 0.806434 0.129578
H15   H     H_    0.822430 0.869138 0.716386 0.157156
H16   H     H_    0.814836 0.011427 0.822090 0.164483
H17   H     H_    0.879736 0.875692 0.891834 0.166067
H18   H     H_    0.675130 0.880590 0.526461 0.141178
H19   H     H_    0.383733 0.355304 0.859364 0.187059
H20   H     H_    0.357670 0.643259 0.055274 0.142827
H21   H     H_    0.353625 0.788621 0.979986 0.108415
H22   H     H_    0.274267 0.883833 0.200458 0.210335
H23   H     H_    0.186514 0.760627 0.127028 0.112226
H24   H     H_    0.279736 0.733581 0.273140 0.186119
N1    N     N_R   0.500710 0.500930 0.147930 -0.235208
N2    N     N_R   0.500710 0.500890 0.852020 -0.288862
O1    O     O_R   0.500000 0.319640 0.618810 -0.483988
O2    O     O_3   0.188467 0.892621 0.467105 -0.537618
O3    O     O_3   0.259910 0.950352 0.692932 -0.555019
O4    O     O_3   0.691220 0.743228 0.881844 -0.563354
O5    O     O_R   0.500010 0.319680 0.381230 -0.438043
O6    O     O_R   0.337190 0.499990 0.618790 -0.499011
O7    O     O_R   0.337200 0.500030 0.381210 -0.470554
O8    O     O_R   0.499990 0.680320 0.618770 -0.528695
O9    O     O_R   0.500000 0.680360 0.381190 -0.453782
O10   O     O_R   0.662800 0.499970 0.618790 -0.457500
O11   O     O_R   0.662810 0.500010 0.381210 -0.499579
O12   O     O_3   0.472442 0.777098 0.141075 -0.551407

loop_
_geom_bond_atom_site_label_1
_geom_bond_atom_site_label_2
_ccdc_geom_bond_type
Cu2   O11   S    
Cu1   O1    S    
C24   H17   S    
C3    N2    A    
C17   H23   S    
C2    C3    A    
C9    O10   A    
C23   C25   A    
C5    C6    S    
C21   H11   S    
C22   C24   S    
Cu1   Cu2   S    
C19   H5    S    
Cu2   O9    S    
C3    H19   S    
C1    O5    A    
C15   C27   A    
C28   C29   S    
C16   C17   S    
C12   C23   A    
C22   H14   S    
C13   C14   T    
C7    H12   S    
Cu2   O5    S    
C16   O12   S    
C17   H22   S    
Br1   C23   S    
C27   C28   S    
C20   C21   S    
C24   H16   S    
C28   O2    S    
C4    O7    A    
C25   C26   A    
C19   H6    S    
C9    C14   S    
C6    H1    S    
C18   H3    S    
C20   O3    S    
Br2   C29   S    
C8    O9    A    
C9    O11   A    
Cu1   O10   S    
C4    O6    A    
Cu1   N2    S    
C16   H20   S    
C6    O4    S    
Cu2   N1    S    
C12   C15   A    
C26   C27   A    
C20   H8    S    
C24   H15   S    
C25   H18   S    
Br3   C29   S    
C18   O2    S    
C19   H4    S    
C22   O4    S    
C21   H9    S    
Cu1   O6    S    
Cu2   O7    S    
C1    O1    A    
C17   H24   S    
Br4   C2    S    
C6    C7    S    
C22   H13   S    
C11   C13   S    
C20   H7    S    
C8    O8    A    
C18   C19   S    
C1    C12   S    
C4    C10   S    
C2    N1    A    
C8    C26   S    
C15   C29   S    
C10   C11   T    
C16   H21   S    
C21   H10   S    
C7    O12   S    
C7    C30   S    
C5    N2    A    
Cu1   O8    S    
C5    C30   A    
C28   O3    S    
C30   N1    A    
C18   H2    S    
