data_mof_unit_pretest_531.cif
_audit_creation_date              2012-12-10T17:04:30-0500
_audit_creation_method            fapswitch 2.2
_symmetry_space_group_name_H-M    P1
_symmetry_Int_Tables_number       1
_space_group_crystal_system       triclinic
_cell_length_a                    14.965205
_cell_length_b                    10.731151
_cell_length_c                    10.021647
_cell_angle_alpha                 89.95382
_cell_angle_beta                  90.146637
_cell_angle_gamma                 89.885232
_cell_volume                      1609.4060926

loop_
_atom_site_label
_atom_site_type_symbol
_atom_type_description
_atom_site_fract_x
_atom_site_fract_y
_atom_site_fract_z
_atom_type_partial_charge
C1    C     C_R   0.496588 0.262734 0.499989 0.916983
C2    C     C_R   0.186098 0.420037 0.598178 0.432363
C3    C     C_R   0.231203 0.487579 0.498212 -0.190752
C4    C     C_R   0.326840 0.497453 0.499774 0.903527
C5    C     C_R   0.185104 0.545733 0.394238 -0.324655
C6    C     C_2   0.481189 0.932756 0.389854 -0.165444
C7    C     C_2   0.504706 0.869338 0.499191 -0.326877
C8    C     C_2   0.486204 0.066875 0.387481 -0.155001
C9    C     C_2   0.483710 0.131707 0.500871 -0.350885
C10   C     C_2   0.553190 0.568904 0.925067 -0.129729
C11   C     C_2   0.556418 0.563746 0.075169 -0.130933
C12   C     C_R   0.907179 0.548445 0.392238 0.120021
C13   C     C_R   0.500571 0.737401 0.499843 0.929229
C14   C     C_R   0.673198 0.499857 0.500152 0.893018
C15   C     C_R   0.814766 0.551223 0.393768 -0.262992
C16   C     C_R   0.768876 0.497560 0.500270 -0.069796
C17   C     C_R   0.814066 0.439904 0.605646 -0.263586
C18   C     C_R   0.906501 0.434313 0.604566 0.126209
C19   C     C_R   0.953421 0.489266 0.497812 0.090249
C20   C     C_3   0.270066 0.245190 0.645458 0.110106
C21   C     C_3   0.205621 0.135511 0.660964 -0.399627
C22   C     C_3   0.248920 0.013713 0.615762 -0.924374
C23   C     C_R   0.952544 0.374769 0.708147 -0.242827
C24   C     C_R   0.045270 0.369403 0.706309 -0.189612
C25   C     C_R   0.092936 0.424496 0.601206 0.016453
C26   C     C_R   0.046493 0.485656 0.496851 -0.014198
C27   C     C_R   0.092937 0.544084 0.391803 0.119214
C28   C     C_R   0.046655 0.602584 0.287511 -0.190609
C29   C     C_R   0.953904 0.604137 0.287333 -0.222294
H1    H     H_    0.778503 0.596410 0.313190 0.152055
H2    H     H_    0.916850 0.332305 0.790382 0.150512
H3    H     H_    0.079343 0.323031 0.787902 0.186761
H4    H     H_    0.221181 0.594846 0.316535 0.179889
H5    H     H_    0.082191 0.647382 0.206545 0.147381
H6    H     H_    0.918777 0.649697 0.206069 0.146003
H7    H     H_    0.460755 0.885874 0.298681 0.172677
H8    H     H_    0.331450 0.224788 0.704130 0.174221
H9    H     H_    0.291314 0.252978 0.539200 0.107803
H10   H     H_    0.185543 0.126734 0.767246 0.229734
H11   H     H_    0.144759 0.152481 0.599831 0.223468
H12   H     H_    0.529589 0.912859 0.589434 0.147694
H13   H     H_    0.268977 0.020092 0.509312 0.270225
H14   H     H_    0.200517 0.936123 0.626811 0.268774
H15   H     H_    0.308832 0.992754 0.677573 0.261618
H16   H     H_    0.493301 0.111921 0.290955 0.174969
H17   H     H_    0.469792 0.089619 0.596961 0.147539
H18   H     H_    0.598761 0.632216 0.875489 0.159079
H19   H     H_    0.460921 0.436645 0.897697 0.169293
H20   H     H_    0.607906 0.617566 0.124981 0.156661
H21   H     H_    0.449317 0.455413 0.102006 0.165741
H22   H     H_    0.777197 0.397544 0.686935 0.159581
N1    N     N_2   0.500970 0.501330 0.852150 -0.189379
N2    N     N_2   0.500990 0.501360 0.147810 -0.194386
O1    O     O_R   0.499990 0.319060 0.613040 -0.630871
O2    O     O_R   0.500010 0.319100 0.386900 -0.610954
O3    O     O_R   0.367830 0.499950 0.613080 -0.576379
O4    O     O_R   0.367860 0.499990 0.386940 -0.630281
O5    O     O_R   0.499990 0.680900 0.613100 -0.616866
O6    O     O_R   0.500010 0.680940 0.386960 -0.614554
O7    O     O_R   0.632140 0.500010 0.613060 -0.621192
O8    O     O_R   0.632170 0.500050 0.386920 -0.618061
O9    O     O_3   0.232311 0.356316 0.697461 -0.645395
Zn1   Zn    Zn3+2 0.499980 0.499970 0.650990 0.954303
Zn2   Zn    Zn3+2 0.500020 0.500030 0.349010 0.939162

loop_
_geom_bond_atom_site_label_1
_geom_bond_atom_site_label_2
_ccdc_geom_bond_type
C4    O4    A    
O8    Zn2   S    
C1    O1    A    
C24   H3    S    
C6    C7    D    
C13   O6    A    
C11   N2    D    
C12   C29   A    
C20   H9    S    
C29   H6    S    
C22   H14   S    
C21   H10   S    
C12   C15   A    
C7    C13   S    
C23   C24   A    
C10   N1    D    
O2    Zn2   S    
C17   H22   S    
C2    C3    A    
C1    O2    A    
O3    Zn1   S    
C28   H5    S    
C9    H17   S    
C21   C22   S    
C4    O3    A    
C20   O9    S    
C20   H8    S    
O6    Zn2   S    
C22   H13   S    
C21   H11   S    
O4    Zn2   S    
O7    Zn1   S    
C11   H20   S    
C12   C19   A    
C28   C29   A    
C25   C26   A    
C6    H7    S    
C17   C18   A    
C2    C25   A    
C7    H12   S    
O5    Zn1   S    
C26   C27   A    
N2    Zn2   S    
C14   C16   S    
H21   N2    S    
O1    Zn1   S    
C18   C23   A    
C1    C9    S    
C2    O9    S    
H19   N1    S    
C14   O7    A    
C24   C25   A    
C15   H1    S    
C18   C19   A    
C10   C11   S    
C10   H18   S    
C19   C26   A    
C8    H16   S    
C16   C17   A    
C6    C8    S    
C13   O5    A    
C3    C5    A    
C20   C21   S    
C5    C27   A    
C14   O8    A    
C22   H15   S    
C3    C4    S    
C15   C16   A    
C23   H2    S    
C8    C9    D    
C27   C28   A    
N1    Zn1   S    
C5    H4    S    
