data_mof_unit_pretest_659.cif
_audit_creation_date              2012-12-10T18:22:28-0500
_audit_creation_method            fapswitch 2.2
_symmetry_space_group_name_H-M    P1
_symmetry_Int_Tables_number       1
_space_group_crystal_system       triclinic
_cell_length_a                    23.509708
_cell_length_b                    10.605289
_cell_length_c                    9.43628
_cell_angle_alpha                 89.597302
_cell_angle_beta                  90.238839
_cell_angle_gamma                 90.074879
_cell_volume                      2352.64124941

loop_
_atom_site_label
_atom_site_type_symbol
_atom_type_description
_atom_site_fract_x
_atom_site_fract_y
_atom_site_fract_z
_atom_type_partial_charge
C1    C     C_R   0.499920 0.259479 0.500477 0.789536
C2    C     C_R   0.500080 0.740520 0.499523 0.789534
C3    C     C_R   0.238968 0.511620 0.626668 -0.103600
C4    C     C_R   0.761029 0.487991 0.373392 -0.103562
C5    C     C_R   0.298275 0.511288 0.627201 -0.223116
C6    C     C_R   0.701723 0.488324 0.372857 -0.223107
C7    C     C_R   0.328380 0.500229 0.499402 -0.036564
C8    C     C_R   0.671618 0.499781 0.500599 -0.036558
C9    C     C_R   0.298039 0.489342 0.371308 -0.216727
C10   C     C_R   0.701958 0.511078 0.628638 -0.216800
C11   C     C_R   0.238734 0.489252 0.371215 -0.113101
C12   C     C_R   0.761262 0.511180 0.628732 -0.113012
C13   C     C_R   0.209129 0.500479 0.498778 0.363943
C14   C     C_R   0.790870 0.499544 0.501227 0.363802
C15   C     C_3   0.497901 0.039373 0.634906 -0.129794
C16   C     C_3   0.502098 0.960627 0.365094 -0.129797
C17   C     C_3   0.545729 0.957600 0.571617 -0.159698
C18   C     C_3   0.454271 0.042400 0.428383 -0.159702
C19   C     C_3   0.500133 0.877498 0.498591 0.014014
C20   C     C_3   0.499867 0.122502 0.501409 0.014015
C21   C     C_3   0.452322 0.956975 0.561786 -0.160377
C22   C     C_3   0.547678 0.043025 0.438214 -0.160373
C23   C     C_R   0.391017 0.500052 0.499808 0.787129
C24   C     C_R   0.608982 0.499951 0.500191 0.787124
C25   C     C_3   0.525695 0.599794 0.050483 -0.098036
C26   C     C_3   0.474305 0.400206 0.949517 -0.098036
C27   C     C_3   0.474526 0.596318 0.950268 0.403714
C28   C     C_3   0.525474 0.403683 0.049732 0.403740
C29   C     C_3   0.551785 0.501093 0.949885 -0.145370
C30   C     C_3   0.448215 0.498907 0.050115 -0.145373
C31   C     C_R   0.880193 0.611280 0.507145 0.545171
C32   C     C_R   0.119809 0.388744 0.492853 0.545187
C33   C     C_R   0.879864 0.386422 0.495803 0.538068
C34   C     C_R   0.120138 0.613600 0.504212 0.538072
C35   C     C_R   0.939976 0.382984 0.498117 -0.044061
C36   C     C_R   0.060025 0.617040 0.501877 -0.044062
C37   C     C_R   0.969920 0.499093 0.500969 -0.068303
C38   C     C_R   0.030082 0.500931 0.499019 -0.068298
C39   C     C_R   0.939761 0.613660 0.505795 -0.031601
C40   C     C_R   0.060241 0.386363 0.494196 -0.031607
C41   C     C_R   0.971128 0.268446 0.496209 0.253994
C42   C     C_R   0.028874 0.731579 0.503780 0.254011
C43   C     C_R   0.030575 0.271735 0.492349 -0.239289
C44   C     C_R   0.969426 0.728289 0.507640 -0.239296
Cu1   Cu    Cu3+1 0.500010 0.499990 0.643150 0.942541
Cu2   Cu    Cu3+1 0.499990 0.500010 0.356850 0.942546
H1    H     H_    0.546862 0.683254 0.097734 0.125949
H2    H     H_    0.453138 0.316746 0.902266 0.125936
H3    H     H_    0.320460 0.520073 0.727480 0.148400
H4    H     H_    0.679535 0.479207 0.272629 0.148351
H5    H     H_    0.320023 0.480499 0.271290 0.147755
H6    H     H_    0.679969 0.520251 0.728603 0.147777
H7    H     H_    0.583102 0.919666 0.630138 0.139563
H8    H     H_    0.416897 0.080334 0.369862 0.139576
H9    H     H_    0.495887 0.074058 0.745359 0.133874
H10   H     H_    0.504112 0.925942 0.254642 0.133882
H11   H     H_    0.413402 0.918382 0.612413 0.139855
H12   H     H_    0.586598 0.081618 0.387587 0.139844
N1    N     N_R   0.851776 0.499079 0.501636 -0.477020
N2    N     N_R   0.148223 0.500944 0.498372 -0.477038
N3    N     N_3   0.500040 0.499970 0.858290 -0.188205
N4    N     N_3   0.499960 0.500030 0.141710 -0.188204
O1    O     O_R   0.500030 0.316850 0.620870 -0.588176
O2    O     O_R   0.499970 0.683150 0.379130 -0.588179
O3    O     O_R   0.500000 0.316860 0.379090 -0.554885
O4    O     O_R   0.500000 0.683140 0.620910 -0.554881
O5    O     O_R   0.417890 0.499960 0.620920 -0.593254
O6    O     O_R   0.582110 0.500040 0.379080 -0.593245
O7    O     O_R   0.417870 0.499970 0.379140 -0.582908
O8    O     O_R   0.582130 0.500030 0.620860 -0.582910
O9    O     O_2   0.850725 0.720284 0.512742 -0.538740
O10   O     O_2   0.149277 0.279740 0.487244 -0.538728
O11   O     O_2   0.849392 0.278916 0.486799 -0.498655
O12   O     O_2   0.150611 0.721102 0.513256 -0.498644
N5    N     N_2   0.943515 0.148976 0.500202 -0.373849
H13   H     H_    0.962395 0.082469 0.436545 0.239082
C45   C     C_3   0.933795 0.101184 0.642051 -0.600603
H14   H     H_    0.974995 0.081363 0.695904 0.191165
H15   H     H_    0.908811 0.012439 0.636592 0.239140
H16   H     H_    0.909351 0.170429 0.705218 0.247110
N6    N     N_2   0.056488 0.851049 0.499812 -0.373867
H17   H     H_    0.037594 0.917565 0.563431 0.239075
C46   C     C_3   0.066241 0.898834 0.357975 -0.600626
H18   H     H_    0.025054 0.918645 0.304064 0.191184
H19   H     H_    0.090703 0.829591 0.294855 0.247126
H20   H     H_    0.091221 0.987581 0.363473 0.239161
N7    N     N_2   0.444954 0.702978 0.888435 -0.400284
H21   H     H_    0.410121 0.676872 0.828757 0.255777
C47   C     C_3   0.433195 0.804913 0.984627 -0.741915
H22   H     H_    0.410248 0.881244 0.927137 0.230605
H23   H     H_    0.473594 0.844654 0.026072 0.227855
H24   H     H_    0.406422 0.771065 0.073969 0.229446
N8    N     N_2   0.555044 0.297021 0.111568 -0.400289
H25   H     H_    0.589871 0.323126 0.171270 0.255747
C48   C     C_3   0.566818 0.195104 0.015363 -0.741911
H26   H     H_    0.589758 0.118763 0.072857 0.230601
H27   H     H_    0.593605 0.228973 0.926054 0.229457
H28   H     H_    0.526426 0.155368 0.973870 0.227857
H29   H     H_    0.595155 0.499626 0.904052 0.127830
H30   H     H_    0.404845 0.500373 0.095946 0.127806
H31   H     H_    0.053495 0.183200 0.490770 0.182495
H32   H     H_    0.946506 0.816824 0.509222 0.182496
H33   H     H_    0.216129 0.520373 0.725525 0.132734
H34   H     H_    0.783872 0.478919 0.274586 0.132802
H35   H     H_    0.215714 0.480743 0.272100 0.131351
H36   H     H_    0.784285 0.520013 0.727799 0.131434

loop_
_geom_bond_atom_site_label_1
_geom_bond_atom_site_label_2
_ccdc_geom_bond_type
C12   H36   S    
N7    H21   S    
N8    H25   S    
C18   C21   S    
C23   O7    A    
C36   C42   A    
C48   H26   S    
C9    H5    S    
C10   H6    S    
C43   H31   S    
N6    H17   S    
C48   H28   S    
C24   O8    A    
C32   O10   S    
C13   N2    S    
Cu1   Cu2   S    
C21   H11   S    
C14   N1    S    
Cu2   N4    S    
C28   C29   S    
C35   C37   A    
C26   N3    S    
C30   N4    S    
C33   C35   A    
C31   N1    A    
C30   H30   S    
C15   C17   S    
C23   O5    A    
Cu2   O7    S    
C27   N3    S    
C17   C19   S    
C40   C43   A    
C11   H35   S    
C1    O3    A    
C47   H23   S    
C25   H1    S    
C18   C20   S    
C3    C13   A    
C26   H2    S    
C31   O9    S    
C2    C19   S    
C33   N1    A    
C27   C30   S    
C34   N2    A    
C41   C43   A    
C5    H3    S    
C42   N6    S    
C42   C44   A    
C1    O1    A    
N6    C46   S    
C2    O2    A    
C45   H15   S    
C25   C29   S    
C15   C20   S    
C29   N3    S    
C29   H29   S    
Cu2   O3    S    
C4    C6    A    
C5    C7    A    
C44   H32   S    
C6    C8    A    
C3    C5    A    
C45   H14   S    
C24   O6    A    
Cu1   O1    S    
Cu2   O2    S    
C28   N8    S    
C15   H9    S    
N5    H13   S    
C16   H10   S    
Cu2   O6    S    
C37   C38   A    
C41   N5    S    
N5    C45   S    
C46   H18   S    
C6    H4    S    
C47   H24   S    
C27   N7    S    
C9    C11   A    
C10   C12   A    
C34   O12   S    
C33   O11   S    
C46   H19   S    
C12   C14   A    
C26   C30   S    
N7    C47   S    
Cu1   O5    S    
C32   N2    A    
C17   H7    S    
C45   H16   S    
C3    H33   S    
C7    C9    A    
C1    C20   S    
C16   C22   S    
C19   C21   S    
Cu1   O8    S    
C8    C10   A    
C20   C22   S    
C2    O4    A    
C22   H12   S    
C48   H27   S    
C39   C44   A    
C25   C27   S    
C26   C28   S    
C17   C22   S    
C36   C38   A    
C37   C39   A    
C38   C40   A    
C11   C13   A    
N8    C48   S    
C16   C19   S    
C7    C23   S    
C4    H34   S    
Cu1   N3    S    
C8    C24   S    
C31   C39   A    
C34   C36   A    
C25   N4    S    
C32   C40   A    
C4    C14   A    
C35   C41   A    
C18   H8    S    
C15   C21   S    
C46   H20   S    
C16   C18   S    
Cu1   O4    S    
C47   H22   S    
C28   N4    S    
