data_mof_unit_pretest_273.cif
_audit_creation_date              2012-12-10T20:30:13-0500
_audit_creation_method            fapswitch 2.2
_symmetry_space_group_name_H-M    P1
_symmetry_Int_Tables_number       1
_space_group_crystal_system       triclinic
_cell_length_a                    9.894118
_cell_length_b                    10.649722
_cell_length_c                    13.113187
_cell_angle_alpha                 89.440464
_cell_angle_beta                  69.754788
_cell_angle_gamma                 90.192678
_cell_volume                      1296.27305003

loop_
_atom_site_label
_atom_site_type_symbol
_atom_type_description
_atom_site_fract_x
_atom_site_fract_y
_atom_site_fract_z
_atom_type_partial_charge
C1    C     C_R   0.501624 0.740057 0.496543 0.892473
C2    C     C_R   0.364790 0.500334 0.823022 -0.095610
C3    C     C_R   0.383699 0.935857 0.484643 0.116222
C4    C     C_R   0.419326 0.496419 0.704505 0.911284
C5    C     C_R   0.508590 0.871734 0.478380 -0.097575
C6    C     C_R   0.640627 0.936132 0.449225 -0.184266
C7    C     C_R   0.640990 0.066093 0.447426 -0.195571
C8    C     C_R   0.509296 0.129316 0.474715 -0.089344
C9    C     C_R   0.383972 0.063812 0.482807 0.120925
C10   C     C_3   0.236379 0.070468 0.566762 -0.442638
C11   C     C_3   0.236181 0.928126 0.568702 -0.451617
C12   C     C_R   0.435880 0.505972 0.982394 0.069615
C13   C     C_R   0.886182 0.489092 0.594953 0.190175
C14   C     C_R   0.971336 0.502995 0.405212 -0.133164
C15   C     C_R   0.114862 0.503718 0.405181 -0.112032
C16   C     C_R   0.502694 0.260472 0.493319 0.913965
C17   C     C_R   0.028344 0.485506 0.594643 0.163868
C18   C     C_3   0.995098 0.566020 0.692021 -0.545842
C19   C     C_3   0.842510 0.575268 0.690754 -0.020549
C20   C     C_R   0.580391 0.500927 0.295772 0.849170
C21   C     C_R   0.752938 0.355283 0.026690 -0.176588
C22   C     C_R   0.630367 0.486272 0.178971 -0.052007
C23   C     C_R   0.446723 0.450069 0.882594 0.027531
C24   C     C_R   0.249000 0.579991 0.873437 -0.187656
C25   C     C_R   0.222702 0.618913 0.979087 -0.130174
C26   C     C_R   0.317629 0.586396 0.032109 -0.169931
C27   C     C_R   0.541814 0.476865 0.029040 0.085387
C28   C     C_R   0.649336 0.386378 0.979900 0.118090
C29   C     C_R   0.644316 0.319821 0.890623 -0.288554
C30   C     C_R   0.539728 0.346615 0.845459 0.123982
C31   C     C_R   0.541101 0.531420 0.125520 -0.237115
C32   C     C_R   0.741971 0.403632 0.127408 -0.198673
H1    H     H_    0.812208 0.368490 0.168663 0.148912
H2    H     H_    0.057187 0.655695 0.674523 0.228450
H3    H     H_    0.761933 0.531880 0.763807 0.160058
H4    H     H_    0.716544 0.241795 0.859796 0.182652
H5    H     H_    0.835288 0.286446 0.989564 0.144231
H6    H     H_    0.464013 0.601793 0.166523 0.133742
H7    H     H_    0.184263 0.618393 0.829011 0.149474
H8    H     H_    0.293681 0.624297 0.112205 0.120496
H9    H     H_    0.133399 0.680806 0.017711 0.145119
H10   H     H_    0.741181 0.887243 0.435149 0.186568
H11   H     H_    0.741685 0.115992 0.432729 0.173787
H12   H     H_    0.236074 0.112496 0.644161 0.222353
H13   H     H_    0.156702 0.110749 0.533300 0.207620
H14   H     H_    0.235914 0.887227 0.647163 0.208601
H15   H     H_    0.156485 0.886074 0.536297 0.222187
H16   H     H_    0.952430 0.507097 0.328814 0.142778
H17   H     H_    0.202576 0.508904 0.328284 0.151365
H18   H     H_    0.001354 0.512569 0.763471 0.188292
I1    I     I_    0.792153 0.763549 0.657226 -0.359635
I2    I     I_    0.499409 0.201345 0.750522 -0.389681
N1    N     N_R   0.856940 0.500860 0.500710 -0.092306
N2    N     N_R   0.142580 0.500820 0.500710 -0.094326
O1    O     O_R   0.385310 0.683210 0.499990 -0.619689
O2    O     O_R   0.614650 0.683240 0.500000 -0.586855
O3    O     O_R   0.328390 0.499940 0.653610 -0.614266
O4    O     O_R   0.557730 0.499980 0.653620 -0.586152
O5    O     O_R   0.385350 0.316760 0.500000 -0.612014
O6    O     O_R   0.614690 0.316790 0.500010 -0.604936
O7    O     O_R   0.442270 0.500020 0.346380 -0.622452
O8    O     O_R   0.671610 0.500060 0.346390 -0.630818
Zn1   Zn    Zn3+2 0.346870 0.499980 0.499990 0.947167
Zn2   Zn    Zn3+2 0.653130 0.500020 0.500010 0.975493

loop_
_geom_bond_atom_site_label_1
_geom_bond_atom_site_label_2
_ccdc_geom_bond_type
C4    O3    A    
C2    C4    S    
O2    Zn2   S    
C6    C7    A    
C3    C9    A    
C7    H11   S    
C9    C10   S    
C20   O7    A    
O5    Zn1   S    
C11   H15   S    
C12   C23   A    
C31   H6    S    
C13   C17   A    
O6    Zn2   S    
C32   H1    S    
C24   H7    S    
C10   H13   S    
C17   C18   S    
C1    O1    A    
C7    C8    A    
C8    C16   S    
C19   H3    S    
C2    C24   A    
C18   H2    S    
C29   H4    S    
C26   H8    S    
C29   C30   A    
C22   C32   A    
C1    C5    S    
O1    Zn1   S    
C28   C29   A    
N1    Zn2   S    
C21   C28   A    
C20   C22   S    
O3    Zn1   S    
C13   N1    A    
C10   C11   S    
C15   H17   S    
C20   O8    A    
C5    C6    A    
C21   C32   A    
C3    C11   S    
N2    Zn1   S    
C13   C19   S    
C12   C27   A    
C27   C31   A    
C23   C30   A    
C19   I1    S    
C27   C28   A    
C14   N1    A    
C21   H5    S    
C24   C25   A    
C18   H18   S    
C15   N2    A    
C22   C31   A    
C25   H9    S    
C2    C23   A    
O7    Zn1   S    
C14   H16   S    
C30   I2    S    
C14   C15   A    
C18   C19   S    
C11   H14   S    
O8    Zn2   S    
O4    Zn2   S    
C4    O4    A    
C25   C26   A    
C16   O6    A    
C10   H12   S    
C17   N2    A    
C1    O2    A    
C12   C26   A    
C8    C9    A    
C3    C5    A    
C16   O5    A    
C6    H10   S    
