data_mof_unit_pretest_1129.cif
_audit_creation_date              2012-12-11T14:14:15-0500
_audit_creation_method            fapswitch 2.2
_symmetry_space_group_name_H-M    P1
_symmetry_Int_Tables_number       1
_space_group_crystal_system       triclinic
_cell_length_a                    16.896875
_cell_length_b                    7.244026
_cell_length_c                    17.111295
_cell_angle_alpha                 88.496969
_cell_angle_beta                  99.734101
_cell_angle_gamma                 91.666109
_cell_volume                      2062.93711618

loop_
_atom_site_label
_atom_site_type_symbol
_atom_type_description
_atom_site_fract_x
_atom_site_fract_y
_atom_site_fract_z
_atom_type_partial_charge
O1    O     O_R   0.414560 0.494370 0.416770 -0.540935
O2    O     O_R   0.585440 0.994370 0.583230 -0.537831
O3    O     O_R   0.578370 0.819590 0.429320 -0.533351
O4    O     O_R   0.421630 0.319590 0.570680 -0.537773
C1    C     C_R   0.604930 0.659082 0.413400 0.698357
C2    C     C_R   0.395327 0.151603 0.586546 0.694015
O5    O     O_R   0.414740 0.823790 0.407360 -0.537281
O6    O     O_R   0.585260 0.323790 0.592640 -0.539110
O7    O     O_R   0.420650 0.998510 0.561120 -0.532844
O8    O     O_R   0.579350 0.498510 0.438880 -0.533786
C3    C     C_R   0.389371 0.654743 0.383827 0.754462
C4    C     C_R   0.610847 0.154801 0.615861 0.752612
O9    O     O_3   0.502130 0.662240 0.550470 -0.373877
O10   O     O_3   0.497870 0.162240 0.449530 -0.369099
V1    V     V_3+5 0.499600 0.935390 0.490640 1.479576
V2    V     V_3+5 0.500400 0.435390 0.509360 1.460940
C5    C     C_2   0.781897 0.270685 0.791542 -0.134701
C6    C     C_2   0.221305 0.771306 0.205689 -0.140442
C7    C     C_2   0.820110 0.113676 0.817565 -0.310059
C8    C     C_2   0.180390 0.613991 0.181929 -0.312140
H1    H     H_    0.801884 0.399634 0.820347 0.143661
H2    H     H_    0.203347 0.900640 0.175216 0.142519
H3    H     H_    0.802342 0.983881 0.788893 0.126178
H4    H     H_    0.196450 0.483436 0.211830 0.127246
C9    C     C_2   0.714271 0.284235 0.723235 -0.145416
C10   C     C_2   0.289588 0.784299 0.273399 -0.131343
C11   C     C_2   0.674801 0.138153 0.686343 -0.282283
C12   C     C_2   0.325328 0.638055 0.313454 -0.285024
H5    H     H_    0.697016 0.422712 0.702627 0.141840
H6    H     H_    0.310176 0.922692 0.291249 0.143467
H7    H     H_    0.690162 0.999013 0.706932 0.131878
H8    H     H_    0.306799 0.498872 0.295686 0.128928
C13   C     C_R   0.334076 0.128810 0.640548 -0.149794
C14   C     C_R   0.667200 0.664340 0.360006 -0.148130
C15   C     C_R   0.167826 0.139378 0.864484 -0.058684
C16   C     C_R   0.831961 0.601417 0.136533 -0.059136
C17   C     C_R   0.280580 0.319959 0.827576 -0.174330
C18   C     C_R   0.718357 0.435452 0.179684 -0.177064
C19   C     C_R   0.223921 0.287183 0.877524 -0.158082
C20   C     C_R   0.774728 0.455300 0.128581 -0.157280
C21   C     C_R   0.169798 0.024019 0.800518 -0.216204
C22   C     C_R   0.831465 0.728198 0.196913 -0.216501
C23   C     C_R   0.225218 0.059283 0.748632 0.132810
C24   C     C_R   0.776267 0.706019 0.250147 0.134931
C25   C     C_R   0.281797 0.207764 0.761637 0.106300
C26   C     C_R   0.718467 0.559396 0.241956 0.102643
C27   C     C_R   0.337476 0.240180 0.708526 -0.126073
C28   C     C_R   0.662876 0.540556 0.296045 -0.129375
C29   C     C_R   0.274624 0.984483 0.628074 -0.001762
C30   C     C_R   0.728100 0.805903 0.368296 -0.002715
C31   C     C_R   0.222687 0.949906 0.682664 -0.213776
C32   C     C_R   0.780215 0.826445 0.312825 -0.217918
H9    H     H_    0.322225 0.435908 0.840293 0.134873
H10   H     H_    0.675837 0.320181 0.170813 0.134510
H11   H     H_    0.177764 0.839127 0.671957 0.124361
H12   H     H_    0.826334 0.935020 0.320215 0.122714
H13   H     H_    0.223865 0.378549 0.926637 0.127846
H14   H     H_    0.773776 0.354881 0.082591 0.127374
H15   H     H_    0.126051 0.911215 0.789243 0.120004
H16   H     H_    0.876205 0.839558 0.204529 0.118764
O11   O     O_R   0.920750 0.773600 0.061260 -0.533000
O12   O     O_R   0.079250 0.273600 0.938740 -0.537009
O13   O     O_R   0.085340 0.439850 0.092570 -0.542724
O14   O     O_R   0.914660 0.939850 0.907430 -0.542580
C33   C     C_R   0.112652 0.608472 0.114417 0.735210
C34   C     C_R   0.887541 0.108195 0.885482 0.735406
O15   O     O_R   0.921720 0.444130 0.070790 -0.542419
O16   O     O_R   0.078280 0.944130 0.929210 -0.538933
O17   O     O_R   0.914480 0.269530 0.916840 -0.535312
O18   O     O_R   0.085520 0.769530 0.083160 -0.535946
C35   C     C_R   0.895537 0.608645 0.085918 0.685620
C36   C     C_R   0.104410 0.116108 0.914548 0.686522
O19   O     O_3   0.997840 0.601520 0.949550 -0.377671
O20   O     O_3   0.002160 0.101520 0.050450 -0.378637
V3    V     V_3+5 0.000400 0.328340 0.009360 1.401026
V4    V     V_3+5 0.999600 0.828340 0.990640 1.401712
C37   C     C_1   0.399836 0.382239 0.725636 0.288297
N1    N     N_1   0.449582 0.495676 0.739307 -0.348743
C38   C     C_1   0.599748 0.399174 0.284184 0.288728
N2    N     N_1   0.549404 0.286189 0.274703 -0.345549
C39   C     C_R   0.259401 0.871770 0.556160 0.112037
C40   C     C_R   0.221200 0.949926 0.484212 -0.144183
C41   C     C_R   0.190401 0.836491 0.420818 -0.110460
C42   C     C_R   0.198306 0.644972 0.428646 -0.108694
C43   C     C_R   0.238818 0.566979 0.499171 -0.131082
C44   C     C_R   0.268770 0.679669 0.562964 -0.096170
H17   H     H_    0.211651 0.097056 0.478553 0.088012
H18   H     H_    0.159302 0.896764 0.366006 0.115222
H19   H     H_    0.173818 0.557225 0.379716 0.112868
H20   H     H_    0.245577 0.419062 0.505050 0.101229
H21   H     H_    0.296549 0.617078 0.618591 0.116553
C45   C     C_R   0.743897 0.929887 0.436915 0.114403
C46   C     C_R   0.768011 0.856594 0.513760 -0.125913
C47   C     C_R   0.796639 0.974094 0.576363 -0.119267
C48   C     C_R   0.800312 0.165169 0.562874 -0.110705
C49   C     C_R   0.773910 0.239410 0.487141 -0.128950
C50   C     C_R   0.746375 0.122352 0.424240 -0.105429
H22   H     H_    0.767830 0.708671 0.524542 0.079720
H23   H     H_    0.816872 0.916938 0.635184 0.105922
H24   H     H_    0.823458 0.255766 0.611159 0.121837
H25   H     H_    0.776554 0.387231 0.476723 0.107367
H26   H     H_    0.729403 0.180918 0.365154 0.112997

loop_
_geom_bond_atom_site_label_1
_geom_bond_atom_site_label_2
_ccdc_geom_bond_type
O13   C33   A    
C46   C47   A    
C16   C22   A    
C48   C49   A    
O1    C3    A    
O2    C4    A    
C2    O7    A    
C39   C40   A    
C37   N1    T    
O5    C3    A    
C47   H23   S    
C28   C38   S    
C44   H21   S    
C15   C19   A    
C34   O17   A    
C13   C29   A    
C40   H17   S    
C19   H13   S    
C7    C34   S    
C29   C39   S    
C8    H4    S    
C29   C31   A    
C6    C10   S    
O15   C35   A    
C30   C32   A    
C6    C8    D    
C50   H26   S    
C16   C35   S    
O16   C36   A    
C17   H9    S    
C24   C32   A    
O5    V1    S    
C41   H18   S    
O6    V2    S    
C49   H25   S    
C49   C50   A    
C21   C23   A    
C22   C24   A    
C24   C26   A    
C45   C50   A    
C25   C27   A    
O11   V4    S    
C9    H5    S    
C26   C28   A    
C14   C30   A    
C20   H14   S    
O20   V3    S    
C4    C11   S    
C11   H7    S    
C8    C33   S    
C16   C20   A    
C42   C43   A    
C21   H15   S    
O4    C2    A    
C22   H16   S    
C48   H24   S    
C43   C44   A    
C5    H1    S    
O14   C34   A    
O4    V2    S    
C7    H3    S    
C41   C42   A    
C18   H10   S    
C12   H8    S    
O6    C4    A    
C1    C14   S    
O14   V4    S    
O12   C36   A    
O1    V2    S    
O2    V1    S    
C23   C25   A    
C30   C45   S    
C15   C36   S    
C10   H6    S    
O18   V4    S    
C9    C11   D    
C13   C27   A    
O19   V4    S    
O12   V3    S    
C14   C28   A    
C42   H19   S    
C27   C37   S    
C17   C25   A    
O3    V1    S    
C6    H2    S    
C39   C44   A    
O3    C1    A    
C43   H20   S    
O16   V4    S    
C10   C12   D    
C2    C13   S    
C5    C9    S    
O7    V1    S    
C1    O8    A    
C17   C19   A    
O8    V2    S    
C18   C20   A    
O11   C35   A    
O13   V3    S    
C3    C12   S    
C23   C31   A    
C45   C46   A    
C5    C7    D    
O17   V3    S    
C31   H11   S    
C47   C48   A    
C15   C21   A    
C18   C26   A    
C38   N2    T    
C32   H12   S    
O15   V3    S    
C40   C41   A    
O9    V2    S    
O10   V1    S    
C46   H22   S    
C33   O18   A    
