data_mof_unit_pretest_1592.cif
_audit_creation_date              2012-12-10T19:19:56-0500
_audit_creation_method            fapswitch 2.2
_symmetry_space_group_name_H-M    P1
_symmetry_Int_Tables_number       1
_space_group_crystal_system       triclinic
_cell_length_a                    44.564981
_cell_length_b                    38.890106
_cell_length_c                    21.644375
_cell_angle_alpha                 90.08419
_cell_angle_beta                  60.746046
_cell_angle_gamma                 90.040443
_cell_volume                      32728.3488536

loop_
_atom_site_label
_atom_site_type_symbol
_atom_type_description
_atom_site_fract_x
_atom_site_fract_y
_atom_site_fract_z
_atom_type_partial_charge
C1    C     C_R   0.067292 0.499911 0.432035 0.947467
C2    C     C_R   0.622796 0.489426 0.928188 -0.252001
C3    C     C_R   0.567243 0.500490 0.932626 0.883549
C4    C     C_R   0.932756 0.000477 0.067373 0.883663
C5    C     C_R   0.067285 0.000381 0.932596 0.882101
C6    C     C_R   0.500002 0.567012 0.000038 0.835489
C7    C     C_R   0.000001 0.067012 0.000041 0.835514
C8    C     C_R   0.521628 0.622795 0.936983 0.418312
C9    C     C_R   0.478434 0.622851 0.063238 0.417938
C10   C     C_R   0.021596 0.122815 0.937036 0.419288
C11   C     C_R   0.978448 0.122827 0.063323 0.418510
C12   C     C_R   0.520256 0.658473 0.937262 -0.148670
C13   C     C_R   0.877251 0.989456 0.071522 -0.252012
C14   C     C_R   0.479805 0.658533 0.062985 -0.147260
C15   C     C_R   0.020236 0.158496 0.937394 -0.146065
C16   C     C_R   0.979837 0.158506 0.063146 -0.146236
C17   C     C_R   0.500027 0.676578 0.000127 -0.032869
C18   C     C_R   0.000043 0.176576 0.000315 -0.033425
C19   C     C_R   0.500026 0.604533 0.000097 -0.282691
C20   C     C_R   0.000013 0.104532 0.000133 -0.283186
C21   C     C_R   0.469440 0.732450 0.041760 -0.273035
C22   C     C_R   0.530574 0.732444 0.958448 -0.271131
C23   C     C_R   0.969483 0.232448 0.042142 -0.270228
C24   C     C_R   0.122605 0.990573 0.930216 -0.250915
C25   C     C_R   0.030598 0.232442 0.958684 -0.269975
C26   C     C_R   0.998669 0.499820 0.686312 -0.158362
C27   C     C_R   0.001297 0.499670 0.313713 -0.158746
C28   C     C_R   0.501169 0.000217 0.683647 -0.143842
C29   C     C_R   0.501245 0.999688 0.313799 -0.156987
C30   C     C_R   0.969303 0.268405 0.043527 0.395123
C31   C     C_R   0.030761 0.268397 0.957299 0.395091
C32   C     C_R   0.469254 0.768408 0.043099 0.394525
C33   C     C_R   0.530734 0.768398 0.957024 0.391913
C34   C     C_R   0.000026 0.286341 0.000399 -0.021582
C35   C     C_R   0.341536 0.490497 0.106302 -0.053347
C36   C     C_R   0.499988 0.786344 0.000044 -0.022133
C37   C     C_R   0.500014 0.714381 0.000122 0.071557
C38   C     C_R   0.000043 0.214379 0.000395 0.071168
C39   C     C_R   0.023884 0.342107 0.012442 -0.064568
C40   C     C_R   0.976126 0.341975 0.988119 -0.064814
C41   C     C_R   0.523825 0.842075 0.012304 -0.067370
C42   C     C_R   0.476143 0.842012 0.987739 -0.072225
C43   C     C_R   0.024214 0.377806 0.011260 -0.181394
C44   C     C_R   0.975791 0.377677 0.989076 -0.181451
C45   C     C_R   0.524164 0.877774 0.011211 -0.185037
C46   C     C_R   0.658463 0.490516 0.893670 -0.053409
C47   C     C_R   0.475817 0.877716 0.988779 -0.196302
C48   C     C_R   0.000004 0.395606 0.000105 -0.034253
C49   C     C_R   0.499995 0.895608 0.999984 -0.029571
C50   C     C_R   0.000008 0.324030 0.000331 0.188879
C51   C     C_R   0.499983 0.824033 0.000031 0.193192
C52   C     C_R   0.526780 0.377088 0.003257 0.408104
C53   C     C_R   0.473221 0.377061 0.996464 0.407996
C54   C     C_R   0.026771 0.877088 0.003311 0.407542
C55   C     C_R   0.973264 0.877059 0.996317 0.407519
C56   C     C_R   0.525993 0.341330 0.004486 -0.060316
C57   C     C_R   0.841589 0.990546 0.105919 -0.054304
C58   C     C_R   0.473978 0.341300 0.995280 -0.059930
C59   C     C_R   0.025998 0.841330 0.004482 -0.061356
C60   C     C_R   0.974040 0.841299 0.995065 -0.061718
C61   C     C_R   0.499973 0.323483 0.999911 0.007263
C62   C     C_R   0.000017 0.823483 0.999767 0.008091
C63   C     C_R   0.970507 0.485750 0.746976 0.375777
C64   C     C_R   0.029392 0.485470 0.253030 0.375844
C65   C     C_R   0.530779 0.011051 0.686016 0.372846
C66   C     C_R   0.529727 0.986274 0.252771 0.375635
C67   C     C_R   0.500005 0.395341 0.999867 -0.275871
C68   C     C_R   0.158273 0.991374 0.896183 -0.055598
C69   C     C_R   0.000014 0.895340 0.999850 -0.275700
C70   C     C_R   0.503358 0.267916 0.940339 0.399702
C71   C     C_R   0.496518 0.268062 0.059711 0.401465
C72   C     C_R   0.003504 0.767936 0.940051 0.400228
C73   C     C_R   0.996491 0.768047 0.059561 0.400047
C74   C     C_R   0.003475 0.731924 0.940628 -0.203562
C75   C     C_R   0.996510 0.732035 0.059032 -0.203602
C76   C     C_R   0.503333 0.231905 0.940951 -0.197348
C77   C     C_R   0.496533 0.232049 0.059221 -0.204724
C78   C     C_R   0.999992 0.714233 0.999841 0.108824
C79   C     C_R   0.323531 0.504388 0.174341 0.171457
C80   C     C_R   0.499935 0.214234 0.000113 0.106218
C81   C     C_R   0.499945 0.285863 0.999991 0.021770
C82   C     C_R   0.000002 0.785864 0.999793 0.022248
C83   C     C_R   0.031211 0.658741 0.963461 0.376453
C84   C     C_R   0.968778 0.658750 0.036321 0.376460
C85   C     C_R   0.531209 0.158765 0.964369 0.379099
C86   C     C_R   0.468715 0.158744 0.035937 0.379272
C87   C     C_R   0.031080 0.622961 0.963764 -0.227937
C88   C     C_R   0.968914 0.622970 0.036114 -0.227800
C89   C     C_R   0.531092 0.122983 0.964591 -0.215886
C90   C     C_R   0.676469 0.504393 0.825693 0.171497
C91   C     C_R   0.468865 0.122963 0.035662 -0.218531
C92   C     C_R   0.999998 0.604869 0.999963 -0.176674
C93   C     C_R   0.499987 0.104875 0.000095 -0.178235
C94   C     C_R   0.999993 0.676747 0.999867 -0.069221
C95   C     C_R   0.499953 0.176752 0.000152 -0.072105
C96   C     C_R   0.970975 0.485635 0.811224 -0.222398
C97   C     C_R   0.028933 0.485391 0.188769 -0.222593
C98   C     C_R   0.530488 0.011053 0.751068 -0.213097
C99   C     C_R   0.529291 0.986183 0.188490 -0.222310
C100  C     C_R   0.999630 0.498935 0.814464 -0.164842
C101  C     C_R   0.823527 0.004332 0.174037 0.171674
C102  C     C_R   0.000351 0.498855 0.185540 -0.165085
C103  C     C_R   0.500632 0.000787 0.813315 -0.165015
C104  C     C_R   0.500372 0.998892 0.185551 -0.165958
C105  C     C_R   0.026838 0.511829 0.753081 0.089138
C106  C     C_R   0.973183 0.511823 0.246959 0.089402
C107  C     C_R   0.472145 0.990935 0.807971 0.086367
C108  C     C_R   0.472863 0.011138 0.247299 0.089021
C109  C     C_3   0.061109 0.528885 0.722535 0.225264
C110  C     C_3   0.939033 0.529122 0.277476 0.224893
C111  C     C_3   0.436080 0.978082 0.848213 0.217278
C112  C     C_R   0.932708 0.499913 0.567967 0.947705
C113  C     C_R   0.176661 0.003157 0.826582 0.174098
C114  C     C_3   0.438231 0.027453 0.278287 0.227834
C115  C     C_R   0.341062 0.517326 0.208020 -0.178432
C116  C     C_R   0.658939 0.517314 0.792064 -0.178388
C117  C     C_R   0.840998 0.017150 0.207942 -0.177630
C118  C     C_R   0.159520 0.014230 0.790773 -0.179205
C119  C     C_R   0.377069 0.516298 0.173870 0.449392
C120  C     C_R   0.622932 0.516284 0.826203 0.449430
C121  C     C_R   0.877006 0.016123 0.173918 0.449190
C122  C     C_R   0.123493 0.013561 0.824475 0.450914
C123  C     C_R   0.395175 0.501991 0.105216 -0.091318
C124  C     C_R   0.567290 0.999911 0.431974 0.954648
C125  C     C_R   0.604825 0.501991 0.894795 -0.091279
C126  C     C_R   0.895169 0.001936 0.105164 -0.091305
C127  C     C_R   0.104953 0.001432 0.894858 -0.093032
C128  C     C_R   0.268419 0.528180 0.190683 0.309530
C129  C     C_R   0.731577 0.528207 0.809448 0.309471
C130  C     C_R   0.768464 0.028232 0.190314 0.308454
C131  C     C_R   0.231590 0.029087 0.806773 0.306497
C132  C     C_R   0.232387 0.528162 0.226129 0.363477
C133  C     C_R   0.767609 0.528190 0.774007 0.363414
C134  C     C_R   0.732432 0.028211 0.225605 0.365080
C135  C     C_R   0.432766 0.999926 0.568375 0.946084
C136  C     C_R   0.267624 0.029219 0.771701 0.364537
C137  C     C_R   0.214365 0.504967 0.282231 -0.129384
C138  C     C_R   0.785633 0.504974 0.717823 -0.129398
C139  C     C_R   0.714365 0.004898 0.281447 -0.126025
C140  C     C_R   0.285824 0.003862 0.720382 -0.132374
C141  C     C_R   0.999782 0.499981 0.619990 0.966633
C142  C     C_R   0.000226 0.499935 0.380000 0.966404
C143  C     C_R   0.499987 0.000012 0.619735 0.968556
C144  C     C_R   0.500168 0.999937 0.380069 0.965499
C145  C     C_R   0.232152 0.481940 0.302195 -0.254456
C146  C     C_3   0.060313 0.529598 0.651770 0.182383
C147  C     C_R   0.767849 0.481928 0.697771 -0.254440
C148  C     C_R   0.732109 0.981750 0.301285 -0.260678
C149  C     C_R   0.268219 0.978509 0.704927 -0.257168
C150  C     C_R   0.267807 0.481715 0.267097 0.387087
C151  C     C_R   0.732194 0.481701 0.732862 0.387042
C152  C     C_R   0.767762 0.981530 0.266346 0.388703
C153  C     C_R   0.232553 0.978201 0.739565 0.387976
C154  C     C_R   0.286052 0.504834 0.211235 -0.178910
C155  C     C_R   0.713947 0.504841 0.788807 -0.179020
C156  C     C_R   0.786051 0.004777 0.210769 -0.178142
C157  C     C_3   0.939822 0.529798 0.348253 0.182635
C158  C     C_R   0.214137 0.003518 0.790503 -0.178969
C159  C     C_R   0.160321 0.473220 0.319028 -0.170877
C160  C     C_R   0.839678 0.473239 0.680923 -0.170897
C161  C     C_R   0.660270 0.973257 0.318123 -0.175189
C162  C     C_R   0.340356 0.974351 0.689789 -0.155562
C163  C     C_R   0.124596 0.471156 0.355397 0.421255
C164  C     C_R   0.875403 0.471172 0.644536 0.421316
C165  C     C_R   0.624545 0.971198 0.354740 0.413586
C166  C     C_R   0.376108 0.972687 0.653022 0.416889
C167  C     C_R   0.105033 0.500115 0.393589 -0.116436
C168  C     C_3   0.436565 0.977718 0.776156 0.202758
C169  C     C_R   0.894966 0.500118 0.606429 -0.116550
C170  C     C_R   0.605030 0.000108 0.393301 -0.135909
C171  C     C_R   0.395124 0.000071 0.607835 -0.095213
C172  C     C_R   0.122062 0.530392 0.394560 -0.189475
C173  C     C_R   0.877935 0.530385 0.605567 -0.188926
C174  C     C_R   0.622102 0.030343 0.394307 -0.183771
C175  C     C_R   0.377716 0.028641 0.600978 -0.169203
C176  C     C_R   0.157720 0.532054 0.358283 -0.059394
C177  C     C_R   0.842277 0.532050 0.641860 -0.059255
C178  C     C_R   0.657762 0.032003 0.357761 -0.066787
C179  C     C_3   0.438956 0.028080 0.349129 0.179067
C180  C     C_R   0.342036 0.029985 0.637841 -0.055272
C181  C     C_R   0.176860 0.503590 0.319937 0.119216
C182  C     C_R   0.823138 0.503598 0.680115 0.119143
C183  C     C_R   0.676856 0.003575 0.319136 0.115594
C184  C     C_R   0.323345 0.002941 0.682573 0.117531
C185  C     C_R   0.000000 0.432856 0.000007 0.868061
C186  C     C_R   0.499999 0.932857 0.999980 0.858705
C187  C     C_R   0.026079 0.512751 0.691929 -0.068364
C188  C     C_R   0.973937 0.512711 0.308120 -0.067820
C189  C     C_R   0.472588 0.990293 0.745614 -0.089871
C190  C     C_R   0.377203 0.489410 0.071773 -0.252056
C191  C     C_R   0.473553 0.011991 0.308527 -0.067955
C192  C     C_R   0.999980 0.499764 0.879889 0.904734
C193  C     C_R   0.000018 0.499756 0.120109 0.904515
C194  C     C_R   0.500076 0.000162 0.879745 0.908171
C195  C     C_R   0.500021 0.999753 0.120117 0.905287
C196  C     C_R   1.000000 0.567213 0.999998 0.899095
C197  C     C_R   0.499998 0.067215 0.000033 0.912360
C198  C     C_R   0.499998 0.432807 0.999961 0.831074
C199  C     C_R   0.999999 0.932807 0.999959 0.831214
C200  C     C_R   0.432757 0.500490 0.067377 0.883534
Cl1   Cl    Cl    0.934140 0.469390 0.745002 -0.520717
Cl2   Cl    Cl    0.789891 0.556127 0.802168 -0.474790
Cl3   Cl    Cl    0.710205 0.056280 0.197694 -0.469453
Cl4   Cl    Cl    0.289724 0.060251 0.794124 -0.450052
Cl5   Cl    Cl    0.288857 0.451534 0.293408 -0.530262
Cl6   Cl    Cl    0.711147 0.451497 0.706436 -0.530004
Cl7   Cl    Cl    0.788757 0.951211 0.292506 -0.536708
Cl8   Cl    Cl    0.211671 0.945371 0.718719 -0.532481
Cl9   Cl    Cl    0.106305 0.432036 0.348858 -0.462503
Cl10  Cl    Cl    0.893691 0.432064 0.650941 -0.462806
Cl11  Cl    Cl    0.606185 0.932148 0.348073 -0.475071
Cl12  Cl    Cl    0.065691 0.468950 0.254970 -0.520337
Cl13  Cl    Cl    0.395418 0.936587 0.668517 -0.550883
Cl14  Cl    Cl    0.070947 0.680291 0.917775 -0.553867
Cl15  Cl    Cl    0.929039 0.680310 0.081955 -0.553958
Cl16  Cl    Cl    0.570963 0.180345 0.919509 -0.541408
Cl17  Cl    Cl    0.428941 0.180295 0.080834 -0.543105
Cl18  Cl    Cl    0.090704 0.502103 0.583561 -0.535017
Cl19  Cl    Cl    0.909234 0.502504 0.416466 -0.535255
Cl20  Cl    Cl    0.409611 0.008980 0.766849 -0.480152
Cl21  Cl    Cl    0.409155 0.999855 0.416359 -0.540410
Cl22  Cl    Cl    0.568430 0.023829 0.609121 -0.596531
Cl23  Cl    Cl    0.566427 0.970721 0.254382 -0.520394
Cl24  Cl    Cl    0.291415 0.557678 0.121147 -0.479702
Cl25  Cl    Cl    0.708577 0.557728 0.879093 -0.479095
Cl26  Cl    Cl    0.791518 0.057871 0.121105 -0.476866
Cl27  Cl    Cl    0.208355 0.061155 0.870391 -0.476299
Cl28  Cl    Cl    0.210102 0.556072 0.198070 -0.475201
H1    H     H_    0.218163 0.464025 0.345224 0.217984
H2    H     H_    0.892192 0.552801 0.576231 0.186907
H3    H     H_    0.607878 0.052740 0.423923 0.203939
H4    H     H_    0.391720 0.049823 0.566350 0.184422
H5    H     H_    0.170429 0.555463 0.360233 0.174728
H6    H     H_    0.829567 0.555450 0.639991 0.174745
H7    H     H_    0.670508 0.055372 0.359779 0.180171
H8    H     H_    0.328954 0.051976 0.631260 0.173878
H9    H     H_    0.949185 0.475150 0.858000 0.204392
H10   H     H_    0.050680 0.474828 0.141963 0.204235
H11   H     H_    0.553328 0.019161 0.752801 0.207674
H12   H     H_    0.781841 0.463997 0.654677 0.217989
H13   H     H_    0.551326 0.976193 0.141450 0.204955
H14   H     H_    0.535770 0.672050 0.888032 0.180943
H15   H     H_    0.464287 0.672160 0.112219 0.181661
H16   H     H_    0.035734 0.172093 0.888184 0.182240
H17   H     H_    0.964346 0.172112 0.112421 0.182175
H18   H     H_    0.445625 0.718617 0.073121 0.155333
H19   H     H_    0.554400 0.718610 0.927114 0.155349
H20   H     H_    0.945670 0.218617 0.073540 0.156061
H21   H     H_    0.054415 0.218608 0.927273 0.156361
H22   H     H_    0.042152 0.328577 0.022955 0.173739
H23   H     H_    0.718087 0.963749 0.344123 0.213266
H24   H     H_    0.957861 0.328339 0.977684 0.173566
H25   H     H_    0.542059 0.828518 0.022879 0.173014
H26   H     H_    0.457905 0.828404 0.977183 0.168906
H27   H     H_    0.042848 0.391527 0.020436 0.165858
H28   H     H_    0.957153 0.391296 0.979823 0.165822
H29   H     H_    0.542771 0.891468 0.020515 0.165390
H30   H     H_    0.457216 0.891365 0.979457 0.155419
H31   H     H_    0.546318 0.327313 0.007265 0.196345
H32   H     H_    0.453639 0.327260 0.992528 0.196806
H33   H     H_    0.046307 0.827313 0.007321 0.195776
H34   H     H_    0.282353 0.958958 0.665555 0.216898
H35   H     H_    0.953729 0.827258 0.992207 0.195677
H36   H     H_    0.006208 0.717622 0.895142 0.162186
H37   H     H_    0.993774 0.717817 0.104537 0.162153
H38   H     H_    0.506008 0.217587 0.895528 0.167620
H39   H     H_    0.493860 0.217843 0.104687 0.162449
H40   H     H_    0.060052 0.554549 0.746413 0.059510
H41   H     H_    0.940274 0.554789 0.253590 0.059332
H42   H     H_    0.434125 0.952342 0.872384 0.057291
H43   H     H_    0.438747 0.053167 0.255212 0.059697
H44   H     H_    0.055309 0.609375 0.935558 0.208540
H45   H     H_    0.175332 0.451166 0.289335 0.189646
H46   H     H_    0.944686 0.609391 0.064352 0.208572
H47   H     H_    0.555352 0.109411 0.936874 0.210718
H48   H     H_    0.444616 0.109375 0.063367 0.210495
H49   H     H_    0.058554 0.555874 0.633689 0.084514
H50   H     H_    0.941764 0.556055 0.366322 0.084595
H51   H     H_    0.435079 0.951554 0.757131 0.124021
H52   H     H_    0.440121 0.054357 0.368083 0.084484
H53   H     H_    0.390756 0.478336 0.019164 0.194370
H54   H     H_    0.609243 0.478364 0.980749 0.194338
H55   H     H_    0.890843 0.978470 0.018837 0.194157
H56   H     H_    0.824667 0.451195 0.710545 0.189612
H57   H     H_    0.108808 0.981139 0.984113 0.195030
H58   H     H_    0.327908 0.480363 0.080302 0.174980
H59   H     H_    0.672090 0.480395 0.919630 0.174889
H60   H     H_    0.828008 0.980499 0.079749 0.174420
H61   H     H_    0.171600 0.982696 0.923853 0.172853
H62   H     H_    0.326619 0.528168 0.260731 0.156472
H63   H     H_    0.673384 0.528145 0.739401 0.156417
H64   H     H_    0.826509 0.027904 0.260724 0.156878
H65   H     H_    0.174278 0.023429 0.736808 0.155523
H66   H     H_    0.378232 0.538756 0.253204 0.350608
H67   H     H_    0.675245 0.951230 0.288211 0.190061
H68   H     H_    0.621773 0.538715 0.746962 0.350554
H69   H     H_    0.878074 0.038392 0.253516 0.350833
H70   H     H_    0.123033 0.032849 0.741907 0.349708
H71   H     H_    0.552107 0.584927 0.885191 0.359306
H72   H     H_    0.447965 0.585007 0.115015 0.359231
H73   H     H_    0.052058 0.084956 0.885110 0.356611
H74   H     H_    0.947956 0.084991 0.115047 0.359138
H75   H     H_    0.920645 0.270068 0.113989 0.354071
H76   H     H_    0.079421 0.270042 0.886847 0.354255
H77   H     H_    0.420575 0.770074 0.113428 0.352555
H78   H     H_    0.325722 0.953479 0.724719 0.186868
H79   H     H_    0.579411 0.770042 0.886684 0.352442
H80   H     H_    0.556165 0.417024 0.989159 0.337206
H81   H     H_    0.443882 0.417002 0.010462 0.337235
H82   H     H_    0.056139 0.917024 0.989316 0.337788
H83   H     H_    0.943902 0.916983 0.010360 0.337190
H84   H     H_    0.509291 0.269634 0.845134 0.355956
H85   H     H_    0.490581 0.270013 0.154913 0.353823
H86   H     H_    0.009584 0.769684 0.844732 0.352930
H87   H     H_    0.990408 0.769971 0.154882 0.352893
H88   H     H_    0.107553 0.520019 0.701798 0.360928
H89   H     H_    0.107803 0.552817 0.423967 0.186724
H90   H     H_    0.892533 0.520594 0.298184 0.360918
H91   H     H_    0.391110 0.992278 0.920248 0.364142
H92   H     H_    0.392011 0.017621 0.298579 0.360821
O1    O     O_R   0.050900 0.528720 0.449120 -0.639487
O2    O     O_R   0.550940 0.499970 0.000810 -0.633674
O3    O     O_R   0.949060 0.999970 0.999190 -0.633691
O4    O     O_R   0.050940 0.999970 0.000810 -0.634698
O5    O     O_R   0.500010 0.550820 0.051820 -0.589147
O6    O     O_R   0.499990 0.550820 0.948180 -0.589064
O7    O     O_R   0.000010 0.050820 0.051820 -0.588944
O8    O     O_R   0.999990 0.050820 0.948180 -0.589506
O9    O     O_R   0.050870 0.471230 0.449150 -0.551578
O10   O     O_R   0.949130 0.471230 0.550850 -0.551735
O11   O     O_R   0.550870 0.971230 0.449150 -0.559091
O12   O     O_R   0.949100 0.528720 0.550880 -0.639335
O13   O     O_R   0.449130 0.971230 0.550850 -0.567000
O14   O     O_R   1.000000 0.528720 0.591610 -0.638960
O15   O     O_R   0.000000 0.528720 0.408390 -0.638912
O16   O     O_R   0.500000 0.028720 0.591610 -0.581441
O17   O     O_R   0.500000 0.028720 0.408390 -0.640895
O18   O     O_R   0.999960 0.471230 0.591650 -0.569146
O19   O     O_R   0.000040 0.471230 0.408350 -0.569329
O20   O     O_R   0.499960 0.971230 0.591650 -0.623508
O21   O     O_R   0.500040 0.971230 0.408350 -0.568427
O22   O     O_R   0.971240 0.449020 0.028740 -0.610319
O23   O     O_R   0.550900 0.028720 0.449120 -0.623911
O24   O     O_R   0.028760 0.449020 0.971260 -0.610330
O25   O     O_R   0.471240 0.949020 0.028740 -0.612465
O26   O     O_R   0.528760 0.949020 0.971260 -0.616961
O27   O     O_R   0.971230 0.499930 0.937140 -0.628794
O28   O     O_R   0.028770 0.499930 0.062860 -0.628743
O29   O     O_R   0.471230 0.999930 0.937140 -0.582489
O30   O     O_R   0.528770 0.999930 0.062860 -0.627785
O31   O     O_R   0.028710 0.499970 0.879680 -0.577053
O32   O     O_R   0.971290 0.499970 0.120320 -0.576932
O33   O     O_R   0.528710 0.999970 0.879680 -0.626985
O34   O     O_R   0.449100 0.028720 0.550880 -0.628163
O35   O     O_R   0.471290 0.999970 0.120320 -0.579231
O36   O     O_R   0.971230 0.550840 0.028760 -0.622202
O37   O     O_R   0.028770 0.550840 0.971240 -0.622282
O38   O     O_R   0.471230 0.050840 0.028760 -0.616480
O39   O     O_R   0.528770 0.050840 0.971240 -0.619314
O40   O     O_R   0.499940 0.449000 0.051660 -0.599689
O41   O     O_R   0.500060 0.449000 0.948340 -0.599861
O42   O     O_R   0.999940 0.949000 0.051660 -0.599981
O43   O     O_R   0.000060 0.949000 0.948340 -0.599877
O44   O     O_3   0.394864 0.529679 0.205769 -0.728742
O45   O     O_R   0.449070 0.499910 0.102620 -0.551529
O46   O     O_3   0.605140 0.529647 0.794356 -0.728794
O47   O     O_3   0.894743 0.029391 0.206037 -0.728367
O48   O     O_3   0.106131 0.025195 0.790335 -0.725564
O49   O     O_3   0.544742 0.607050 0.874359 -0.708395
O50   O     O_3   0.455323 0.607162 0.125853 -0.708075
O51   O     O_3   0.044680 0.107092 0.874358 -0.707496
O52   O     O_3   0.955349 0.107116 0.125920 -0.707102
O53   O     O_3   0.939680 0.286498 0.087218 -0.746159
O54   O     O_3   0.060376 0.286476 0.913598 -0.746097
O55   O     O_3   0.439616 0.786503 0.086697 -0.748058
O56   O     O_R   0.550930 0.499910 0.897380 -0.551500
O57   O     O_3   0.560359 0.786477 0.913380 -0.751854
O58   O     O_3   0.554393 0.392784 0.004238 -0.719777
O59   O     O_3   0.445619 0.392729 0.995472 -0.719457
O60   O     O_3   0.054355 0.892785 0.004409 -0.719879
O61   O     O_3   0.945678 0.892725 0.995257 -0.720846
O62   O     O_3   0.507187 0.286086 0.882100 -0.729706
O63   O     O_3   0.492696 0.286374 0.117886 -0.731403
O64   O     O_3   0.007416 0.786124 0.881768 -0.732518
O65   O     O_3   0.992583 0.786342 0.117822 -0.732742
O66   O     O_3   0.085878 0.506592 0.722161 -0.640573
O67   O     O_R   0.949070 0.999910 0.102620 -0.551581
O68   O     O_3   0.914113 0.507014 0.277838 -0.640524
O69   O     O_3   0.414231 0.003027 0.895578 -0.638432
O70   O     O_3   0.413971 0.004664 0.277859 -0.641645
O71   O     O_R   0.050930 0.999910 0.897380 -0.550017
O72   O     O_R   0.449060 0.499970 0.999190 -0.633744
Zn1   Zn    Zn3+2 0.000000 0.538360 0.500000 1.009931
Zn2   Zn    Zn3+2 0.500020 0.499890 0.930920 1.077248
Zn3   Zn    Zn3+2 0.999980 0.999890 0.069080 1.075938
Zn4   Zn    Zn3+2 0.000020 0.999890 0.930920 1.077096
Zn5   Zn    Zn3+2 0.500000 0.038360 0.500000 1.057013
Zn6   Zn    Zn3+2 0.000000 0.461590 0.500000 1.188040
Zn7   Zn    Zn3+2 0.500000 0.961590 0.500000 1.146409
Zn8   Zn    Zn3+2 0.961590 0.499920 0.038380 1.045509
Zn9   Zn    Zn3+2 0.038410 0.499920 0.961620 1.045362
Zn10  Zn    Zn3+2 0.461590 0.999920 0.038380 1.065235
Zn11  Zn    Zn3+2 0.538410 0.999920 0.961620 1.020722
Zn12  Zn    Zn3+2 0.499980 0.499890 0.069080 1.077327

loop_
_geom_bond_atom_site_label_1
_geom_bond_atom_site_label_2
_ccdc_geom_bond_type
C31   O54   S    
C96   H9    S    
C149  H34   S    
C152  Cl7   S    
O31   Zn9   S    
C157  C188  S    
C136  C140  A    
C114  H43   S    
O21   Zn7   S    
C114  O70   S    
O22   Zn8   S    
C147  H12   S    
C11   O52   S    
C8    O49   S    
C179  Cl21  S    
C170  C174  A    
C3    O2    A    
C1    C167  S    
C32   O55   S    
C177  C182  A    
C133  Cl2   S    
C33   C36   A    
C60   C62   A    
C199  O42   A    
C23   H20   S    
C5    O71   A    
C149  C153  A    
C118  H65   S    
C25   H21   S    
C9    C19   A    
C49   C186  S    
C152  C156  A    
C164  Cl10  S    
C24   C127  A    
C185  O24   A    
C108  C191  A    
C151  C155  A    
C146  H49   S    
C128  C154  A    
O9    Zn6   S    
C1    O9    A    
C113  C118  A    
C58   C61   A    
O17   Zn5   S    
O10   Zn6   S    
C68   H61   S    
C73   C75   A    
C60   H35   S    
C128  Cl24  S    
C130  C134  A    
C109  H40   S    
C194  O33   A    
C65   Cl22  S    
C57   H60   S    
H92   O70   S    
C163  Cl9   S    
O25   Zn10  S    
C11   C20   A    
C153  C158  A    
C159  H45   S    
C55   O61   S    
C146  C187  S    
O72   Zn2   S    
C120  C125  A    
C44   H28   S    
O7    Zn3   S    
C98   H11   S    
C132  C137  A    
C29   C144  S    
C63   C96   A    
C193  O32   A    
C122  O48   S    
C58   H32   S    
C131  C158  A    
C153  Cl8   S    
C112  C169  S    
C168  Cl20  S    
C110  C157  S    
C142  O19   A    
C129  C133  A    
C64   C97   A    
O35   Zn10  S    
C35   C190  A    
C12   H14   S    
C197  O39   A    
C117  H64   S    
C109  O66   S    
C174  H3    S    
C196  O37   A    
O27   Zn8   S    
C75   H37   S    
C160  H56   S    
C84   C88   A    
C92   C196  S    
O19   Zn6   S    
C53   C58   A    
C119  C123  A    
C18   C38   S    
C33   O57   S    
C71   O63   S    
C78   C94   S    
C5    O4    A    
C104  C195  S    
C144  O21   A    
C138  C182  S    
C73   O65   S    
C86   C95   A    
C146  Cl18  S    
H75   O53   S    
C179  C191  S    
C180  H8    S    
C53   O59   S    
C89   H47   S    
O5    Zn12  S    
C41   C45   A    
C200  O45   A    
C111  O69   S    
O4    Zn3   S    
C130  C156  A    
C111  H42   S    
C41   C51   A    
C161  C165  A    
C44   C48   A    
C25   C31   A    
C15   C18   A    
C143  O20   A    
C76   H38   S    
C172  H89   S    
C186  O26   A    
C93   C197  S    
H76   O54   S    
C67   C198  S    
C28   C189  A    
C134  Cl3   S    
C6    C19   S    
H91   O69   S    
C91   H48   S    
C87   H44   S    
C186  O25   A    
C137  C181  S    
C47   H30   S    
C41   H25   S    
C118  C122  A    
O43   Zn4   S    
C6    O6    A    
C54   O60   S    
C192  O27   A    
O41   Zn2   S    
C27   C64   A    
C29   C191  A    
C103  C194  S    
C199  O43   A    
O2    Zn12  S    
C145  C150  A    
C135  O13   A    
O1    Zn1   S    
C14   C17   A    
C100  C192  S    
C54   C59   A    
C198  O40   A    
C139  C148  A    
C8    C19   A    
C3    O56   A    
C30   C34   A    
H90   O68   S    
C131  C136  A    
H81   O59   S    
H88   O66   S    
C134  C139  A    
H68   O46   S    
O20   Zn7   S    
C10   O51   S    
C116  C120  A    
C123  C190  A    
C178  C183  A    
C147  C151  A    
C26   C63   A    
C25   C38   A    
O32   Zn8   S    
H73   O51   S    
C176  H5    S    
C8    C12   A    
C115  H62   S    
C31   C34   A    
C21   C37   A    
O23   Zn5   S    
C80   C95   S    
O3    Zn4   S    
C130  Cl26  S    
C55   C69   A    
C52   C67   A    
C72   O64   S    
C9    O50   S    
O15   Zn1   S    
C179  H52   S    
C114  C179  S    
C90   C116  A    
C7    O7    A    
O45   Zn12  S    
C71   C77   A    
C83   Cl14  S    
O30   Zn11  S    
C145  H1    S    
C175  H4    S    
C63   Cl1   S    
O28   Zn9   S    
C141  O14   A    
C107  C111  S    
C59   H33   S    
C64   Cl12  S    
C76   C80   A    
C66   Cl23  S    
C103  C107  A    
C196  O36   A    
C21   H18   S    
C57   C101  A    
C115  C119  A    
C190  H53   S    
C4    C126  S    
C70   O62   S    
C48   C185  S    
C61   C81   S    
C142  O15   A    
O38   Zn10  S    
C85   C95   A    
O42   Zn3   S    
C39   H22   S    
C194  O29   A    
C96   C100  A    
C35   C79   A    
C4    O67   A    
C89   C93   A    
C53   C67   A    
C173  H2    S    
C175  C180  A    
C2    C125  A    
C180  C184  A    
C40   C44   A    
C129  Cl25  S    
C169  C173  A    
C197  O38   A    
C140  C149  A    
C172  C176  A    
C71   C81   A    
C74   H36   S    
C83   C87   A    
C139  C183  S    
C2    H54   S    
C16   H17   S    
C140  C184  S    
C46   H59   S    
C160  C164  A    
C137  C145  A    
C144  O17   A    
C65   C98   A    
C79   C115  A    
C86   C91   A    
C132  Cl28  S    
C40   H24   S    
C98   C103  A    
C108  C114  S    
C105  C109  S    
C162  C166  A    
H80   O58   S    
C12   C17   A    
C4    O3    A    
C30   O53   S    
C135  C171  S    
C26   C141  S    
C174  C178  A    
C97   C102  A    
C84   Cl15  S    
C68   C113  A    
C99   C104  A    
C62   C82   S    
H72   O50   S    
C133  C138  A    
C55   C60   A    
O33   Zn11  S    
C52   O58   S    
C42   H26   S    
C176  C181  A    
C148  C152  A    
C72   C74   A    
O36   Zn8   S    
C85   Cl16  S    
C129  C155  A    
C85   C89   A    
C13   H55   S    
C101  C156  S    
C22   C37   A    
C168  C189  S    
C161  C183  A    
C9    C14   A    
C162  C184  A    
O26   Zn11  S    
C91   C93   A    
C11   C16   A    
C45   C49   A    
C5    C127  S    
C28   C143  S    
C84   C94   A    
C177  H6    S    
O11   Zn7   S    
C13   C126  A    
O6    Zn2   S    
H79   O57   S    
C56   H31   S    
O56   Zn2   S    
C102  C193  S    
C32   C36   A    
C73   C82   A    
C104  C108  A    
C77   C80   A    
C165  C170  A    
H87   O65   S    
C148  H23   S    
C120  O46   S    
H85   O63   S    
C1    O1    A    
C45   H29   S    
C167  C172  A    
C46   C90   A    
C23   C38   A    
C101  C117  A    
C28   C65   A    
C83   C94   A    
H77   O55   S    
C54   C69   A    
C40   C50   A    
C27   C188  A    
C88   H46   S    
C24   C68   A    
C14   H15   S    
C131  Cl27  S    
O8    Zn4   S    
C13   C57   A    
C7    C20   S    
H69   O47   S    
C56   C61   A    
C111  C168  S    
H71   O49   S    
C168  H51   S    
H86   O64   S    
C195  O30   A    
O40   Zn12  S    
C109  C146  S    
C157  Cl19  S    
O18   Zn6   S    
O39   Zn11  S    
C47   C49   A    
O12   Zn1   S    
C2    C46   A    
C97   H10   S    
O37   Zn9   S    
C100  C105  A    
C10   C15   A    
C22   H19   S    
C124  O11   A    
C122  C127  A    
C27   C142  S    
C70   C81   A    
C117  C121  A    
H70   O48   S    
C157  H50   S    
H83   O61   S    
C193  O28   A    
O24   Zn9   S    
C135  O34   A    
C195  O35   A    
C113  C158  S    
C43   C48   A    
C74   C78   A    
C112  O10   A    
C42   C51   A    
C166  C171  A    
C107  C189  A    
C164  C169  A    
C161  H67   S    
C128  C132  A    
C160  C182  A    
O71   Zn4   S    
C21   C32   A    
C34   C50   S    
C23   C30   A    
C88   C92   A    
C123  C200  S    
C185  O22   A    
C165  Cl11  S    
C39   C43   A    
C166  Cl13  S    
C24   H57   S    
C171  C175  A    
C159  C181  A    
C77   H39   S    
C86   Cl17  S    
C66   C99   A    
C99   H13   S    
C6    O5    A    
C163  C167  A    
O13   Zn7   S    
C26   C187  A    
C173  C177  A    
C138  C147  A    
C35   H58   S    
O29   Zn10  S    
C17   C37   S    
C36   C51   S    
H84   O62   S    
C70   C76   A    
C159  C163  A    
C162  H78   S    
O14   Zn1   S    
C119  O44   S    
C136  Cl4   S    
C87   C92   A    
C106  C110  S    
C43   H27   S    
C22   C33   A    
H82   O60   S    
C15   H16   S    
C59   C62   A    
C121  O47   S    
C141  O18   A    
C150  Cl5   S    
C124  O23   A    
C110  H41   S    
C3    C125  S    
C110  O68   S    
C116  H63   S    
C143  O16   A    
H74   O52   S    
C105  C187  A    
C106  C188  A    
C121  C126  A    
O34   Zn5   S    
C79   C154  S    
C10   C20   A    
C102  C106  A    
C42   C47   A    
C151  Cl6   S    
H66   O44   S    
C75   C78   A    
C200  O72   A    
O67   Zn3   S    
C112  O12   A    
C29   C66   A    
C39   C50   A    
C124  C170  S    
C16   C18   A    
O16   Zn5   S    
C150  C154  A    
C7    O8    A    
C69   C199  S    
C178  H7    S    
C90   C155  S    
C72   C82   A    
C52   C56   A    
C192  O31   A    
C198  O41   A    
