data_mof_unit_pretest_1572.cif
_audit_creation_date              2013-03-05T16:43:21-0500
_audit_creation_method            fapswitch 2.2
_symmetry_space_group_name_H-M    P1
_symmetry_Int_Tables_number       1
_space_group_crystal_system       triclinic
_cell_length_a                    25.865895
_cell_length_b                    39.783265
_cell_length_c                    23.72773
_cell_angle_alpha                 90.000188
_cell_angle_beta                  123.238288
_cell_angle_gamma                 89.999911
_cell_volume                      20421.9506745

loop_
_atom_site_label
_atom_site_type_symbol
_atom_site_description
_atom_site_fract_x
_atom_site_fract_y
_atom_site_fract_z
_atom_type_partial_charge
Zn1   Zn    Zn3+2 0.515340 0.221940 0.943940 1.017882
Zn2   Zn    Zn3+2 0.484660 0.778060 0.056060 1.017901
Zn3   Zn    Zn3+2 0.484660 0.221940 0.056060 1.017965
Zn4   Zn    Zn3+2 0.515340 0.778060 0.943940 1.017895
Zn5   Zn    Zn3+2 0.015340 0.721940 0.943940 1.017873
Zn6   Zn    Zn3+2 0.984660 0.278060 0.056060 1.017921
Zn7   Zn    Zn3+2 0.984660 0.721940 0.056060 1.017889
Zn8   Zn    Zn3+2 0.015340 0.278060 0.943940 1.017937
Zn9   Zn    Zn3+2 0.428600 0.278000 0.943940 1.066323
Zn10  Zn    Zn3+2 0.571400 0.722000 0.056060 1.066373
Zn11  Zn    Zn3+2 0.571400 0.278000 0.056060 1.066374
Zn12  Zn    Zn3+2 0.428600 0.722000 0.943940 1.066370
Zn13  Zn    Zn3+2 0.928600 0.778000 0.943940 1.066371
Zn14  Zn    Zn3+2 0.071400 0.222000 0.056060 1.066333
Zn15  Zn    Zn3+2 0.071400 0.778000 0.056060 1.066374
Zn16  Zn    Zn3+2 0.928600 0.222000 0.943940 1.066360
C1    C     C_R   0.500000 0.621727 0.999997 -0.234111
C2    C     C_R   0.499999 0.378259 0.999998 -0.233981
C3    C     C_R   0.999999 0.121744 0.000014 -0.234180
C4    C     C_R   0.999999 0.878271 0.000010 -0.234298
O1    O     O_3   0.500000 0.249970 0.000000 -0.526588
O2    O     O_3   0.500000 0.750030 0.000000 -0.526679
O3    O     O_3   0.000000 0.749970 0.000000 -0.526662
O4    O     O_3   0.000000 0.250030 0.000000 -0.526574
O5    O     O_R   0.403840 0.230350 0.039240 -0.602960
O6    O     O_R   0.596160 0.769650 0.960760 -0.603027
O7    O     O_R   0.596160 0.230350 0.960760 -0.603057
O8    O     O_R   0.403840 0.769650 0.039240 -0.603023
O9    O     O_R   0.903840 0.730350 0.039240 -0.603044
O10   O     O_R   0.096160 0.269650 0.960760 -0.603006
O11   O     O_R   0.096160 0.730350 0.960760 -0.603063
O12   O     O_R   0.903840 0.269650 0.039240 -0.603022
O13   O     O_R   0.394820 0.269600 0.850350 -0.597403
O14   O     O_R   0.605180 0.730400 0.149650 -0.597390
O15   O     O_R   0.605180 0.269600 0.149650 -0.597399
O16   O     O_R   0.394820 0.730400 0.850350 -0.597389
O17   O     O_R   0.894820 0.769600 0.850350 -0.597384
O18   O     O_R   0.105180 0.230400 0.149650 -0.597398
O19   O     O_R   0.105180 0.769600 0.149650 -0.597383
O20   O     O_R   0.894820 0.230400 0.850350 -0.597402
C5    C     C_R   0.500000 0.551152 0.999993 -0.106274
C6    C     C_R   0.500000 0.448829 0.999994 -0.106613
C7    C     C_R   0.999990 0.051174 0.000037 -0.106797
C8    C     C_R   0.999992 0.948847 0.000031 -0.106428
O21   O     O_R   0.450030 0.324790 0.960750 -0.583169
O22   O     O_R   0.549970 0.675210 0.039250 -0.582855
O23   O     O_R   0.549970 0.324790 0.039250 -0.583153
O24   O     O_R   0.450030 0.675210 0.960750 -0.582858
O25   O     O_R   0.950030 0.824790 0.960750 -0.582923
O26   O     O_R   0.049970 0.175210 0.039250 -0.583246
O27   O     O_R   0.049970 0.824790 0.039250 -0.582919
O28   O     O_R   0.950030 0.175210 0.960750 -0.583243
O29   O     O_R   0.489260 0.175140 0.039240 -0.645494
O30   O     O_R   0.510740 0.824860 0.960760 -0.645495
O31   O     O_R   0.510740 0.175140 0.960760 -0.645499
O32   O     O_R   0.489260 0.824860 0.039240 -0.645496
O33   O     O_R   0.989260 0.675140 0.039240 -0.645497
O34   O     O_R   0.010740 0.324860 0.960760 -0.645501
O35   O     O_R   0.010740 0.675140 0.960760 -0.645497
O36   O     O_R   0.989260 0.324860 0.039240 -0.645501
O37   O     O_R   0.455530 0.230360 0.850350 -0.623057
O38   O     O_R   0.544470 0.769640 0.149650 -0.622883
O39   O     O_R   0.544470 0.230360 0.149650 -0.623014
O40   O     O_R   0.455530 0.769640 0.850350 -0.622878
O41   O     O_R   0.955530 0.730360 0.850350 -0.622923
O42   O     O_R   0.044470 0.269640 0.149650 -0.623027
O43   O     O_R   0.044470 0.730360 0.149650 -0.622896
O44   O     O_R   0.955530 0.269640 0.850350 -0.623066
O45   O     O_R   0.364600 0.269590 0.960770 -0.639894
O46   O     O_R   0.635400 0.730410 0.039230 -0.639641
O47   O     O_R   0.635400 0.269590 0.039230 -0.639845
O48   O     O_R   0.364600 0.730410 0.960770 -0.639648
O49   O     O_R   0.864600 0.769590 0.960770 -0.639665
O50   O     O_R   0.135400 0.230410 0.039230 -0.639919
O51   O     O_R   0.135400 0.769590 0.039230 -0.639670
O52   O     O_R   0.864600 0.230410 0.960770 -0.639873
C9    C     C_R   0.359687 0.249730 0.999439 0.808263
C10   C     C_R   0.640315 0.750273 0.000567 0.807992
C11   C     C_R   0.640313 0.249730 0.000562 0.808218
C12   C     C_R   0.359684 0.750273 0.999432 0.808007
C13   C     C_R   0.859684 0.749727 0.999432 0.808006
C14   C     C_R   0.140312 0.250269 0.000560 0.808305
C15   C     C_R   0.140316 0.749727 0.000568 0.808027
C16   C     C_R   0.859687 0.250270 0.999438 0.808220
C17   C     C_R   0.409717 0.250511 0.818071 0.868283
C18   C     C_R   0.590281 0.749487 0.181930 0.868203
C19   C     C_R   0.590283 0.250511 0.181929 0.868361
C20   C     C_R   0.409719 0.749486 0.818070 0.868192
C21   C     C_R   0.909718 0.750513 0.818071 0.868193
C22   C     C_R   0.090283 0.249489 0.181928 0.868334
C23   C     C_R   0.090282 0.750513 0.181929 0.868205
C24   C     C_R   0.909717 0.249489 0.818071 0.868390
C25   C     C_R   0.500000 0.341026 1.000000 0.962055
C26   C     C_R   0.500000 0.658969 1.000000 0.961658
C27   C     C_R   1.000000 0.841030 0.000001 0.961796
C28   C     C_R   1.000000 0.158975 0.000002 0.962207
C29   C     C_R   0.500000 0.158945 1.000000 0.783158
C30   C     C_R   0.500000 0.841055 0.000000 0.783183
C31   C     C_R   1.000000 0.658945 1.000000 0.783187
C32   C     C_R   0.000000 0.341055 0.000000 0.783156
C33   C     C_R   0.487460 0.931212 0.042260 -0.135719
C34   C     C_R   0.512542 0.068788 0.957742 -0.135730
C35   C     C_R   0.512539 0.931212 0.957740 -0.135717
C36   C     C_R   0.487457 0.068788 0.042257 -0.135728
C37   C     C_R   0.987458 0.431212 0.042258 -0.135729
C38   C     C_R   0.012540 0.568788 0.957740 -0.135707
C39   C     C_R   0.012543 0.431211 0.957743 -0.135721
C40   C     C_R   0.987461 0.568788 0.042260 -0.135712
H1    H     H_    0.477694 0.944637 0.075147 0.157210
H2    H     H_    0.522311 0.055362 0.924857 0.157213
H3    H     H_    0.522306 0.944637 0.924853 0.157208
H4    H     H_    0.477688 0.055363 0.075142 0.157218
H5    H     H_    0.977689 0.444638 0.075143 0.157213
H6    H     H_    0.022307 0.555362 0.924853 0.157213
H7    H     H_    0.022312 0.444637 0.924858 0.157219
H8    H     H_    0.977694 0.555363 0.075147 0.157210
C41   C     C_R   0.487452 0.896100 0.042318 -0.165267
C42   C     C_R   0.512551 0.103900 0.957685 -0.165270
C43   C     C_R   0.512548 0.896100 0.957683 -0.165266
C44   C     C_R   0.487449 0.103900 0.042315 -0.165259
C45   C     C_R   0.987449 0.396100 0.042316 -0.165269
C46   C     C_R   0.012548 0.603900 0.957683 -0.165263
C47   C     C_R   0.012551 0.396100 0.957685 -0.165261
C48   C     C_R   0.987452 0.603900 0.042318 -0.165263
H9    H     H_    0.477605 0.883016 0.075436 0.178825
H10   H     H_    0.522401 0.116983 0.924569 0.178837
H11   H     H_    0.522395 0.883016 0.924565 0.178824
H12   H     H_    0.477599 0.116984 0.075431 0.178846
H13   H     H_    0.977600 0.383016 0.075432 0.178838
H14   H     H_    0.022396 0.616984 0.924565 0.178825
H15   H     H_    0.022401 0.383016 0.924569 0.178841
H16   H     H_    0.977605 0.616984 0.075435 0.178824
C49   C     C_R   0.500000 0.878181 0.000000 -0.018069
C50   C     C_R   0.500000 0.121819 1.000000 -0.018084
C51   C     C_R   0.000000 0.378181 0.000000 -0.018081
C52   C     C_R   0.000000 0.621819 0.000000 -0.018072
C53   C     C_R   0.500000 0.948793 0.000000 0.136490
C54   C     C_R   0.500000 0.051207 1.000000 0.136482
C55   C     C_R   0.000001 0.448792 0.000001 0.136482
C56   C     C_R   0.000001 0.551207 0.000000 0.136487
C57   C     C_1   0.500000 0.984875 0.000000 -0.025100
C58   C     C_1   0.500000 0.015125 1.000000 -0.025101
C59   C     C_1   0.000001 0.484875 0.000001 -0.025095
C60   C     C_1   0.000001 0.515125 0.000000 -0.025093
C61   C     C_R   0.452717 0.603958 0.943345 0.281263
C62   C     C_R   0.546994 0.396023 0.056872 0.281753
C63   C     C_R   0.547284 0.603957 0.056648 0.281320
C64   C     C_R   0.453003 0.396022 0.943124 0.281611
C65   C     C_R   0.953092 0.103980 0.943076 0.281927
C66   C     C_R   0.047201 0.896038 0.056727 0.281380
C67   C     C_R   0.046902 0.103984 0.056964 0.281640
C68   C     C_R   0.952793 0.896042 0.943303 0.281453
C69   C     C_R   0.581072 0.341097 0.883789 -0.218015
C70   C     C_R   0.419376 0.659165 0.116750 -0.218395
C71   C     C_R   0.418923 0.341102 0.116137 -0.218112
C72   C     C_R   0.580600 0.659178 0.883212 -0.218399
C73   C     C_R   0.080692 0.840874 0.883312 -0.218297
C74   C     C_R   0.918950 0.158917 0.116225 -0.218004
C75   C     C_R   0.919357 0.840844 0.116758 -0.218310
C76   C     C_R   0.081184 0.158825 0.884016 -0.218063
H17   H     H_    0.537111 0.342967 0.835921 0.249565
H18   H     H_    0.463399 0.657408 0.164574 0.249665
H19   H     H_    0.462904 0.342964 0.163986 0.249568
H20   H     H_    0.536576 0.657425 0.835388 0.249667
H21   H     H_    0.036686 0.842653 0.835473 0.249638
H22   H     H_    0.962918 0.157057 0.164087 0.249563
H23   H     H_    0.963369 0.842610 0.164592 0.249652
H24   H     H_    0.037213 0.156927 0.836164 0.249531
C77   C     C_R   0.617320 0.312065 0.899182 0.208691
C78   C     C_R   0.382980 0.688148 0.101197 0.208511
C79   C     C_R   0.382677 0.312069 0.100752 0.208623
C80   C     C_R   0.617003 0.688159 0.898774 0.208511
C81   C     C_R   0.117066 0.811884 0.898838 0.208577
C82   C     C_R   0.882693 0.187947 0.100820 0.208660
C83   C     C_R   0.882967 0.811859 0.101206 0.208552
C84   C     C_R   0.117380 0.187873 0.899337 0.208717
C85   C     C_R   0.674523 0.310023 0.962158 0.008955
C86   C     C_R   0.325710 0.690049 0.038266 0.008830
C87   C     C_R   0.325452 0.310033 0.037798 0.009007
C88   C     C_R   0.674275 0.690054 0.961705 0.008821
C89   C     C_R   0.174317 0.809957 0.961784 0.008856
C90   C     C_R   0.825482 0.189978 0.037851 0.009001
C91   C     C_R   0.825708 0.809949 0.038266 0.008841
C92   C     C_R   0.174596 0.189952 0.962292 0.009060
C93   C     C_R   0.694114 0.337012 0.007415 -0.197710
C94   C     C_R   0.306172 0.662959 0.993244 -0.197629
C95   C     C_R   0.305829 0.337034 0.992562 -0.197644
C96   C     C_R   0.693809 0.662960 0.006716 -0.197644
C97   C     C_R   0.193850 0.837024 0.006857 -0.197712
C98   C     C_R   0.805888 0.162979 0.992614 -0.197740
C99   C     C_R   0.806179 0.837031 0.993226 -0.197701
C100  C     C_R   0.194249 0.162983 0.007602 -0.197744
H25   H     H_    0.738133 0.335380 0.055353 0.217882
H26   H     H_    0.262086 0.664479 0.945357 0.218062
H27   H     H_    0.261789 0.335409 0.944645 0.217904
H28   H     H_    0.737896 0.664475 0.054603 0.218068
H29   H     H_    0.237916 0.835482 0.054762 0.218013
H30   H     H_    0.761861 0.164602 0.944684 0.217892
H31   H     H_    0.762104 0.835504 0.945329 0.218039
H32   H     H_    0.238277 0.164643 0.055525 0.217861
C101  C     C_R   0.658224 0.366219 0.991375 0.227797
C102  C     C_R   0.342200 0.633795 0.009461 0.227854
C103  C     C_R   0.341713 0.366244 0.008600 0.227796
C104  C     C_R   0.657773 0.633798 0.990491 0.227834
C105  C     C_R   0.157839 0.866192 0.990673 0.227806
C106  C     C_R   0.841786 0.133774 0.008668 0.227588
C107  C     C_R   0.842203 0.866196 0.009437 0.227737
C108  C     C_R   0.158411 0.133759 0.991634 0.227795
C109  C     C_R   0.600409 0.368044 0.928817 0.364544
C110  C     C_R   0.400115 0.632129 0.071935 0.364674
C111  C     C_R   0.399557 0.368058 0.071128 0.364585
C112  C     C_R   0.599857 0.632138 0.928017 0.364678
C113  C     C_R   0.099953 0.867890 0.928173 0.364656
C114  C     C_R   0.899612 0.131963 0.071216 0.364596
C115  C     C_R   0.900101 0.867874 0.071928 0.364675
C116  C     C_R   0.100587 0.131896 0.929094 0.364575
C117  C     C_R   0.267323 0.779885 0.981915 0.446070
C118  C     C_R   0.732576 0.220088 0.017893 0.446100
C119  C     C_R   0.732687 0.779882 0.018105 0.446041
C120  C     C_R   0.267448 0.220082 0.982152 0.446058
C121  C     C_R   0.767423 0.279912 0.982105 0.446125
C122  C     C_R   0.232681 0.720115 0.018094 0.445986
C123  C     C_R   0.232554 0.279918 0.017854 0.446000
C124  C     C_R   0.767309 0.720118 0.981888 0.445991
C125  C     C_R   0.303434 0.750325 0.999091 -0.218680
C126  C     C_R   0.696569 0.249677 0.000915 -0.218837
C127  C     C_R   0.696566 0.750325 0.000909 -0.218669
C128  C     C_R   0.303431 0.249678 0.999085 -0.218817
C129  C     C_R   0.803430 0.250322 0.999084 -0.218833
C130  C     C_R   0.196568 0.749674 0.000914 -0.218712
C131  C     C_R   0.196570 0.250321 0.000917 -0.218830
C132  C     C_R   0.803432 0.749674 0.999087 -0.218690
C133  C     C_R   0.286116 0.720601 0.016954 0.023900
C134  C     C_R   0.713997 0.279430 0.983259 0.023805
C135  C     C_R   0.713875 0.720604 0.983028 0.023907
C136  C     C_R   0.285983 0.279437 0.016705 0.023777
C137  C     C_R   0.786002 0.220569 0.016739 0.023793
C138  C     C_R   0.213893 0.779400 0.983063 0.023893
C139  C     C_R   0.214028 0.220560 0.983315 0.023790
C140  C     C_R   0.786118 0.779397 0.016960 0.023898
C141  C     C_R   0.809583 0.219361 0.636828 -0.197427
C142  C     C_R   0.190537 0.780624 0.363178 -0.197412
C143  C     C_R   0.190423 0.219364 0.363174 -0.197427
C144  C     C_R   0.809470 0.780625 0.636823 -0.197409
C145  C     C_R   0.309443 0.719378 0.636820 -0.197407
C146  C     C_R   0.690429 0.280638 0.363174 -0.197425
C147  C     C_R   0.690552 0.719378 0.363180 -0.197405
C148  C     C_R   0.309586 0.280642 0.636829 -0.197416
H33   H     H_    0.788232 0.196529 0.608488 0.184607
H34   H     H_    0.211985 0.803442 0.391520 0.184618
H35   H     H_    0.211778 0.196533 0.391516 0.184613
H36   H     H_    0.788027 0.803444 0.608483 0.184612
H37   H     H_    0.287977 0.696562 0.608478 0.184618
H38   H     H_    0.711793 0.303467 0.391514 0.184613
H39   H     H_    0.712014 0.696562 0.391521 0.184619
H40   H     H_    0.288232 0.303474 0.608490 0.184616
C149  C     C_R   0.846308 0.218319 0.707482 0.310924
C150  C     C_R   0.153818 0.781669 0.292525 0.310684
C151  C     C_R   0.153698 0.218321 0.292520 0.310856
C152  C     C_R   0.846189 0.781670 0.707477 0.310701
C153  C     C_R   0.346159 0.718332 0.707473 0.310660
C154  C     C_R   0.653707 0.281680 0.292519 0.310864
C155  C     C_R   0.653835 0.718332 0.292526 0.310670
C156  C     C_R   0.346308 0.281683 0.707484 0.310873
C157  C     C_R   0.874132 0.248395 0.743891 -0.108923
C158  C     C_R   0.125868 0.751611 0.256112 -0.108820
C159  C     C_R   0.125869 0.248396 0.256110 -0.108896
C160  C     C_R   0.874132 0.751611 0.743888 -0.108834
C161  C     C_R   0.374133 0.748388 0.743887 -0.108817
C162  C     C_R   0.625867 0.251606 0.256110 -0.108902
C163  C     C_R   0.625867 0.748388 0.256112 -0.108824
C164  C     C_R   0.374135 0.251607 0.743891 -0.108905
C165  C     C_R   0.866524 0.278284 0.708554 -0.201878
C166  C     C_R   0.133355 0.721739 0.291448 -0.201389
C167  C     C_R   0.133474 0.278285 0.291445 -0.201796
C168  C     C_R   0.866639 0.721738 0.708551 -0.201419
C169  C     C_R   0.366672 0.778256 0.708551 -0.201332
C170  C     C_R   0.633459 0.221720 0.291446 -0.201791
C171  C     C_R   0.633334 0.778257 0.291449 -0.201353
C172  C     C_R   0.366532 0.221720 0.708552 -0.201798
H41   H     H_    0.887538 0.301488 0.735394 0.176611
H42   H     H_    0.112248 0.698547 0.264609 0.176704
H43   H     H_    0.112457 0.301489 0.264604 0.176612
H44   H     H_    0.887741 0.698545 0.735390 0.176700
H45   H     H_    0.387797 0.801445 0.735389 0.176722
H46   H     H_    0.612433 0.198517 0.264606 0.176623
H47   H     H_    0.612213 0.801447 0.264610 0.176719
H48   H     H_    0.387548 0.198515 0.735391 0.176614
C173  C     C_R   0.830666 0.278760 0.638332 -0.123518
C174  C     C_R   0.169211 0.721260 0.361669 -0.123597
C175  C     C_R   0.169333 0.278763 0.361667 -0.123524
C176  C     C_R   0.830783 0.721259 0.638330 -0.123593
C177  C     C_R   0.330819 0.778735 0.638329 -0.123614
C178  C     C_R   0.669315 0.221243 0.361668 -0.123531
C179  C     C_R   0.669188 0.778737 0.361670 -0.123611
C180  C     C_R   0.330676 0.221244 0.638330 -0.123525
H49   H     H_    0.825093 0.302087 0.611979 0.161158
H50   H     H_    0.174690 0.697945 0.388021 0.161171
H51   H     H_    0.174903 0.302090 0.388019 0.161158
H52   H     H_    0.825299 0.697944 0.611977 0.161170
H53   H     H_    0.325360 0.802046 0.611978 0.161173
H54   H     H_    0.674875 0.197917 0.388021 0.161159
H55   H     H_    0.674651 0.802049 0.388022 0.161172
H56   H     H_    0.325107 0.197917 0.611976 0.161157
C181  C     C_R   0.801937 0.249381 0.602510 0.079365
C182  C     C_R   0.198060 0.750620 0.397493 0.079350
C183  C     C_R   0.198065 0.249384 0.397491 0.079364
C184  C     C_R   0.801940 0.750621 0.602508 0.079354
C185  C     C_R   0.301947 0.749378 0.602506 0.079349
C186  C     C_R   0.698058 0.250620 0.397491 0.079361
C187  C     C_R   0.698054 0.749379 0.397494 0.079348
C188  C     C_R   0.301945 0.250623 0.602510 0.079361
C189  C     C_1   0.765327 0.249841 0.530285 0.002983
C190  C     C_1   0.234673 0.750158 0.469716 0.003008
C191  C     C_1   0.234676 0.249845 0.469716 0.002986
C192  C     C_1   0.765328 0.750160 0.530284 0.003006
C193  C     C_1   0.265335 0.749840 0.530283 0.003011
C194  C     C_1   0.734667 0.250159 0.469716 0.002986
C195  C     C_1   0.734665 0.749841 0.469717 0.003009
C196  C     C_1   0.265336 0.250164 0.530284 0.002986
C197  C     C_1   0.500000 0.515072 0.999992 0.270562
C198  C     C_1   0.500000 0.484909 0.999993 0.270514
C199  C     C_1   0.999990 0.015092 0.000041 0.270527
C200  C     C_1   0.999991 0.984928 0.000039 0.270577
C201  C     C_R   0.450906 0.568420 0.945379 0.299432
C202  C     C_R   0.548832 0.431561 0.054883 0.299756
C203  C     C_R   0.549095 0.568419 0.054609 0.299465
C204  C     C_R   0.451166 0.431560 0.945108 0.299676
C205  C     C_R   0.951242 0.068441 0.945058 0.300085
C206  C     C_R   0.049016 0.931577 0.054716 0.299569
C207  C     C_R   0.048742 0.068445 0.055006 0.299716
C208  C     C_R   0.950972 0.931580 0.945335 0.299608
O53   O     O_3   0.410093 0.621756 0.886394 -0.641602
H57   H     H_    0.395336 0.607407 0.846234 0.387890
O54   O     O_3   0.589283 0.378215 0.113982 -0.641628
H58   H     H_    0.603684 0.392553 0.154083 0.387823
O55   O     O_3   0.589908 0.621754 0.113600 -0.641620
H59   H     H_    0.604672 0.607403 0.153758 0.387883
O56   O     O_3   0.410711 0.378213 0.886017 -0.641722
H60   H     H_    0.396312 0.392549 0.845913 0.387836
O57   O     O_3   0.910911 0.121788 0.885910 -0.641707
H61   H     H_    0.896635 0.107453 0.845830 0.387739
O58   O     O_3   0.089735 0.878235 0.113717 -0.641508
H62   H     H_    0.104378 0.892575 0.153865 0.387888
O59   O     O_3   0.089089 0.121800 0.114115 -0.641599
H63   H     H_    0.103378 0.107470 0.154209 0.387827
O60   O     O_3   0.910263 0.878244 0.886303 -0.641578
H64   H     H_    0.895605 0.892593 0.846163 0.387857
O61   O     O_3   0.281305 0.809350 0.961849 -0.730437
H65   H     H_    0.312663 0.805138 0.951144 0.330427
O62   O     O_3   0.718495 0.190595 0.037777 -0.730376
H66   H     H_    0.687274 0.194819 0.048684 0.330451
O63   O     O_3   0.718715 0.809345 0.038191 -0.730448
H67   H     H_    0.687344 0.805132 0.048878 0.330424
O64   O     O_3   0.281556 0.190582 0.962313 -0.730352
H68   H     H_    0.312725 0.194814 0.951333 0.330438
O65   O     O_3   0.781505 0.309405 0.962223 -0.730365
H69   H     H_    0.812722 0.305180 0.951311 0.330445
O66   O     O_3   0.218701 0.690650 0.038164 -0.730469
H70   H     H_    0.187333 0.694862 0.048856 0.330436
O67   O     O_3   0.218450 0.309417 0.037697 -0.730385
H71   H     H_    0.187269 0.305186 0.048661 0.330450
O68   O     O_3   0.781281 0.690656 0.961800 -0.730469
H72   H     H_    0.812657 0.694868 0.951120 0.330427
N1    N     N_R   0.857088 0.186476 0.740841 0.229225
O69   O     O_R   0.813567 0.163908 0.716053 -0.336054
O70   O     O_R   0.912793 0.177878 0.788986 -0.349476
N2    N     N_R   0.143182 0.813504 0.259175 0.229229
O71   O     O_R   0.186818 0.836004 0.283951 -0.335994
O72   O     O_R   0.087510 0.822174 0.211065 -0.349878
N3    N     N_R   0.142923 0.186477 0.259163 0.229232
O73   O     O_R   0.186445 0.163909 0.283959 -0.335996
O74   O     O_R   0.087221 0.177879 0.211013 -0.349611
N4    N     N_R   0.856829 0.813505 0.740828 0.229221
O75   O     O_R   0.813193 0.836006 0.716058 -0.336014
O76   O     O_R   0.912502 0.822173 0.788936 -0.349829
N5    N     N_R   0.356765 0.686500 0.740822 0.229223
O77   O     O_R   0.313104 0.664014 0.716050 -0.336014
O78   O     O_R   0.412429 0.677814 0.788924 -0.349883
N6    N     N_R   0.642948 0.313522 0.259162 0.229231
O79   O     O_R   0.686483 0.336082 0.283956 -0.336013
O80   O     O_R   0.587250 0.322128 0.211014 -0.349588
N7    N     N_R   0.643224 0.686499 0.259177 0.229223
O81   O     O_R   0.686879 0.664010 0.283951 -0.336026
O82   O     O_R   0.587558 0.677817 0.211072 -0.349869
N8    N     N_R   0.357080 0.313526 0.740844 0.229225
O83   O     O_R   0.313557 0.336093 0.716047 -0.336048
O84   O     O_R   0.412780 0.322124 0.788999 -0.349630
O85   O     O_3   0.402072 0.549918 0.895022 -0.678545
H73   H     H_    0.364268 0.563945 0.873452 0.388504
O86   O     O_3   0.597434 0.450064 0.105542 -0.678636
H74   H     H_    0.635244 0.436032 0.127496 0.388263
O87   O     O_3   0.597929 0.549917 0.104964 -0.678554
H75   H     H_    0.635734 0.563943 0.126529 0.388498
O88   O     O_3   0.402563 0.450062 0.894448 -0.678635
H76   H     H_    0.364754 0.436030 0.872497 0.388220
O89   O     O_3   0.902712 0.049938 0.894304 -0.678667
H77   H     H_    0.864905 0.063974 0.872202 0.388120
O90   O     O_3   0.097783 0.950077 0.105164 -0.678561
H78   H     H_    0.135588 0.936049 0.126847 0.388443
O91   O     O_3   0.097268 0.049944 0.105771 -0.678627
H79   H     H_    0.135082 0.063976 0.127854 0.388095
O92   O     O_3   0.902201 0.950083 0.894898 -0.678571
H80   H     H_    0.864397 0.936054 0.873218 0.388423
O93   O     O_3   0.560977 0.395182 0.909667 -0.705353
H81   H     H_    0.573220 0.409128 0.949560 0.355198
O94   O     O_3   0.439711 0.605061 0.091202 -0.704692
H82   H     H_    0.427521 0.591075 0.051372 0.355069
O95   O     O_3   0.438987 0.395196 0.090269 -0.705374
H83   H     H_    0.426732 0.409142 0.050371 0.355196
O96   O     O_3   0.560253 0.605073 0.908743 -0.704670
H84   H     H_    0.572438 0.591086 0.948570 0.355057
O97   O     O_3   0.060382 0.894969 0.908925 -0.704821
H85   H     H_    0.072578 0.908948 0.948766 0.355090
O98   O     O_3   0.939050 0.104827 0.090375 -0.705337
H86   H     H_    0.926821 0.090885 0.050480 0.355159
O99   O     O_3   0.939688 0.894946 0.091196 -0.704749
H87   H     H_    0.927505 0.908928 0.051362 0.355058
O100  O     O_3   0.061210 0.104736 0.910006 -0.705596
H88   H     H_    0.073490 0.090807 0.949929 0.355240
N9    N     N_R   0.595258 0.285175 0.850607 0.224792
O101  O     O_R   0.633660 0.266308 0.845617 -0.355596
O102  O     O_R   0.536236 0.281312 0.806894 -0.364660
N10   N     N_R   0.404961 0.715130 0.149567 0.224921
O103  O     O_R   0.366505 0.733984 0.154486 -0.355382
O104  O     O_R   0.463975 0.719092 0.193188 -0.365134
N11   N     N_R   0.404763 0.285173 0.149314 0.224755
O105  O     O_R   0.366379 0.266314 0.154352 -0.355617
O106  O     O_R   0.463792 0.281299 0.192976 -0.364716
N12   N     N_R   0.595027 0.715145 0.850414 0.224928
O107  O     O_R   0.633486 0.734000 0.845502 -0.355366
O108  O     O_R   0.536014 0.719111 0.806793 -0.365152
N13   N     N_R   0.095081 0.784920 0.850430 0.224914
O109  O     O_R   0.133535 0.766064 0.845510 -0.355379
O110  O     O_R   0.036068 0.780974 0.806783 -0.365042
N14   N     N_R   0.904755 0.214845 0.149376 0.224783
O111  O     O_R   0.866354 0.233706 0.154379 -0.355588
O112  O     O_R   0.963778 0.218722 0.193061 -0.364687
N15   N     N_R   0.904945 0.784882 0.149586 0.224922
O113  O     O_R   0.866487 0.766026 0.154498 -0.355364
O114  O     O_R   0.963958 0.780924 0.193219 -0.365086
N16   N     N_R   0.095252 0.214741 0.850712 0.224727
O115  O     O_R   0.133607 0.233613 0.845648 -0.355613
O116  O     O_R   0.036219 0.218578 0.807029 -0.364625
N17   N     N_R   0.681829 0.393791 0.038137 0.202951
O117  O     O_R   0.680440 0.424200 0.017131 -0.330546
O118  O     O_R   0.713623 0.387959 0.102650 -0.329096
N18   N     N_R   0.318627 0.606103 0.962983 0.202972
O119  O     O_R   0.320442 0.575732 0.984373 -0.330673
O120  O     O_R   0.286457 0.611769 0.898405 -0.329688
N19   N     N_R   0.318070 0.393831 0.961875 0.203015
O121  O     O_R   0.319527 0.424235 0.982942 -0.330462
O122  O     O_R   0.286186 0.388021 0.897353 -0.329153
N20   N     N_R   0.681341 0.606101 0.036957 0.202969
O123  O     O_R   0.679512 0.575732 0.015554 -0.330690
O124  O     O_R   0.713521 0.611761 0.101537 -0.329714
N21   N     N_R   0.181397 0.893856 0.037218 0.202963
O125  O     O_R   0.179691 0.924236 0.015926 -0.330703
O126  O     O_R   0.213452 0.888150 0.101781 -0.329494
N22   N     N_R   0.818177 0.106190 0.961937 0.203033
O127  O     O_R   0.819623 0.075784 0.982985 -0.330429
O128  O     O_R   0.786341 0.112003 0.897416 -0.329031
N23   N     N_R   0.818644 0.893878 0.962935 0.202978
O129  O     O_R   0.820415 0.924253 0.984286 -0.330653
O130  O     O_R   0.786530 0.888197 0.898363 -0.329585
N24   N     N_R   0.182077 0.106210 0.038449 0.203043
O131  O     O_R   0.180733 0.075794 0.017500 -0.330464
O132  O     O_R   0.213872 0.112073 0.102952 -0.328907

loop_
_geom_bond_atom_site_label_1
_geom_bond_atom_site_label_2
_geom_bond_distance
_ccdc_geom_bond_type
C89   C138  1.487973 S    
C141  C181  1.397123 A    
C14   C131  1.450542 S    
O65   H69   0.988161 S    
Zn7   O9    1.930473 S    
C121  C134  1.397232 A    
C100  C108  1.403377 A    
N21   O125  1.301358 A    
Zn6   O12   1.930473 S    
C110  O94   1.379969 S    
C166  H42   1.083398 S    
C154  N6    1.437786 S    
N11   O105  1.301153 A    
C41   C49   1.406767 A    
O55   H59   0.990377 S    
C189  C194  1.202105 T    
C147  C187  1.397096 A    
O53   H57   0.990386 S    
O41   C21   1.280093 A    
C148  C188  1.397124 A    
C150  N2    1.437777 S    
C113  O97   1.379968 S    
C78   C86   1.415960 A    
C78   N10   1.441334 S    
C35   C53   1.398717 A    
C145  C185  1.397093 A    
Zn7   O33   1.921458 S    
C97   H29   1.083820 S    
C59   C60   1.203424 T    
C153  N5    1.437777 S    
C94   C102  1.403406 A    
C77   C85   1.415962 A    
C149  N1    1.437780 S    
C98   C106  1.403385 A    
C149  C157  1.419261 A    
Zn2   O2    1.936207 S    
Zn15  O27   1.920675 S    
C12   C125  1.450542 S    
C108  C116  1.418279 A    
C63   C203  1.416298 A    
C32   C51   1.477005 S    
C106  C114  1.418270 A    
C163  C171  1.405287 A    
C118  O62   1.385768 S    
C142  C150  1.403127 A    
C152  N4    1.437771 S    
C165  C173  1.393818 A    
C40   C48   1.396867 A    
O49   C13   1.268878 A    
N2    O71   1.301319 A    
C115  O99   1.379965 S    
N23   O129  1.301364 A    
C182  C190  1.433470 S    
C65   C205  1.416308 A    
O34   C32   1.281689 A    
C33   C53   1.398715 A    
C145  H37   1.084019 S    
C69   H17   1.082934 S    
O10   C14   1.268185 A    
N8    O84   1.301403 A    
C67   O59   1.381978 S    
C111  O95   1.379973 S    
Zn14  O18   1.918190 S    
C116  O100  1.379974 S    
O64   H68   0.988179 S    
C159  C167  1.405268 A    
C104  C112  1.418289 A    
O23   C25   1.278894 A    
C104  N20   1.436865 S    
C45   C51   1.406764 A    
Zn15  O19   1.918192 S    
O37   C17   1.280058 A    
Zn16  O20   1.918194 S    
C7    C199  1.435448 S    
Zn13  O49   1.933008 S    
C156  N8    1.437788 S    
O85   H73   0.990390 S    
C72   C80   1.403949 A    
N7    O81   1.301313 A    
N14   O111  1.301129 A    
C83   C91   1.415952 A    
C121  O65   1.385767 S    
C84   C92   1.415968 A    
C68   C208  1.416320 A    
C79   C87   1.415969 A    
O36   C32   1.281691 A    
C103  N19   1.436813 S    
C15   C130  1.450542 S    
O87   H75   0.990385 S    
O18   C22   1.278795 A    
O26   C28   1.278874 A    
C21   C160  1.473524 S    
C173  H49   1.083608 S    
N18   O119  1.301360 A    
C144  C184  1.397097 A    
C22   C159  1.473495 S    
C33   C41   1.396871 A    
C70   C110  1.398230 A    
C151  N3    1.437782 S    
O93   H81   0.987668 S    
Zn9   O1    1.931476 S    
Zn14  O26   1.920678 S    
C171  C179  1.393808 A    
Zn11  O15   1.918192 S    
O44   C24   1.280056 A    
C106  N22   1.436807 S    
C31   C52   1.477005 S    
C76   H24   1.082944 S    
N17   O117  1.301399 A    
C112  O96   1.379967 S    
N12   O108  1.301612 A    
O54   H58   0.990424 S    
C86   C94   1.402238 A    
C20   C161  1.473537 S    
C9    C128  1.450543 S    
N24   O131  1.301396 A    
O66   H70   0.988129 S    
C90   C98   1.402248 A    
O95   H83   0.987679 S    
N1    O69   1.301317 A    
C173  C181  1.395852 A    
C118  C126  1.415676 A    
C147  C155  1.403127 A    
O27   C27   1.278970 A    
N6    O79   1.301319 A    
C148  C156  1.403157 A    
N9    O101  1.301133 A    
O45   C9    1.268869 A    
O100  H88   0.987678 S    
C144  C152  1.403129 A    
C81   N13   1.441336 S    
C40   H8    1.083567 S    
O21   C25   1.278886 A    
C82   C90   1.415957 A    
O47   C11   1.268866 A    
O91   H79   0.990489 S    
C181  C189  1.433508 S    
C203  O87   1.382172 S    
C72   C112  1.398230 A    
C207  O91   1.382284 S    
O38   C18   1.280100 A    
C70   C78   1.403947 A    
C191  C196  1.202105 T    
O6    C10   1.268160 A    
C192  C195  1.202083 T    
Zn14  O50   1.933011 S    
C17   C164  1.473493 S    
C37   H5    1.083568 S    
C124  C135  1.397263 A    
C18   C163  1.473535 S    
C95   H27   1.083827 S    
N15   O114  1.301608 A    
C117  O61   1.385782 S    
C8    C200  1.435416 S    
O90   H78   0.990391 S    
O33   C31   1.281689 A    
Zn12  O2    1.931472 S    
C48   H16   1.082925 S    
Zn14  O4    1.931473 S    
O13   C17   1.278796 A    
N4    O75   1.301332 A    
C64   C204  1.416289 A    
C63   O55   1.381918 S    
O15   C19   1.278799 A    
C204  O88   1.382226 S    
C208  O92   1.382184 S    
C75   H23   1.082904 S    
C142  C182  1.397096 A    
O22   C26   1.278986 A    
C3    C67   1.414160 A    
C61   C201  1.416293 A    
N20   O123  1.301356 A    
C152  C160  1.419296 A    
C167  H43   1.083402 S    
C153  C161  1.419304 A    
C42   C50   1.406765 A    
C155  C163  1.419300 A    
C164  C172  1.405268 A    
C38   C46   1.396867 A    
C101  C109  1.418278 A    
C74   C82   1.403958 A    
C146  C186  1.397121 A    
C174  C182  1.395841 A    
C75   C115  1.398234 A    
C108  N24   1.436804 S    
C73   H21   1.082903 S    
C6    C198  1.435380 S    
C100  H32   1.083831 S    
C168  H44   1.083405 S    
C71   H19   1.082935 S    
C169  H45   1.083395 S    
C96   C104  1.403404 A    
C47   C51   1.406767 A    
C171  H47   1.083394 S    
C172  C180  1.393816 A    
C91   C140  1.487982 S    
Zn4   O2    1.936211 S    
Zn5   O3    1.936205 S    
Zn6   O4    1.936207 S    
C160  C168  1.405280 A    
C92   C100  1.402257 A    
C161  C169  1.405289 A    
C99   C107  1.403398 A    
O25   C27   1.278974 A    
C166  C174  1.393805 A    
C109  O93   1.379981 S    
C157  C165  1.405266 A    
N10   O103  1.301124 A    
C145  C153  1.403125 A    
C197  C198  1.200018 T    
Zn4   O30   1.921457 S    
C107  N23   1.436852 S    
C183  C191  1.433507 S    
C177  H53   1.083609 S    
C150  C158  1.419298 A    
C179  H55   1.083607 S    
C10   C127  1.450540 S    
C180  H56   1.083605 S    
C201  O85   1.382175 S    
Zn16  O52   1.933006 S    
C70   H18   1.082905 S    
C101  N17   1.436797 S    
N16   O116  1.301619 A    
C87   C136  1.488013 S    
C85   C134  1.487970 S    
C74   C114  1.398237 A    
C126  C134  1.409553 A    
O29   C29   1.281689 A    
C155  N7    1.437781 S    
Zn1   O31   1.921460 S    
O48   C12   1.268878 A    
Zn2   O32   1.921461 S    
O89   H77   0.990444 S    
Zn3   O29   1.921458 S    
Zn7   O3    1.936212 S    
O35   C31   1.281691 A    
C3    C65   1.414138 A    
C124  O68   1.385785 S    
C4    C66   1.414264 A    
C122  O66   1.385785 S    
C65   O57   1.381967 S    
C7    C207  1.400135 A    
N5    O78   1.301399 A    
C130  C138  1.409537 A    
C123  C136  1.397239 A    
C66   C206  1.416313 A    
Zn7   O43   1.915938 S    
N19   O121  1.301397 A    
C125  C133  1.409549 A    
C122  C130  1.415693 A    
C73   C81   1.403947 A    
C2    C25   1.481262 S    
C5    C197  1.435364 S    
C36   C44   1.396871 A    
N16   O115  1.301142 A    
C41   H9    1.082919 S    
C90   C137  1.487977 S    
C117  C125  1.415683 A    
C77   N9    1.441329 S    
C206  O90   1.382190 S    
Zn9   O21   1.920674 S    
O97   H85   0.987690 S    
N1    O70   1.301401 A    
Zn11  O23   1.920675 S    
C174  H50   1.083610 S    
C39   C47   1.396867 A    
Zn12  O24   1.920679 S    
O52   C16   1.268867 A    
C6    C204  1.400051 A    
O63   H67   0.988131 S    
O42   C22   1.280057 A    
Zn10  O2    1.931473 S    
C8    C206  1.399975 A    
C30   C49   1.477005 S    
O61   H65   0.988128 S    
Zn9   O45   1.933008 S    
C19   C162  1.473498 S    
Zn11  O47   1.933011 S    
C87   C95   1.402257 A    
C33   H1    1.083566 S    
N3    O73   1.301319 A    
C76   C116  1.398256 A    
C95   C103  1.403396 A    
C85   C93   1.402237 A    
C120  C128  1.415671 A    
C35   H3    1.083567 S    
C93   C101  1.403382 A    
C96   H28   1.083819 S    
C88   C96   1.402239 A    
Zn8   O34   1.921457 S    
C89   C97   1.402231 A    
O62   H66   0.988161 S    
C120  O64   1.385767 S    
N14   O112  1.301612 A    
N13   O110  1.301610 A    
C187  C195  1.433472 S    
O68   H72   0.988132 S    
C188  C196  1.433508 S    
C84   N16   1.441323 S    
C11   C126  1.450538 S    
C146  C154  1.403153 A    
C177  C185  1.395840 A    
Zn8   O10   1.930476 S    
C80   C88   1.415961 A    
C190  C193  1.202081 T    
C56   C60   1.435488 S    
Zn12  O48   1.933006 S    
C81   C89   1.415949 A    
C156  C164  1.419271 A    
Zn9   O13   1.918192 S    
N21   O126  1.301300 A    
O50   C14   1.268863 A    
C102  N18   1.436861 S    
C123  C131  1.415681 A    
O12   C16   1.268178 A    
C48   C52   1.406763 A    
C142  H34   1.084018 S    
Zn3   O5    1.930473 S    
C54   C58   1.435488 S    
C93   H25   1.083829 S    
O60   H64   0.990385 S    
C123  O67   1.385769 S    
O16   C20   1.278783 A    
C199  C200  1.200054 T    
C91   C99   1.402239 A    
C62   O54   1.381936 S    
N18   O120  1.301300 A    
C119  C140  1.397256 A    
C7    C205  1.400131 A    
C1    C61   1.414299 A    
N15   O113  1.301123 A    
C172  H48   1.083402 S    
O9    C13   1.268164 A    
C154  C162  1.419273 A    
N11   O106  1.301618 A    
C38   C56   1.398715 A    
O56   H60   0.990425 S    
O31   C29   1.281691 A    
C107  C115  1.418283 A    
C141  H33   1.084015 S    
C143  C151  1.403154 A    
C16   C129  1.450539 S    
C24   C157  1.473488 S    
Zn10  O46   1.933011 S    
O24   C26   1.278983 A    
N24   O132  1.301285 A    
C175  C183  1.395852 A    
C34   H2    1.083567 S    
C6    C202  1.400053 A    
C74   H22   1.082925 S    
N6    O80   1.301403 A    
C8    C208  1.399977 A    
C53   C57   1.435488 S    
N23   O130  1.301297 A    
C170  H46   1.083402 S    
C47   H15   1.082922 S    
Zn16  O28   1.920679 S    
C45   H13   1.082922 S    
Zn1   O37   1.915942 S    
Zn4   O6    1.930476 S    
O88   H76   0.990412 S    
C44   H12   1.082923 S    
Zn3   O39   1.915938 S    
C146  H38   1.084017 S    
Zn4   O40   1.915940 S    
O7    C11   1.268171 A    
O17   C21   1.278780 A    
C165  H41   1.083402 S    
C162  C170  1.405271 A    
C143  H35   1.084019 S    
C61   O53   1.381919 S    
N8    O83   1.301320 A    
C167  C175  1.393818 A    
C119  O63   1.385785 S    
C69   C109  1.398246 A    
O51   C15   1.268874 A    
C158  C166  1.405285 A    
C80   N12   1.441330 S    
N4    O76   1.301406 A    
C178  H54   1.083610 S    
C151  C159  1.419268 A    
C4    C68   1.414255 A    
N22   O127  1.301381 A    
C121  C129  1.415674 A    
O96   H84   0.987690 S    
N20   O124  1.301301 A    
C97   C105  1.403381 A    
C118  C137  1.397236 A    
C119  C127  1.415685 A    
O40   C20   1.280100 A    
C67   C207  1.416289 A    
N19   O122  1.301284 A    
C170  C178  1.393815 A    
O58   H62   0.990392 S    
C122  C133  1.397264 A    
Zn1   O1    1.936205 S    
O46   C10   1.268881 A    
C69   C77   1.403969 A    
C114  O98   1.379970 S    
O92   H80   0.990387 S    
O32   C30   1.281689 A    
O99   H87   0.987695 S    
O86   H74   0.990413 S    
C205  O89   1.382271 S    
O57   H61   0.990481 S    
Zn13  O3    1.931476 S    
C103  C111  1.418284 A    
C43   C49   1.406765 A    
C141  C149  1.403152 A    
C38   H6    1.083569 S    
O5    C9    1.268178 A    
C83   N15   1.441334 S    
C1    C63   1.414296 A    
C99   H31   1.083820 S    
C2    C64   1.414164 A    
C124  C132  1.415693 A    
C34   C54   1.398716 A    
C37   C55   1.398718 A    
C82   N14   1.441325 S    
C131  C139  1.409573 A    
O11   C15   1.268162 A    
C5    C201  1.399941 A    
O14   C18   1.278780 A    
C64   O56   1.381936 S    
N17   O118  1.301284 A    
C79   N11   1.441313 S    
N12   O107  1.301133 A    
C184  C192  1.433472 S    
Zn8   O4    1.936211 S    
C36   H4    1.083570 S    
C179  C187  1.395835 A    
C88   C135  1.487998 S    
N3    O74   1.301401 A    
C13   C132  1.450544 S    
C62   C202  1.416289 A    
O94   H82   0.987689 S    
C105  C113  1.418278 A    
C120  C139  1.397228 A    
Zn12  O16   1.918194 S    
C23   C158  1.473525 S    
C175  H51   1.083609 S    
C92   C139  1.487995 S    
C44   C50   1.406767 A    
C176  C184  1.395842 A    
C98   H30   1.083825 S    
N10   O104  1.301611 A    
N9    O102  1.301618 A    
C75   C83   1.403947 A    
C39   C55   1.398717 A    
C76   C84   1.403976 A    
C55   C59   1.435488 S    
C29   C50   1.477005 S    
C102  C110  1.418290 A    
O43   C23   1.280096 A    
Zn5   O35   1.921460 S    
Zn6   O36   1.921461 S    
Zn5   O41   1.915942 S    
C40   C56   1.398718 A    
C186  C194  1.433507 S    
C180  C188  1.395854 A    
C185  C193  1.433470 S    
C143  C183  1.397121 A    
C105  N21   1.436834 S    
N7    O82   1.301397 A    
Zn10  O22   1.920678 S    
N2    O72   1.301400 A    
O98   H86   0.987683 S    
C178  C186  1.395851 A    
C147  H39   1.084018 S    
C46   C52   1.406768 A    
C94   H26   1.083819 S    
C37   C45   1.396871 A    
Zn10  O14   1.918190 S    
O20   C24   1.278798 A    
C39   H7    1.083568 S    
N5    O77   1.301319 A    
Zn13  O25   1.920674 S    
C4    C27   1.481569 S    
Zn8   O44   1.915940 S    
Zn3   O1    1.936212 S    
Zn11  O1    1.931473 S    
C132  C140  1.409542 A    
Zn15  O51   1.933011 S    
C144  H36   1.084018 S    
O39   C19   1.280061 A    
Zn13  O17   1.918192 S    
O19   C23   1.278783 A    
C35   C43   1.396871 A    
N22   O128  1.301287 A    
C2    C62   1.414159 A    
C34   C42   1.396871 A    
C86   C133  1.487996 S    
C148  H40   1.084018 S    
C127  C135  1.409551 A    
O67   H71   0.988176 S    
C73   C113  1.398243 A    
C5    C203  1.399941 A    
C71   C111  1.398239 A    
C57   C58   1.203424 T    
C202  O86   1.382226 S    
Zn15  O3    1.931473 S    
C36   C54   1.398716 A    
O28   C28   1.278885 A    
C66   O58   1.381913 S    
O8    C12   1.268162 A    
C128  C136  1.409576 A    
C176  H52   1.083608 S    
C168  C176  1.393806 A    
C68   O60   1.381917 S    
C71   C79   1.403965 A    
Zn6   O42   1.915940 S    
C169  C177  1.393806 A    
C72   H20   1.082905 S    
Zn16  O4    1.931472 S    
N13   O109  1.301113 A    
Zn1   O7    1.930478 S    
O30   C30   1.281691 A    
Zn2   O8    1.930473 S    
C1    C26   1.481612 S    
C42   H10   1.082922 S    
O59   H63   0.990544 S    
C129  C137  1.409562 A    
C117  C138  1.397250 A    
C46   H14   1.082923 S    
C3    C28   1.481179 S    
Zn2   O38   1.915940 S    
C43   H11   1.082920 S    
Zn5   O11   1.930478 S    
