data_mof_unit_pretest_667.cif
_audit_creation_date              2012-12-10T18:42:30-0500
_audit_creation_method            fapswitch 2.2
_symmetry_space_group_name_H-M    P1
_symmetry_Int_Tables_number       1
_space_group_crystal_system       triclinic
_cell_length_a                    8.618493
_cell_length_b                    10.651926
_cell_length_c                    9.854253
_cell_angle_alpha                 90.426967
_cell_angle_beta                  98.845521
_cell_angle_gamma                 90.381065
_cell_volume                      893.843258913

loop_
_atom_site_label
_atom_site_type_symbol
_atom_type_description
_atom_site_fract_x
_atom_site_fract_y
_atom_site_fract_z
_atom_type_partial_charge
C1    C     C_R   0.502709 0.260172 0.499917 0.888913
C2    C     C_R   0.402644 0.066540 0.574420 -0.275285
C3    C     C_R   0.495534 0.872034 0.499400 -0.089904
C4    C     C_R   0.505403 0.127631 0.499851 -0.124788
C5    C     C_R   0.585815 0.586767 0.084600 -0.149872
C6    C     C_R   0.419237 0.410442 0.916230 -0.182384
C7    C     C_R   0.585277 0.587789 0.940250 0.272814
C8    C     C_R   0.416526 0.411170 0.060037 0.280969
C9    C     C_2   0.964069 0.465168 0.291312 0.452499
C10   C     C_2   0.027872 0.394040 0.680862 0.421069
C11   C     C_3   0.797034 0.063993 0.258086 -0.740824
C12   C     C_R   0.497704 0.739701 0.500065 0.906206
C13   C     C_3   0.143451 0.831805 0.555509 -0.776927
C14   C     C_3   0.639109 0.805754 0.897957 -0.775703
C15   C     C_3   0.169332 0.302155 0.065398 -0.773456
C16   C     C_R   0.201808 0.488143 0.463545 0.888839
C17   C     C_R   0.798206 0.488435 0.534775 0.833721
C18   C     C_2   0.037230 0.463951 0.439295 -0.211283
C19   C     C_2   0.959220 0.452030 0.548555 -0.234404
C20   C     C_R   0.605347 0.062634 0.424052 0.204761
C21   C     C_R   0.394637 0.937489 0.572918 0.205840
C22   C     C_R   0.598456 0.932727 0.424836 -0.270139
H1    H     H_    0.675567 0.877437 0.371506 0.158534
H2    H     H_    0.712881 0.011333 0.181288 0.228852
H3    H     H_    0.259466 0.922179 0.728559 0.223369
H4    H     H_    0.074560 0.913631 0.511379 0.237320
H5    H     H_    0.070191 0.775966 0.616697 0.231475
H6    H     H_    0.172614 0.771231 0.470921 0.224125
H7    H     H_    0.798365 0.660083 0.910979 0.200903
H8    H     H_    0.671997 0.836594 0.006509 0.205209
H9    H     H_    0.511209 0.819347 0.865613 0.259033
H10   H     H_    0.703400 0.865035 0.832524 0.243849
H11   H     H_    0.392294 0.231403 0.126964 0.235246
H12   H     H_    0.325219 0.119433 0.630044 0.200833
H13   H     H_    0.111512 0.395237 0.055558 0.243539
H14   H     H_    0.111447 0.243647 0.136061 0.261070
H15   H     H_    0.154314 0.254605 0.963552 0.239330
H16   H     H_    0.655675 0.654723 0.150071 0.137973
H17   H     H_    0.359047 0.337136 0.852351 0.200638
H18   H     H_    0.995141 0.538452 0.224122 0.034937
H19   H     H_    0.994077 0.426347 0.776794 0.066082
H20   H     H_    0.778412 0.198599 0.411489 0.254962
H21   H     H_    0.884882 0.999401 0.313758 0.215201
H22   H     H_    0.859839 0.132905 0.202011 0.272498
N1    N     N_R   0.499960 0.499970 0.857200 -0.108059
N2    N     N_R   0.500040 0.500030 0.142800 -0.092266
N3    N     N_2   0.713951 0.129445 0.353988 -0.267522
N4    N     N_2   0.284543 0.874344 0.643196 -0.293585
N5    N     N_2   0.679965 0.675536 0.881922 -0.260193
N6    N     N_2   0.334148 0.315965 0.120232 -0.262730
O1    O     O_R   0.499990 0.316750 0.614620 -0.616671
O2    O     O_2   0.114857 0.303995 0.681803 -0.613023
O3    O     O_R   0.500010 0.683250 0.385380 -0.642243
O4    O     O_R   0.499990 0.316780 0.385290 -0.586375
O5    O     O_R   0.500010 0.683220 0.614710 -0.565457
O6    O     O_R   0.271750 0.499990 0.587840 -0.578508
O7    O     O_R   0.728250 0.500010 0.412160 -0.578166
O8    O     O_R   0.271750 0.500010 0.358510 -0.627688
O9    O     O_R   0.728250 0.499990 0.641490 -0.630401
O10   O     O_2   0.875897 0.380647 0.242630 -0.576801
Zn1   Zn    Zn3+2 0.500000 0.499980 0.653120 0.987421
Zn2   Zn    Zn3+2 0.500000 0.500020 0.346880 0.986627

loop_
_geom_bond_atom_site_label_1
_geom_bond_atom_site_label_2
_ccdc_geom_bond_type
O8    Zn2   S    
C13   N4    S    
C2    C4    A    
C1    O4    A    
C16   O6    A    
C13   H6    S    
C11   H21   S    
C6    N1    A    
C8    N6    S    
C5    N2    A    
C10   C19   S    
C11   N3    S    
C12   O3    A    
O1    Zn1   S    
C14   H9    S    
C21   N4    S    
C10   O2    D    
C2    H12   S    
C2    C21   A    
C17   O9    A    
C11   H22   S    
O6    Zn1   S    
C16   O8    A    
C5    H16   S    
C10   H19   S    
C1    O1    A    
H3    N4    S    
N2    Zn2   S    
C6    C8    A    
C7    N1    A    
N1    Zn1   S    
C17   C19   S    
C14   H8    S    
C5    C7    A    
H20   N3    S    
C11   H2    S    
C8    N2    A    
C13   H4    S    
C3    C21   A    
C1    C4    S    
O9    Zn1   S    
C20   C22   A    
H11   N6    S    
C20   N3    S    
O5    Zn1   S    
C9    C18   S    
C12   O5    A    
C14   N5    S    
C7    N5    S    
C16   C18   S    
C18   C19   D    
O3    Zn2   S    
C15   N6    S    
C14   H10   S    
C15   H13   S    
C22   H1    S    
C15   H15   S    
C3    C22   A    
H7    N5    S    
C3    C12   S    
O4    Zn2   S    
O7    Zn2   S    
C15   H14   S    
C6    H17   S    
C9    H18   S    
C13   H5    S    
C17   O7    A    
C9    O10   D    
C4    C20   A    
