data_mof_unit_pretest_1003.cif
_audit_creation_date              2012-12-10T17:02:53-0500
_audit_creation_method            fapswitch 2.2
_symmetry_space_group_name_H-M    P1
_symmetry_Int_Tables_number       1
_space_group_crystal_system       triclinic
_cell_length_a                    18.799437
_cell_length_b                    18.893986
_cell_length_c                    18.87925
_cell_angle_alpha                 108.92681
_cell_angle_beta                  108.835755
_cell_angle_gamma                 108.863393
_cell_volume                      5272.9707319

loop_
_atom_site_label
_atom_site_type_symbol
_atom_type_description
_atom_site_fract_x
_atom_site_fract_y
_atom_site_fract_z
_atom_type_partial_charge
C1    C     C_R   0.376586 0.381479 0.494954 0.861285
C2    C     C_3   0.809596 0.505108 0.814079 -0.024017
C3    C     C_3   0.851458 0.580391 0.793051 0.452482
C4    C     C_3   0.743170 0.520664 0.844777 0.143140
C5    C     C_R   0.402989 0.353343 0.640531 0.356993
C6    C     C_R   0.411694 0.366606 0.720630 0.446538
C7    C     C_R   0.338685 0.331395 0.728882 -0.073466
C8    C     C_R   0.258506 0.273241 0.654392 0.342173
C9    C     C_R   0.252372 0.254311 0.571878 -0.059452
C10   C     C_R   0.321125 0.307213 0.567581 -0.191026
C11   C     C_R   0.181521 0.183736 0.494018 -0.088163
C12   C     C_R   0.618953 0.499820 0.619328 1.000219
C13   C     C_R   0.172369 0.177152 0.412845 -0.050563
C14   C     C_R   0.231853 0.246102 0.411699 -0.049661
C15   C     C_R   0.307774 0.311509 0.490982 -0.073217
C16   C     C_R   0.106128 0.103542 0.332432 0.332641
C17   C     C_R   0.086581 0.107452 0.255644 -0.004076
C18   C     C_R   0.139470 0.178465 0.255328 0.403024
C19   C     C_R   0.213733 0.244268 0.330574 0.057741
C20   C     C_R   0.232589 0.514516 0.401530 0.182146
C21   C     C_R   0.181756 0.547263 0.422480 -0.168801
C22   C     C_R   0.129110 0.562249 0.366876 -0.281956
C23   C     C_R   0.621015 0.617605 0.500942 0.924326
C24   C     C_R   0.123213 0.541767 0.286516 0.444665
C25   C     C_R   0.182573 0.518013 0.266195 0.009189
C26   C     C_R   0.243878 0.510795 0.328146 -0.042066
C27   C     C_R   0.182672 0.501798 0.186769 -0.131411
C28   C     C_R   0.249626 0.491077 0.173580 -0.081369
C29   C     C_R   0.319489 0.499173 0.240072 0.015815
C30   C     C_R   0.313672 0.503120 0.315489 -0.142804
C31   C     C_R   0.248574 0.474295 0.094147 -0.238865
C32   C     C_R   0.314611 0.468955 0.079563 0.345765
C33   C     C_R   0.386837 0.482067 0.146145 0.303005
C34   C     C_R   0.381153 0.501244 0.381208 0.851506
C35   C     C_R   0.392150 0.502847 0.227015 0.090653
C36   C     C_R   0.597236 0.756471 0.477196 0.117315
C37   C     C_R   0.594358 0.833124 0.494163 0.023471
C38   C     C_R   0.667986 0.907623 0.522823 0.309827
C39   C     C_R   0.741903 0.902811 0.525297 0.386743
C40   C     C_R   0.745520 0.824005 0.506810 -0.096790
C41   C     C_R   0.675859 0.753035 0.493124 -0.046012
C42   C     C_R   0.816118 0.814124 0.500875 -0.104803
C43   C     C_R   0.823417 0.739085 0.493329 -0.139842
C44   C     C_R   0.761304 0.674227 0.496069 -0.080178
C45   C     C_3   0.697177 0.419912 0.654917 0.046864
C46   C     C_R   0.686476 0.681482 0.495249 -0.078116
C47   C     C_R   0.891885 0.726811 0.482909 0.374480
C48   C     C_R   0.913588 0.668452 0.501411 0.294500
C49   C     C_R   0.856129 0.607466 0.509610 -0.037193
C50   C     C_R   0.777062 0.604339 0.497581 0.385550
C51   C     C_R   0.997286 0.382265 0.877504 0.896699
C52   C     C_R   0.878381 0.503685 0.881439 0.880541
C53   C     C_R   0.998313 0.618369 0.117405 0.912663
C54   C     C_R   0.115977 0.500822 0.117797 0.936087
C55   C     C_R   0.002408 0.882509 0.382827 0.929899
C56   C     C_3   0.757360 0.413170 0.729697 0.175763
C57   C     C_R   0.117706 0.117305 0.497870 0.945882
C58   C     C_R   0.999946 0.119767 0.617163 1.014195
C59   C     C_R   0.882010 0.881922 0.500842 1.063347
C60   C     C_R   0.988077 0.391456 0.719189 0.347018
C61   C     C_R   0.977281 0.390513 0.641915 0.119013
C62   C     C_R   0.990464 0.334549 0.586458 0.059758
C63   C     C_R   0.009933 0.275048 0.605365 0.095955
C64   C     C_R   0.001993 0.261296 0.673972 -0.019947
C65   C     C_R   0.996445 0.324064 0.735588 -0.076805
C66   C     C_R   0.997962 0.186990 0.681928 -0.101899
C67   C     C_3   0.776531 0.584350 0.726925 0.316211
C68   C     C_R   0.991141 0.176237 0.751592 -0.102305
C69   C     C_R   0.004718 0.246766 0.821229 -0.036436
C70   C     C_R   0.001100 0.317809 0.811058 -0.086095
C71   C     C_R   0.971687 0.097037 0.754349 0.398743
C72   C     C_R   0.974479 0.091965 0.827972 0.301939
C73   C     C_R   0.004179 0.166534 0.901813 0.016533
C74   C     C_R   0.021651 0.243379 0.899367 0.138909
C75   C     C_R   0.159388 0.742006 0.281574 0.419452
C76   C     C_R   0.234871 0.802962 0.357151 -0.347036
C77   C     C_R   0.239867 0.875515 0.411560 0.189137
C78   C     C_3   0.666540 0.505778 0.765192 0.001143
C79   C     C_R   0.167790 0.887044 0.394005 0.183931
C80   C     C_R   0.084066 0.817939 0.326080 -0.106321
C81   C     C_R   0.081564 0.747452 0.264618 0.012694
C82   C     C_R   0.003914 0.814657 0.318409 -0.138307
C83   C     C_R   0.923703 0.743673 0.249890 0.005395
C84   C     C_R   0.924031 0.684355 0.181864 -0.100051
C85   C     C_R   0.001821 0.684910 0.188969 -0.110449
C86   C     C_R   0.842259 0.728801 0.246805 0.357462
C87   C     C_R   0.764728 0.668428 0.170732 0.019127
C88   C     C_R   0.766779 0.612412 0.102610 0.391108
C89   C     C_3   0.688611 0.502875 0.690029 -0.112236
C90   C     C_R   0.845244 0.622842 0.107939 -0.214759
Cu1   Cu    Cu3+1 0.500360 0.438220 0.438540 0.993999
Cu2   Cu    Cu3+1 0.499640 0.561780 0.561460 0.967380
Cu3   Cu    Cu3+1 0.935530 0.438290 0.997340 0.997725
Cu4   Cu    Cu3+1 0.059130 0.561800 0.997250 1.016370
Cu5   Cu    Cu3+1 0.937870 0.000030 0.437890 1.015491
Cu6   Cu    Cu3+1 0.062130 0.000000 0.562130 1.027315
H1    H     H_    0.724922 0.423048 0.611592 0.129414
H2    H     H_    0.177378 0.554183 0.479999 0.165485
H3    H     H_    0.087466 0.583946 0.384233 0.159039
H4    H     H_    0.195679 0.464155 0.040108 0.205311
H5    H     H_    0.292491 0.796656 0.371613 0.147849
H6    H     H_    0.843330 0.581723 0.052217 0.176442
H7    H     H_    0.615569 0.440733 0.738859 0.263487
O1    O     O_R   0.410140 0.357660 0.448100 -0.575171
O2    O     O_R   0.049980 0.462000 0.907580 -0.541468
O3    O     O_R   0.854480 0.447890 0.906670 -0.588972
O4    O     O_R   0.958860 0.552200 0.906600 -0.556616
O5    O     O_R   0.944670 0.538090 0.087010 -0.586427
O6    O     O_R   0.049050 0.642400 0.086940 -0.560586
O7    O     O_R   0.035800 0.447890 0.088000 -0.555909
O8    O     O_R   0.140170 0.552200 0.087920 -0.581578
O9    O     O_R   0.948030 0.909890 0.357850 -0.531254
O10   O     O_R   0.052970 0.909860 0.462770 -0.593624
O11   O     O_R   0.037700 0.090200 0.447550 -0.567096
O12   O     O_R   0.409530 0.462000 0.551910 -0.576840
O13   O     O_R   0.142640 0.090170 0.552470 -0.587533
O14   O     O_R   0.947030 0.090160 0.537260 -0.591028
O15   O     O_R   0.051970 0.090130 0.642170 -0.554169
O16   O     O_R   0.857360 0.909860 0.447560 -0.548963
O17   O     O_R   0.962300 0.909830 0.552480 -0.546185
O18   O     O_R   0.590960 0.447830 0.538760 -0.546387
O19   O     O_R   0.590350 0.552170 0.642570 -0.570342
O20   O     O_R   0.590470 0.538000 0.448090 -0.535111
O21   O     O_R   0.589860 0.642340 0.551900 -0.601657
O22   O     O_R   0.409650 0.447830 0.357430 -0.574364
O23   O     O_R   0.409040 0.552170 0.461240 -0.618018
O24   O     O_R   0.945600 0.357690 0.907660 -0.597666
N1    N     N_3   0.785057 0.606602 0.918286 -0.609862
H8    H     H_    0.746634 0.609663 0.947312 0.248119
H9    H     H_    0.790809 0.653798 0.900444 0.285249
O25   O     O_3   0.770990 0.657591 0.769516 -0.749405
H10   H     H_    0.740457 0.671817 0.727077 0.356315
N2    N     N_3   0.904626 0.665065 0.870286 -0.526364
H11   H     H_    0.963225 0.673203 0.909983 0.251007
H12   H     H_    0.922836 0.711815 0.851978 0.257055
O26   O     O_3   0.123872 0.184663 0.181157 -0.737944
H13   H     H_    0.068458 0.136592 0.133051 0.358594
O27   O     O_3   0.476444 0.378837 0.633816 -0.700414
H14   H     H_    0.465946 0.332677 0.581336 0.341937
O28   O     O_3   0.493244 0.413283 0.789111 -0.734837
H15   H     H_    0.491795 0.413648 0.841129 0.352657
N3    N     N_3   0.347686 0.353159 0.812729 -0.610435
H16   H     H_    0.310007 0.381875 0.821943 0.251614
H17   H     H_    0.328092 0.297872 0.818664 0.236337
O29   O     O_3   0.185261 0.238190 0.660423 -0.733098
H18   H     H_    0.197301 0.256550 0.720114 0.332196
O30   O     O_3   0.061385 0.027532 0.328919 -0.762362
H19   H     H_    0.039022 0.978742 0.272824 0.318696
N4    N     N_3   0.012244 0.039335 0.177190 -0.618278
H20   H     H_    0.021909 0.986489 0.156581 0.222407
H21   H     H_    0.958947 0.023271 0.187164 0.244811
O31   O     O_3   0.616012 0.346868 0.605313 -0.731667
H22   H     H_    0.622822 0.300064 0.570155 0.331997
N5    N     N_3   0.270059 0.307907 0.321132 -0.561168
H23   H     H_    0.292077 0.278774 0.282233 0.266661
H24   H     H_    0.235536 0.331734 0.289466 0.244257
O32   O     O_3   0.454645 0.476685 0.135572 -0.743870
H25   H     H_    0.432409 0.433644 0.076124 0.334188
N6    N     N_3   0.257631 0.473480 0.449037 -0.592456
H26   H     H_    0.273014 0.429573 0.418379 0.224625
H27   H     H_    0.306723 0.519293 0.510658 0.256042
O33   O     O_3   0.059842 0.545985 0.228749 -0.699275
H28   H     H_    0.023636 0.560683 0.252727 0.318552
O34   O     O_3   0.307427 0.455125 0.000516 -0.736458
H29   H     H_    0.365335 0.480731 0.006299 0.335177
N7    N     N_3   0.474498 0.533183 0.295588 -0.535501
H30   H     H_    0.492703 0.485704 0.281580 0.277619
H31   H     H_    0.519005 0.585858 0.298269 0.242299
N8    N     N_3   0.874953 0.545391 0.527471 -0.631456
H32   H     H_    0.930264 0.577013 0.586251 0.242027
H33   H     H_    0.884340 0.509886 0.479275 0.225208
N9    N     N_3   0.707680 0.345128 0.744073 -0.515557
H34   H     H_    0.695259 0.285578 0.701021 0.219330
H35   H     H_    0.647312 0.338609 0.732877 0.280184
N10   N     N_3   0.517313 0.681371 0.437877 -0.553447
H36   H     H_    0.476986 0.675864 0.380848 0.231753
H37   H     H_    0.489648 0.690909 0.477662 0.272954
N11   N     N_3   0.514242 0.832675 0.479670 -0.623777
H38   H     H_    0.519563 0.870148 0.537728 0.220910
H39   H     H_    0.499158 0.857210 0.437942 0.226614
O35   O     O_3   0.669805 0.985995 0.546053 -0.754147
H40   H     H_    0.617587 0.982864 0.549289 0.329837
O36   O     O_3   0.812741 0.976387 0.550204 -0.697823
H41   H     H_    0.798381 0.022062 0.548884 0.373014
O37   O     O_3   0.936516 0.770702 0.452425 -0.692331
H42   H     H_    0.966054 0.741907 0.429938 0.365244
O38   O     O_3   0.990740 0.672537 0.508453 -0.744176
H43   H     H_    0.000695 0.630346 0.524238 0.328439
O39   O     O_3   0.717125 0.532869 0.489291 -0.702513
H44   H     H_    0.722918 0.482377 0.460766 0.343587
N12   N     N_3   0.019731 0.166920 0.981661 -0.591009
H45   H     H_    0.961730 0.129845 0.977056 0.223530
H46   H     H_    0.061262 0.141741 0.995509 0.248097
O40   O     O_3   0.986874 0.457515 0.776191 -0.684444
H47   H     H_    0.017601 0.510521 0.775090 0.375582
N13   N     N_3   0.955121 0.450005 0.621750 -0.587728
H48   H     H_    0.897924 0.415654 0.564274 0.245849
H49   H     H_    0.003271 0.487523 0.613512 0.234551
N14   N     N_3   0.816218 0.388665 0.705774 -0.571510
H50   H     H_    0.782132 0.337254 0.643946 0.201770
H51   H     H_    0.842613 0.365838 0.745196 0.259638
N15   N     N_3   0.986031 0.340542 0.511309 -0.609432
H52   H     H_    0.045148 0.355040 0.512636 0.225674
H53   H     H_    0.939091 0.282129 0.457542 0.223104
N16   N     N_3   0.043190 0.233833 0.557565 -0.535339
H54   H     H_    0.998478 0.202274 0.492961 0.234304
H55   H     H_    0.098822 0.280515 0.566539 0.233070
O41   O     O_3   0.945096 0.023475 0.682885 -0.697117
H56   H     H_    0.943471 0.976459 0.695843 0.372944
O42   O     O_3   0.950942 0.013462 0.825806 -0.745547
H57   H     H_    0.947776 0.016546 0.877832 0.333715
N17   N     N_3   0.063644 0.318932 0.979099 -0.590391
H58   H     H_    0.024867 0.311145 0.008036 0.270139
H59   H     H_    0.119972 0.321825 0.017505 0.240098
O43   O     O_3   0.693458 0.545477 0.029987 -0.776464
H60   H     H_    0.643259 0.535939 0.039655 0.356202
O44   O     O_3   0.161888 0.676039 0.225708 -0.697839
H61   H     H_    0.221136 0.684287 0.246001 0.317347
N18   N     N_3   0.320810 0.941535 0.483640 -0.563354
H62   H     H_    0.364175 0.960364 0.461533 0.223793
H63   H     H_    0.343052 0.915880 0.521860 0.216959
N19   N     N_3   0.186889 0.973531 0.439250 -0.559104
H64   H     H_    0.199217 0.989054 0.501845 0.265896
H65   H     H_    0.140238 0.985799 0.407943 0.238087
N20   N     N_3   0.794581 0.592859 0.659050 -0.585798
H66   H     H_    0.796811 0.540440 0.621586 0.237191
H67   H     H_    0.853822 0.646548 0.686308 0.260406
O45   O     O_3   0.838211 0.767900 0.319645 -0.708277
H68   H     H_    0.788283 0.727103 0.318507 0.330259
N21   N     N_3   0.684186 0.664911 0.161557 -0.583780
H69   H     H_    0.655821 0.669046 0.106452 0.220834
H70   H     H_    0.693658 0.719339 0.209906 0.238712
O46   O     O_3   0.907743 0.567202 0.762045 -0.731232
H71   H     H_    0.875928 0.516846 0.705440 0.350510
N22   N     N_3   0.626979 0.559613 0.787547 -0.503128
H72   H     H_    0.666234 0.623921 0.810566 0.262151
H73   H     H_    0.611872 0.554234 0.834778 0.255549
N23   N     N_3   0.707503 0.458131 0.871409 -0.553481
H74   H     H_    0.653407 0.458435 0.875217 0.279532
H75   H     H_    0.749990 0.473781 0.932170 0.278085

loop_
_geom_bond_atom_site_label_1
_geom_bond_atom_site_label_2
_ccdc_geom_bond_type
C8    C9    A    
C66   C68   A    
C87   C88   A    
Cu4   O2    S    
O32   H25   S    
C88   O43   S    
C55   O9    A    
C86   O45   S    
C73   C74   A    
Cu5   Cu6   S    
C58   O15   A    
Cu1   O1    S    
C75   C76   A    
N1    H8    S    
C11   C57   S    
N12   H46   S    
O29   H18   S    
C27   C54   S    
C60   O40   S    
C7    C8    A    
N10   H37   S    
O35   H40   S    
Cu5   O14   S    
C37   N11   S    
Cu3   Cu4   S    
C38   O35   S    
N15   H53   S    
C16   O30   S    
Cu6   O15   S    
O34   H29   S    
C8    O29   S    
C37   C38   A    
Cu5   O9    S    
N4    H21   S    
Cu3   O5    S    
C4    N23   S    
C5    C6    A    
C80   C81   A    
C67   N20   S    
Cu5   O11   S    
C44   C50   A    
C65   C70   A    
Cu4   O8    S    
C67   C89   S    
C35   N7    S    
N17   H58   S    
C54   O7    A    
C17   C18   A    
C18   C19   A    
N8    H32   S    
C50   O39   S    
C90   H6    S    
O30   H19   S    
N20   H67   S    
C58   C66   S    
C62   N15   S    
C12   O18   A    
C47   C48   A    
C45   C56   S    
C44   C46   A    
C16   C17   A    
C20   N6    S    
N9    H35   S    
C41   C46   A    
N6    H27   S    
C18   O26   S    
C1    C15   S    
C51   C70   S    
C47   O37   S    
C45   C89   S    
C9    C10   A    
N5    H24   S    
C34   O23   A    
Cu3   O7    S    
C72   C73   A    
C56   N14   S    
C40   C42   A    
O40   H47   S    
C52   O3    A    
N14   H50   S    
C23   C46   S    
Cu1   O20   S    
C13   C14   A    
C56   N9    S    
N7    H31   S    
C53   C85   S    
N22   H73   S    
N6    H26   S    
C36   C41   A    
C69   C70   A    
C84   C90   A    
O45   H68   S    
C33   O32   S    
N11   H38   S    
C57   O13   A    
C76   C77   A    
N16   H55   S    
C78   C89   S    
O28   H15   S    
C38   C39   A    
N23   H75   S    
Cu4   O4    S    
N15   H52   S    
C4    N1    S    
N12   H45   S    
C12   C89   S    
C5    O27   S    
C24   C25   A    
C52   O4    A    
C48   O38   S    
N13   H49   S    
O41   H56   S    
Cu1   Cu2   S    
C30   C34   S    
C86   C87   A    
C68   C69   A    
C23   O20   A    
C55   O10   A    
Cu5   O16   S    
O44   H61   S    
N16   H54   S    
C58   O14   A    
C71   O41   S    
C79   C80   A    
N1    H9    S    
C60   C61   A    
C59   O17   A    
C64   C66   A    
C2    C4    S    
O43   H60   S    
Cu3   O24   S    
O36   H41   S    
C4    C78   S    
C29   C30   A    
Cu2   O19   S    
Cu3   O3    S    
N18   H63   S    
N21   H69   S    
C83   C84   A    
C61   N13   S    
N22   H72   S    
C62   C63   A    
N20   H66   S    
C72   O42   S    
C77   C79   A    
C69   C74   A    
C34   O22   A    
C31   H4    S    
C84   C85   A    
C55   C82   S    
N21   H70   S    
C9    C11   A    
C1    O1    A    
N5    H23   S    
C73   N12   S    
C2    C52   S    
O39   H44   S    
C80   C82   A    
C40   C41   A    
N17   H59   S    
C60   C65   A    
C49   C50   A    
C43   C47   A    
C28   C31   A    
C43   C44   A    
C63   N16   S    
N2    H11   S    
N3    H17   S    
Cu6   O10   S    
N19   H65   S    
C42   C43   A    
O25   H10   S    
C39   C40   A    
N9    H34   S    
C79   N19   S    
N2    H12   S    
O33   H28   S    
N8    H33   S    
C53   O6    A    
C76   H5    S    
N18   H62   S    
N23   H74   S    
C28   C29   A    
C59   O16   A    
C22   H3    S    
Cu1   O22   S    
C78   H7    S    
C14   C15   A    
C17   N4    S    
C14   C19   A    
Cu6   O17   S    
C31   C32   A    
C77   N18   S    
C88   C90   A    
N13   H48   S    
C20   C26   A    
Cu2   O23   S    
C42   C59   S    
N11   H39   S    
C26   C30   A    
C6    C7    A    
C75   C81   A    
C25   C27   A    
C87   N21   S    
C29   C35   A    
Cu4   O6    S    
C10   C15   A    
C45   O31   S    
C51   O24   A    
C32   C33   A    
Cu2   O21   S    
C2    C3    S    
C25   C26   A    
C5    C10   A    
N10   H36   S    
C45   H1    S    
N4    H20   S    
C3    O46   S    
C49   N8    S    
C21   H2    S    
C11   C13   A    
C53   O5    A    
O37   H42   S    
N7    H30   S    
C57   O11   A    
C3    C67   S    
C68   C71   A    
C48   C49   A    
C32   O34   S    
C64   C65   A    
C33   C35   A    
C54   O8    A    
C78   N22   S    
C22   C24   A    
O42   H57   S    
C6    O28   S    
C61   C62   A    
C67   O25   S    
Cu2   O12   S    
C39   O36   S    
C51   O2    A    
O27   H14   S    
C63   C64   A    
C71   C72   A    
C83   C86   A    
C12   O19   A    
C20   C21   A    
O38   H43   S    
C36   N10   S    
C36   C37   A    
C82   C83   A    
Cu1   O18   S    
C13   C16   A    
C74   N17   S    
C27   C28   A    
N14   H51   S    
C19   N5    S    
C75   O44   S    
N3    H16   S    
Cu6   O13   S    
C2    C56   S    
O31   H22   S    
C1    O12   A    
C3    N2    S    
C21   C22   A    
C23   O21   A    
C24   O33   S    
N19   H64   S    
C7    N3    S    
C81   C85   A    
O26   H13   S    
O46   H71   S    
