data_mof_unit_pretest_350.cif
_audit_creation_date              2012-12-10T20:45:32-0500
_audit_creation_method            fapswitch 2.2
_symmetry_space_group_name_H-M    P1
_symmetry_Int_Tables_number       1
_space_group_crystal_system       triclinic
_cell_length_a                    10.748568
_cell_length_b                    10.712339
_cell_length_c                    9.840319
_cell_angle_alpha                 89.860693
_cell_angle_beta                  90.464181
_cell_angle_gamma                 89.889907
_cell_volume                      1132.9943371

loop_
_atom_site_label
_atom_site_type_symbol
_atom_type_description
_atom_site_fract_x
_atom_site_fract_y
_atom_site_fract_z
_atom_type_partial_charge
C1    C     C_R   0.498703 0.259969 0.500002 0.890019
C2    C     C_R   0.815913 0.441034 0.975590 -0.152710
C3    C     C_R   0.801390 0.312310 0.991568 -0.113257
C4    C     C_R   0.260151 0.505750 0.499113 0.871058
C5    C     C_R   0.830316 0.231915 0.884712 -0.169155
C6    C     C_R   0.872322 0.280197 0.761083 -0.188496
C7    C     C_R   0.886139 0.409490 0.744245 0.155958
C8    C     C_R   0.486686 0.063542 0.622146 0.210616
C9    C     C_R   0.486175 0.128310 0.499576 -0.121521
C10   C     C_R   0.469847 0.064621 0.376532 -0.243080
C11   C     C_R   0.470981 0.935966 0.376505 -0.249459
C12   C     C_R   0.207761 0.734419 0.030317 -0.106160
C13   C     C_R   0.485618 0.871691 0.499675 -0.101327
C14   C     C_R   0.484752 0.935949 0.622498 0.119804
C15   C     C_3   0.574960 0.927931 0.738665 -0.533997
C16   C     C_R   0.498584 0.740029 0.499843 0.873421
C17   C     C_3   0.579247 0.068972 0.735953 -0.447450
C18   C     C_R   0.463448 0.396213 0.071505 0.147317
C19   C     C_R   0.546385 0.598123 0.072163 -0.135401
C20   C     C_R   0.547303 0.597636 0.928156 -0.144500
C21   C     C_R   0.460666 0.397172 0.928573 0.218343
C22   C     C_3   0.332592 0.342437 0.925978 0.266802
C23   C     C_R   0.931650 0.548957 0.389099 -0.254258
C24   C     C_3   0.339739 0.335397 0.080418 -0.600074
C25   C     C_R   0.740075 0.498062 0.501086 0.868226
C26   C     C_R   0.229839 0.785860 0.158565 -0.136784
C27   C     C_R   0.184756 0.726661 0.275164 -0.095738
C28   C     C_R   0.115597 0.615952 0.263505 0.144685
C29   C     C_R   0.091511 0.566564 0.133758 -0.200040
C30   C     C_R   0.138226 0.625119 0.017881 -0.156520
C31   C     C_3   0.209439 0.175336 0.865883 0.122131
C32   C     C_3   0.206339 0.051480 0.790922 -0.848965
C33   C     C_R   0.872598 0.500653 0.503628 -0.079325
C34   C     C_R   0.941111 0.460203 0.618312 -0.012741
C35   C     C_R   0.068290 0.466070 0.613464 -0.259469
C36   C     C_R   0.127692 0.511773 0.498189 -0.080780
C37   C     C_R   0.059494 0.556827 0.385087 -0.005478
C38   C     C_R   0.858633 0.489709 0.852594 -0.121810
H1    H     H_    0.243517 0.779790 0.940456 0.124828
H2    H     H_    0.670242 0.106190 0.702105 0.189837
H3    H     H_    0.582560 0.677952 0.126561 0.142745
H4    H     H_    0.280274 0.872665 0.166993 0.121092
H5    H     H_    0.585428 0.676292 0.873954 0.147780
H6    H     H_    0.262763 0.409716 0.884947 0.078820
H7    H     H_    0.269996 0.394226 0.132133 0.209560
H8    H     H_    0.347369 0.238870 0.121082 0.203286
H9    H     H_    0.201743 0.768026 0.373907 0.104550
H10   H     H_    0.038033 0.481647 0.122812 0.138781
H11   H     H_    0.119917 0.586203 0.918378 0.129700
H12   H     H_    0.768780 0.274864 0.087107 0.133279
H13   H     H_    0.877858 0.584267 0.303416 0.159176
H14   H     H_    0.121100 0.432381 0.700192 0.149902
H15   H     H_    0.871365 0.589529 0.842048 0.118191
H16   H     H_    0.795667 0.503018 0.059203 0.136646
H17   H     H_    0.142256 0.239489 0.814851 0.136454
H18   H     H_    0.179082 0.158641 0.972271 0.144371
H19   H     H_    0.277048 0.986942 0.834736 0.251910
H20   H     H_    0.112848 0.008531 0.800481 0.204168
H21   H     H_    0.225967 0.066607 0.681513 0.252496
H22   H     H_    0.820907 0.132073 0.898020 0.135249
H23   H     H_    0.896021 0.217013 0.679482 0.123263
H24   H     H_    0.464511 0.113164 0.280094 0.171814
H25   H     H_    0.468593 0.887722 0.280082 0.167702
H26   H     H_    0.530805 0.890593 0.832017 0.200220
H27   H     H_    0.664641 0.883209 0.710717 0.201964
H28   H     H_    0.541454 0.112323 0.829309 0.249713
N1    N     N_R   0.499160 0.499140 0.142800 -0.094038
N2    N     N_R   0.499160 0.499180 0.857150 -0.129333
O1    O     O_R   0.500020 0.316790 0.614690 -0.586681
O2    O     O_R   0.500000 0.316760 0.385350 -0.625616
O3    O     O_R   0.316770 0.500030 0.614670 -0.629362
O4    O     O_R   0.316750 0.499990 0.385330 -0.609761
O5    O     O_R   0.500000 0.683240 0.614650 -0.625836
O6    O     O_R   0.499980 0.683210 0.385310 -0.629553
O7    O     O_R   0.683250 0.500010 0.614670 -0.610433
O8    O     O_R   0.683230 0.499970 0.385330 -0.630013
O9    O     O_3   0.331529 0.223988 0.863423 -0.596851
Zn1   Zn    Zn3+2 0.500010 0.500020 0.653130 0.964931
Zn2   Zn    Zn3+2 0.499990 0.499980 0.346870 0.945164

loop_
_geom_bond_atom_site_label_1
_geom_bond_atom_site_label_2
_ccdc_geom_bond_type
C4    C36   S    
C18   C21   A    
C19   C20   A    
O8    Zn2   S    
C32   H20   S    
C26   C27   A    
C16   O6    A    
C24   H7    S    
C6    H23   S    
C36   C37   A    
O4    Zn2   S    
C11   H25   S    
C5    C6    A    
C15   H27   S    
C34   C35   A    
C22   H6    S    
C35   C36   A    
C8    C9    A    
C23   C33   A    
C15   H26   S    
C19   N1    A    
C18   C24   S    
C31   H18   S    
C9    C10   A    
C13   C14   A    
O1    Zn1   S    
C10   H24   S    
C32   H19   S    
C3    H12   S    
C31   O9    S    
N2    Zn1   S    
C29   H10   S    
C16   O5    A    
N1    Zn2   S    
C2    H16   S    
C18   N1    A    
C23   C37   A    
C1    O1    A    
C12   C26   A    
C25   O7    A    
C17   H2    S    
C29   C30   A    
C2    C38   A    
C23   H13   S    
C31   C32   S    
O5    Zn1   S    
C33   C34   A    
C17   H28   S    
C1    C9    S    
C30   H11   S    
O6    Zn2   S    
C21   N2    A    
C7    C34   S    
C22   C24   S    
C4    O4    A    
C20   H5    S    
C26   H4    S    
C27   H9    S    
C15   C17   S    
C28   C29   A    
C8    C14   A    
C5    H22   S    
C12   C30   A    
O2    Zn2   S    
C20   N2    A    
C1    O2    A    
C22   O9    S    
C3    C5    A    
C6    C7    A    
C8    C17   S    
C25   O8    A    
C24   H8    S    
C12   H1    S    
C2    C3    A    
C11   C13   A    
C38   H15   S    
C28   C37   S    
C7    C38   A    
O3    Zn1   S    
O7    Zn1   S    
C10   C11   A    
C13   C16   S    
C35   H14   S    
C14   C15   S    
C32   H21   S    
C31   H17   S    
C21   C22   S    
C4    O3    A    
C19   H3    S    
C25   C33   S    
C27   C28   A    
