data_mof_unit_pretest_602.cif
_audit_creation_date              2012-12-11T14:51:46-0500
_audit_creation_method            fapswitch 2.2
_symmetry_space_group_name_H-M    P1
_symmetry_Int_Tables_number       1
_space_group_crystal_system       triclinic
_cell_length_a                    6.936345
_cell_length_b                    16.736544
_cell_length_c                    16.932415
_cell_angle_alpha                 101.493272
_cell_angle_beta                  89.024837
_cell_angle_gamma                 91.414019
_cell_volume                      1925.54220067

loop_
_atom_site_label
_atom_site_type_symbol
_atom_type_description
_atom_site_fract_x
_atom_site_fract_y
_atom_site_fract_z
_atom_type_partial_charge
O1    O     O_R   0.506340 0.439070 0.579550 -0.523466
O2    O     O_R   0.170010 0.404890 0.412100 -0.528969
O3    O     O_R   0.005010 0.560930 0.420450 -0.546505
C1    C     C_R   0.339680 0.381634 0.383382 0.756558
O4    O     O_R   0.176280 0.429360 0.578400 -0.533369
O5    O     O_R   0.011320 0.585570 0.587940 -0.546198
C2    C     C_R   0.342772 0.411207 0.603277 0.753157
O6    O     O_R   0.500030 0.414430 0.412060 -0.544176
O7    O     O_3   0.340950 0.551220 0.502940 -0.364906
V1    V     V_3+5 0.064020 0.490500 0.499460 1.529628
O8    O     O_R   0.681910 0.595110 0.587900 -0.541022
C3    C     C_R   0.851373 0.618439 0.616656 0.679209
O9    O     O_R   0.675640 0.570640 0.421600 -0.518830
C4    C     C_R   0.847671 0.587907 0.396221 0.735908
V2    V     V_3+5 0.564670 0.509500 0.500540 1.525360
O10   O     O_3   0.837610 0.448780 0.497060 -0.344321
C5    C     C_R   0.891218 0.864991 0.168966 -0.068356
C6    C     C_R   0.873006 0.641758 0.336052 -0.114031
C7    C     C_R   0.078803 0.680761 0.230618 -0.160549
C8    C     C_R   0.033927 0.628816 0.283509 -0.178316
C9    C     C_R   0.753682 0.708986 0.334008 0.186121
C10   C     C_R   0.799224 0.761850 0.279665 0.095659
C11   C     C_R   0.963801 0.747532 0.228118 0.121524
C12   C     C_R   0.009980 0.799533 0.173883 -0.219938
C13   C     C_R   0.730185 0.879444 0.220979 -0.146093
C14   C     C_R   0.685140 0.829172 0.275498 -0.126582
H1    H     H_    0.133498 0.787230 0.133554 0.114081
H2    H     H_    0.636168 0.929712 0.218818 0.138130
H3    H     H_    0.204692 0.668683 0.191646 0.123812
H4    H     H_    0.558270 0.843342 0.313116 0.182966
H5    H     H_    0.127881 0.578097 0.283780 0.135745
C15   C     C_3   0.813130 0.817749 0.731016 -0.124619
C16   C     C_3   0.982480 0.768055 0.686829 -0.118277
H6    H     H_    0.064061 0.782533 0.634288 0.134195
H7    H     H_    0.755771 0.874105 0.715843 0.117311
C17   C     C_3   0.865449 0.688770 0.687404 -0.009328
C18   C     C_3   0.695974 0.737651 0.730777 -0.109029
C19   C     C_3   0.783621 0.732023 0.813027 -0.147544
C20   C     C_3   0.952979 0.682339 0.768850 -0.150900
C21   C     C_3   0.070135 0.762432 0.769081 -0.123288
C22   C     C_3   0.900659 0.811310 0.812471 -0.011348
H8    H     H_    0.541839 0.727110 0.714469 0.111699
H9    H     H_    0.702012 0.717522 0.865547 0.101303
H10   H     H_    0.010333 0.625979 0.784013 0.097719
H11   H     H_    0.224284 0.772971 0.785364 0.108035
C23   C     C_3   0.554974 0.281670 0.275800 -0.085929
C24   C     C_3   0.488361 0.191939 0.273385 -0.153250
H12   H     H_    0.575172 0.144395 0.292423 0.187637
H13   H     H_    0.697750 0.308401 0.296689 0.172836
C25   C     C_3   0.407337 0.188297 0.188334 -0.116326
C26   C     C_3   0.473636 0.277274 0.190188 -0.156618
C27   C     C_3   0.276447 0.307821 0.228153 -0.254160
C28   C     C_3   0.211144 0.218494 0.226041 0.269860
C29   C     C_3   0.292443 0.222939 0.310665 0.394232
C30   C     C_3   0.357562 0.311407 0.312926 -0.143822
H14   H     H_    0.550443 0.299651 0.140515 0.137354
H15   H     H_    0.187558 0.355086 0.209723 0.137759
C31   C     C_R   0.430442 0.138232 0.832624 -0.062234
C32   C     C_R   0.340083 0.355190 0.662196 -0.111296
C33   C     C_R   0.156419 0.300477 0.764951 -0.176721
C34   C     C_R   0.175893 0.354605 0.712252 -0.171188
C35   C     C_R   0.488481 0.299097 0.666316 0.189478
C36   C     C_R   0.470254 0.245047 0.721429 0.098712
C37   C     C_R   0.301831 0.245503 0.770342 0.118724
C38   C     C_R   0.281748 0.191532 0.824663 -0.213622
C39   C     C_R   0.596551 0.138182 0.783868 -0.177976
C40   C     C_R   0.615977 0.190106 0.729035 -0.133379
H16   H     H_    0.153621 0.192920 0.862450 0.121322
H17   H     H_    0.713805 0.097794 0.788389 0.129689
H18   H     H_    0.026835 0.301859 0.801845 0.125916
H19   H     H_    0.748123 0.187215 0.693955 0.180074
H20   H     H_    0.059844 0.396311 0.710353 0.148588
O11   O     O_R   0.266070 0.085680 0.087850 -0.518898
O12   O     O_R   0.590090 0.070660 0.921580 -0.547444
O13   O     O_R   0.754780 0.914400 0.912080 -0.543192
C41   C     C_R   0.424415 0.086502 0.894814 0.688291
O14   O     O_R   0.596110 0.095130 0.087880 -0.514685
O15   O     O_R   0.760850 0.939050 0.079570 -0.542149
C42   C     C_R   0.426251 0.118243 0.117078 0.757361
O16   O     O_R   0.260010 0.061030 0.920360 -0.539281
O17   O     O_3   0.425070 0.948840 0.997010 -0.380288
V3    V     V_3+5 0.702100 0.009490 0.000550 1.467958
O18   O     O_R   0.090200 0.929250 0.078500 -0.537945
C43   C     C_R   0.918146 0.914397 0.105614 0.732403
O19   O     O_R   0.084180 0.904770 0.912200 -0.547345
C44   C     C_R   0.914738 0.881564 0.883318 0.662606
V4    V     V_3+5 0.201420 0.990350 0.999580 1.455745
O20   O     O_3   0.928580 0.051150 0.002990 -0.345764
Br1   Br    Br    0.956756 0.175725 0.194412 -0.545858
Cl1   Cl    Cl    0.171445 0.187086 0.390952 -0.553063
Br2   Br    Br    0.707357 0.291196 0.592921 -0.488267
Br3   Br    Br    0.537715 0.731826 0.408337 -0.564003

loop_
_geom_bond_atom_site_label_1
_geom_bond_atom_site_label_2
_ccdc_geom_bond_type
O18   V4    S    
V4    O20   S    
C6    C9    A    
C4    C6    S    
O2    C1    A    
C7    C8    A    
C12   H1    S    
C1    O6    A    
C25   C42   S    
O17   V3    S    
C31   C41   S    
C28   C29   S    
C13   H2    S    
C22   C44   S    
C23   H13   S    
C35   C36   A    
O12   C41   A    
C17   C18   S    
C29   Cl1   S    
O16   V4    S    
O5    C3    A    
C19   C20   S    
C39   H17   S    
V2    O10   S    
C16   C17   S    
C26   H14   S    
C18   H8    S    
O11   V4    S    
O13   C44   A    
C23   C24   S    
O8    V2    S    
C31   C39   A    
O18   C43   A    
C23   C30   S    
C15   C22   S    
O1    V2    S    
C3    C17   S    
O7    V1    S    
C40   H19   S    
C27   C30   S    
O14   C42   A    
C39   C40   A    
O9    C4    A    
O12   V3    S    
C2    C32   S    
C25   C26   S    
C24   C25   S    
O19   V4    S    
C21   H11   S    
C36   C40   A    
C32   C34   A    
C5    C12   A    
C26   C27   S    
C25   C28   S    
C15   H7    S    
C19   C22   S    
C20   C21   S    
O4    C2    A    
C13   C14   A    
O19   C44   A    
C23   C26   S    
C33   C34   A    
C16   C21   S    
C7    C11   A    
C18   C19   S    
O15   V3    S    
C31   C38   A    
C24   H12   S    
C33   H18   S    
C11   C12   A    
C38   H16   S    
C35   Br2   S    
C16   H6    S    
O11   C42   A    
C15   C18   S    
O17   V4    S    
O3    C4    A    
C24   C29   S    
C34   H20   S    
C21   C22   S    
C14   H4    S    
O6    V2    S    
O9    V2    S    
C1    C30   S    
C28   Br1   S    
O2    V1    S    
C27   C28   S    
C29   C30   S    
C32   C35   A    
O1    C2    A    
C17   C20   S    
C41   O16   A    
O5    V1    S    
O8    C3    A    
O13   V3    S    
C20   H10   S    
C33   C37   A    
C5    C43   S    
C5    C13   A    
C15   C16   S    
O7    V2    S    
C19   H9    S    
O3    V1    S    
V1    O10   S    
C37   C38   A    
O14   V3    S    
V3    O20   S    
C6    C8    A    
C27   H15   S    
C36   C37   A    
O15   C43   A    
O4    V1    S    
C10   C14   A    
C10   C11   A    
C9    C10   A    
C8    H5    S    
C9    Br3   S    
C7    H3    S    
