data_mof_unit_pretest_1794.cif
_audit_creation_date              2013-03-05T16:05:29-0500
_audit_creation_method            fapswitch 2.2
_symmetry_space_group_name_H-M    P1
_symmetry_Int_Tables_number       1
_space_group_crystal_system       monoclinic
_cell_length_a                    23.400613
_cell_length_b                    23.400604
_cell_length_c                    52.018798
_cell_angle_alpha                 90.0
_cell_angle_beta                  89.99999
_cell_angle_gamma                 90.0
_cell_volume                      28484.8944331

loop_
_atom_site_label
_atom_site_type_symbol
_atom_site_description
_atom_site_fract_x
_atom_site_fract_y
_atom_site_fract_z
_atom_type_partial_charge
Zn1   Zn    Zn3+2 0.000000 0.563030 0.272130 0.988558
Zn2   Zn    Zn3+2 0.000000 0.436970 0.727870 0.988556
Zn3   Zn    Zn3+2 0.436970 0.000000 0.272130 0.988559
Zn4   Zn    Zn3+2 0.563030 0.000000 0.727870 0.988557
Zn5   Zn    Zn3+2 0.000000 0.436970 0.272130 0.988558
Zn6   Zn    Zn3+2 0.000000 0.563030 0.727870 0.988556
Zn7   Zn    Zn3+2 0.563030 0.000000 0.272130 0.988559
Zn8   Zn    Zn3+2 0.436970 0.000000 0.727870 0.988557
Zn9   Zn    Zn3+2 0.500000 0.063030 0.772130 0.988558
Zn10  Zn    Zn3+2 0.500000 0.936970 0.227870 0.988556
Zn11  Zn    Zn3+2 0.936970 0.500000 0.772130 0.988563
Zn12  Zn    Zn3+2 0.063030 0.500000 0.227870 0.988553
Zn13  Zn    Zn3+2 0.500000 0.936970 0.772130 0.988558
Zn14  Zn    Zn3+2 0.500000 0.063030 0.227870 0.988556
Zn15  Zn    Zn3+2 0.063030 0.500000 0.772130 0.988563
Zn16  Zn    Zn3+2 0.936970 0.500000 0.227870 0.988553
O1    O     O_3   0.000000 0.500000 0.250000 -0.430087
O2    O     O_3   0.000000 0.500000 0.750000 -0.430093
O3    O     O_3   0.500000 0.000000 0.250000 -0.430090
O4    O     O_3   0.500000 0.000000 0.750000 -0.430089
O5    O     O_R   0.044090 0.500000 0.192350 -0.637347
O6    O     O_R   0.955910 0.500000 0.807650 -0.637336
O7    O     O_R   0.500000 0.044090 0.192350 -0.637343
O8    O     O_R   0.500000 0.955910 0.807650 -0.637344
O9    O     O_R   0.955910 0.500000 0.192350 -0.637347
O10   O     O_R   0.044090 0.500000 0.807650 -0.637336
O11   O     O_R   0.500000 0.955910 0.192350 -0.637343
O12   O     O_R   0.500000 0.044090 0.807650 -0.637344
O13   O     O_R   0.544090 0.000000 0.692350 -0.637344
O14   O     O_R   0.455910 0.000000 0.307650 -0.637342
O15   O     O_R   0.000000 0.544090 0.692350 -0.637343
O16   O     O_R   0.000000 0.455910 0.307650 -0.637344
O17   O     O_R   0.455910 0.000000 0.692350 -0.637344
O18   O     O_R   0.544090 0.000000 0.307650 -0.637342
O19   O     O_R   0.000000 0.455910 0.692350 -0.637343
O20   O     O_R   0.000000 0.544090 0.307650 -0.637345
O21   O     O_R   0.893990 0.562090 0.235170 -0.624787
O22   O     O_R   0.106010 0.437910 0.764830 -0.622429
O23   O     O_R   0.437910 0.893990 0.235170 -0.622435
O24   O     O_R   0.562090 0.106010 0.764830 -0.624787
O25   O     O_R   0.106010 0.437910 0.235170 -0.624787
O26   O     O_R   0.893990 0.562090 0.764830 -0.622430
O27   O     O_R   0.562090 0.106010 0.235170 -0.622435
O28   O     O_R   0.437910 0.893990 0.764830 -0.624787
O29   O     O_R   0.893990 0.437910 0.764830 -0.624786
O30   O     O_R   0.106010 0.562090 0.235170 -0.622436
O31   O     O_R   0.437910 0.106010 0.764830 -0.622434
O32   O     O_R   0.562090 0.893990 0.235170 -0.624787
O33   O     O_R   0.106010 0.562090 0.764830 -0.624786
O34   O     O_R   0.893990 0.437910 0.235170 -0.622436
O35   O     O_R   0.562090 0.893990 0.764830 -0.622434
O36   O     O_R   0.437910 0.106010 0.235170 -0.624787
O37   O     O_R   0.393990 0.062090 0.735170 -0.622434
O38   O     O_R   0.606010 0.937910 0.264830 -0.624786
O39   O     O_R   0.937910 0.393990 0.735170 -0.624787
O40   O     O_R   0.062090 0.606010 0.264830 -0.622433
O41   O     O_R   0.606010 0.937910 0.735170 -0.622434
O42   O     O_R   0.393990 0.062090 0.264830 -0.624786
O43   O     O_R   0.062090 0.606010 0.735170 -0.624787
O44   O     O_R   0.937910 0.393990 0.264830 -0.622433
O45   O     O_R   0.393990 0.937910 0.264830 -0.622433
O46   O     O_R   0.606010 0.062090 0.735170 -0.624786
O47   O     O_R   0.937910 0.606010 0.264830 -0.624787
O48   O     O_R   0.062090 0.393990 0.735170 -0.622435
O49   O     O_R   0.606010 0.062090 0.264830 -0.622432
O50   O     O_R   0.393990 0.937910 0.735170 -0.624787
O51   O     O_R   0.062090 0.393990 0.264830 -0.624787
O52   O     O_R   0.937910 0.606010 0.735170 -0.622435
C1    C     C_R   0.000000 0.500000 0.179166 0.860417
C2    C     C_R   1.000000 0.500000 0.820833 0.860421
C3    C     C_R   0.500000 0.000000 0.179167 0.860421
C4    C     C_R   0.500000 0.000000 0.820833 0.860421
C5    C     C_R   0.500000 0.000000 0.679167 0.860419
C6    C     C_R   0.500000 0.000000 0.320833 0.860421
C7    C     C_R   0.000000 0.500000 0.679167 0.860421
C8    C     C_R   0.000000 0.500000 0.320833 0.860421
C9    C     C_R   0.895292 0.604708 0.250000 0.817952
C10   C     C_R   0.104709 0.395291 0.750000 0.822264
C11   C     C_R   0.395291 0.895291 0.250000 0.822264
C12   C     C_R   0.604708 0.104708 0.750000 0.817951
C13   C     C_R   0.104708 0.395292 0.250000 0.817952
C14   C     C_R   0.895291 0.604709 0.750000 0.822263
C15   C     C_R   0.604709 0.104709 0.250000 0.822264
C16   C     C_R   0.395292 0.895292 0.750000 0.817951
C17   C     C_R   0.895292 0.395292 0.750000 0.817948
C18   C     C_R   0.104709 0.604709 0.250000 0.822265
C19   C     C_R   0.395291 0.104709 0.750000 0.822265
C20   C     C_R   0.604708 0.895292 0.250000 0.817950
C21   C     C_R   0.104708 0.604708 0.750000 0.817948
C22   C     C_R   0.895291 0.395291 0.250000 0.822265
C23   C     C_R   0.604709 0.895291 0.750000 0.822265
C24   C     C_R   0.395292 0.104708 0.250000 0.817950
C25   C     C_1   0.149695 0.649695 0.250000 -0.158904
C26   C     C_1   0.850306 0.350306 0.750000 -0.162992
C27   C     C_1   0.350306 0.149694 0.250000 -0.162992
C28   C     C_1   0.649695 0.850305 0.750000 -0.158901
C29   C     C_1   0.850305 0.350305 0.250000 -0.158904
C30   C     C_1   0.149694 0.649694 0.750000 -0.162992
C31   C     C_1   0.649694 0.850306 0.250000 -0.162992
C32   C     C_1   0.350305 0.149695 0.750000 -0.158901
C33   C     C_1   0.149695 0.350305 0.750000 -0.158897
C34   C     C_1   0.850306 0.649694 0.250000 -0.162993
C35   C     C_1   0.350306 0.850306 0.750000 -0.162993
C36   C     C_1   0.649695 0.149695 0.250000 -0.158901
C37   C     C_1   0.850305 0.649695 0.750000 -0.158897
C38   C     C_1   0.149694 0.350306 0.250000 -0.162993
C39   C     C_1   0.649694 0.149694 0.750000 -0.162993
C40   C     C_1   0.350305 0.850305 0.250000 -0.158901
C41   C     C_1   0.187086 0.687086 0.250000 0.010352
C42   C     C_1   0.812915 0.312915 0.750000 0.006844
C43   C     C_1   0.312915 0.187085 0.250000 0.006846
C44   C     C_1   0.687086 0.812914 0.750000 0.010355
C45   C     C_1   0.812914 0.312914 0.250000 0.010352
C46   C     C_1   0.187085 0.687085 0.750000 0.006844
C47   C     C_1   0.687085 0.812915 0.250000 0.006846
C48   C     C_1   0.312914 0.187086 0.750000 0.010355
C49   C     C_1   0.187086 0.312914 0.750000 0.010356
C50   C     C_1   0.812915 0.687085 0.250000 0.006847
C51   C     C_1   0.312915 0.812915 0.750000 0.006845
C52   C     C_1   0.687086 0.187086 0.250000 0.010354
C53   C     C_1   0.812914 0.687086 0.750000 0.010356
C54   C     C_1   0.187085 0.312915 0.250000 0.006847
C55   C     C_1   0.687085 0.187085 0.750000 0.006845
C56   C     C_1   0.312914 0.812914 0.250000 0.010354
C57   C     C_1   0.231305 0.731305 0.250000 0.023047
C58   C     C_1   0.768695 0.268695 0.750000 0.019807
C59   C     C_1   0.268695 0.231305 0.250000 0.019809
C60   C     C_1   0.731305 0.768695 0.750000 0.023050
C61   C     C_1   0.768695 0.268695 0.250000 0.023047
C62   C     C_1   0.231305 0.731305 0.750000 0.019807
C63   C     C_1   0.731305 0.768695 0.250000 0.019809
C64   C     C_1   0.268695 0.231305 0.750000 0.023050
C65   C     C_1   0.231305 0.268695 0.750000 0.023050
C66   C     C_1   0.768695 0.731305 0.250000 0.019809
C67   C     C_1   0.268695 0.768695 0.750000 0.019808
C68   C     C_1   0.731305 0.231305 0.250000 0.023048
C69   C     C_1   0.768695 0.731305 0.750000 0.023050
C70   C     C_1   0.231305 0.268695 0.250000 0.019809
C71   C     C_1   0.731305 0.231305 0.750000 0.019808
C72   C     C_1   0.268695 0.768695 0.250000 0.023048
C73   C     C_R   0.449402 0.994979 0.054680 0.578702
C74   C     C_R   0.550599 0.994985 0.945320 0.578702
C75   C     C_R   0.995022 0.449397 0.054678 0.578703
C76   C     C_R   0.994938 0.550595 0.945319 0.578701
C77   C     C_R   0.550598 0.005021 0.054680 0.578702
C78   C     C_R   0.449401 0.005015 0.945320 0.578702
C79   C     C_R   0.004978 0.550603 0.054678 0.578704
C80   C     C_R   0.005062 0.449406 0.945319 0.578700
C81   C     C_R   0.949402 0.505023 0.554680 0.578702
C82   C     C_R   0.050599 0.505015 0.445321 0.578702
C83   C     C_R   0.505010 0.949400 0.554679 0.578703
C84   C     C_R   0.505028 0.050598 0.445320 0.578702
C85   C     C_R   0.050598 0.494978 0.554680 0.578701
C86   C     C_R   0.949401 0.494986 0.445321 0.578702
C87   C     C_R   0.494990 0.050599 0.554679 0.578703
C88   C     C_R   0.494972 0.949402 0.445320 0.578702
N1    N     N_R   0.500000 0.000000 0.067539 -0.359437
N2    N     N_R   0.500000 0.000000 0.932461 -0.359437
N3    N     N_R   0.000000 0.500000 0.067538 -0.359435
N4    N     N_R   0.000000 0.500000 0.932460 -0.359437
N5    N     N_R   0.000000 0.500000 0.567539 -0.359436
N6    N     N_R   0.000000 0.500000 0.432461 -0.359437
N7    N     N_R   0.500000 1.000000 0.567539 -0.359436
N8    N     N_R   0.500000 1.000000 0.432461 -0.359436
C89   C     C_R   0.552483 0.001834 0.027417 -0.161330
C90   C     C_R   0.447517 0.001827 0.972583 -0.161331
C91   C     C_R   0.001786 0.552484 0.027415 -0.161329
C92   C     C_R   0.001877 0.447519 0.972582 -0.161331
C93   C     C_R   0.447517 0.998166 0.027417 -0.161330
C94   C     C_R   0.552483 0.998173 0.972583 -0.161330
C95   C     C_R   0.998214 0.447516 0.027415 -0.161329
C96   C     C_R   0.998124 0.552481 0.972582 -0.161332
C97   C     C_R   0.052483 0.498166 0.527417 -0.161331
C98   C     C_R   0.947517 0.498174 0.472583 -0.161329
C99   C     C_R   0.498179 0.052483 0.527416 -0.161330
C100  C     C_R   0.498160 0.947517 0.472583 -0.161330
C101  C     C_R   0.947517 0.501835 0.527417 -0.161332
C102  C     C_R   0.052483 0.501826 0.472583 -0.161330
C103  C     C_R   0.501821 0.947517 0.527416 -0.161331
C104  C     C_R   0.501840 0.052482 0.472583 -0.161330
C105  C     C_R   0.500000 0.000000 0.013699 -0.108382
C106  C     C_R   0.500000 0.000000 0.986301 -0.108383
C107  C     C_R   0.000000 0.500000 0.013698 -0.108381
C108  C     C_R   0.000000 0.500000 0.986299 -0.108381
C109  C     C_R   0.000000 0.500000 0.513699 -0.108382
C110  C     C_R   0.000000 0.500000 0.486301 -0.108383
C111  C     C_R   0.500000 1.000000 0.513699 -0.108382
C112  C     C_R   0.500000 1.000000 0.486301 -0.108382
C113  C     C_R   0.604743 0.000803 0.013521 0.358907
C114  C     C_R   0.395257 0.000788 0.986479 0.358907
C115  C     C_R   0.000704 0.604744 0.013520 0.358907
C116  C     C_R   0.000888 0.395257 0.986478 0.358906
C117  C     C_R   0.395257 0.999197 0.013521 0.358905
C118  C     C_R   0.604743 0.999212 0.986479 0.358907
C119  C     C_R   0.999296 0.395256 0.013520 0.358905
C120  C     C_R   0.999113 0.604743 0.986478 0.358906
C121  C     C_R   0.104743 0.499196 0.513521 0.358906
C122  C     C_R   0.895257 0.499214 0.486479 0.358907
C123  C     C_R   0.499224 0.104743 0.513520 0.358906
C124  C     C_R   0.499186 0.895257 0.486479 0.358906
C125  C     C_R   0.895257 0.500804 0.513521 0.358907
C126  C     C_R   0.104743 0.500787 0.486479 0.358906
C127  C     C_R   0.500777 0.895257 0.513521 0.358907
C128  C     C_R   0.500815 0.104743 0.486479 0.358906
O53   O     O_2   0.401508 0.986577 0.068535 -0.467086
O54   O     O_2   0.598494 0.986589 0.931465 -0.467083
O55   O     O_2   0.986659 0.401496 0.068534 -0.467088
O56   O     O_2   0.986498 0.598482 0.931463 -0.467083
O57   O     O_2   0.598492 0.013423 0.068535 -0.467086
O58   O     O_2   0.401506 0.013411 0.931465 -0.467083
O59   O     O_2   0.013341 0.598504 0.068534 -0.467089
O60   O     O_2   0.013502 0.401518 0.931463 -0.467083
O61   O     O_2   0.901508 0.513425 0.568535 -0.467085
O62   O     O_2   0.098494 0.513410 0.431465 -0.467085
O63   O     O_2   0.513401 0.901505 0.568535 -0.467085
O64   O     O_2   0.513436 0.098491 0.431464 -0.467085
O65   O     O_2   0.098492 0.486575 0.568535 -0.467084
O66   O     O_2   0.901506 0.486591 0.431465 -0.467085
O67   O     O_2   0.486599 0.098495 0.568535 -0.467085
O68   O     O_2   0.486565 0.901509 0.431464 -0.467085
C129  C     C_R   0.979418 0.548092 0.390932 0.185052
C130  C     C_R   0.020588 0.548089 0.609068 0.185051
C131  C     C_R   0.548087 0.979406 0.390932 0.185050
C132  C     C_R   0.548093 0.020578 0.609067 0.185052
C133  C     C_R   0.020581 0.451908 0.390932 0.185051
C134  C     C_R   0.979412 0.451911 0.609068 0.185051
C135  C     C_R   0.451913 0.020594 0.390932 0.185050
C136  C     C_R   0.451907 0.979422 0.609067 0.185051
C137  C     C_R   0.479418 0.951908 0.890932 0.185053
C138  C     C_R   0.520586 0.951910 0.109068 0.185050
C139  C     C_R   0.951926 0.479377 0.890931 0.185048
C140  C     C_R   0.951897 0.520555 0.109067 0.185052
C141  C     C_R   0.520582 0.048092 0.890932 0.185053
C142  C     C_R   0.479413 0.048090 0.109068 0.185050
C143  C     C_R   0.048074 0.520624 0.890931 0.185048
C144  C     C_R   0.048103 0.479445 0.109067 0.185052
C145  C     C_R   0.975587 0.546530 0.363677 0.102545
C146  C     C_R   0.024419 0.546527 0.636323 0.102545
C147  C     C_R   0.546524 0.975575 0.363677 0.102547
C148  C     C_R   0.546532 0.024410 0.636323 0.102544
C149  C     C_R   0.024413 0.453470 0.363677 0.102545
C150  C     C_R   0.975581 0.453473 0.636323 0.102545
C151  C     C_R   0.453476 0.024424 0.363677 0.102546
C152  C     C_R   0.453468 0.975590 0.636323 0.102544
C153  C     C_R   0.475586 0.953470 0.863677 0.102545
C154  C     C_R   0.524418 0.953472 0.136323 0.102544
C155  C     C_R   0.953490 0.475549 0.863675 0.102551
C156  C     C_R   0.953458 0.524390 0.136322 0.102541
C157  C     C_R   0.524414 0.046530 0.863677 0.102545
C158  C     C_R   0.475582 0.046528 0.136323 0.102544
C159  C     C_R   0.046510 0.524452 0.863675 0.102551
C160  C     C_R   0.046542 0.475610 0.136322 0.102541
C161  C     C_R   1.000000 0.500000 0.349787 -0.137240
C162  C     C_R   0.000000 0.500000 0.650213 -0.137236
C163  C     C_R   0.500000 1.000000 0.349787 -0.137231
C164  C     C_R   0.500000 1.000000 0.650213 -0.137243
C165  C     C_R   0.500000 1.000000 0.849787 -0.137240
C166  C     C_R   0.500000 0.000000 0.150213 -0.137236
C167  C     C_R   1.000000 0.500000 0.849786 -0.137207
C168  C     C_R   0.000000 0.500000 0.150212 -0.137264
C169  C     C_R   0.000000 0.500000 0.404529 0.209638
C170  C     C_R   0.000000 0.500000 0.595471 0.209639
C171  C     C_R   0.500000 1.000000 0.404528 0.209636
C172  C     C_R   0.500000 1.000000 0.595471 0.209638
C173  C     C_R   0.500000 0.000000 0.904529 0.209638
C174  C     C_R   0.500000 0.000000 0.095471 0.209639
C175  C     C_R   0.000000 0.500000 0.904527 0.209632
C176  C     C_R   0.000000 0.500000 0.095470 0.209632
Cl1   Cl    Cl    0.672256 0.998558 0.029157 -0.391513
Cl2   Cl    Cl    0.327744 0.998533 0.970843 -0.391516
Cl3   Cl    Cl    0.998392 0.672255 0.029156 -0.391522
Cl4   Cl    Cl    0.998700 0.327742 0.970841 -0.391509
Cl5   Cl    Cl    0.327744 0.001442 0.029157 -0.391512
Cl6   Cl    Cl    0.672256 0.001467 0.970843 -0.391516
Cl7   Cl    Cl    0.001608 0.327746 0.029156 -0.391523
Cl8   Cl    Cl    0.001301 0.672258 0.970842 -0.391510
Cl9   Cl    Cl    0.172256 0.501440 0.529157 -0.391514
Cl10  Cl    Cl    0.827744 0.501470 0.470843 -0.391515
Cl11  Cl    Cl    0.501486 0.172256 0.529157 -0.391516
Cl12  Cl    Cl    0.501423 0.827744 0.470842 -0.391514
Cl13  Cl    Cl    0.827744 0.498561 0.529157 -0.391514
Cl14  Cl    Cl    0.172256 0.498531 0.470843 -0.391515
Cl15  Cl    Cl    0.498514 0.827744 0.529157 -0.391516
Cl16  Cl    Cl    0.498577 0.172256 0.470842 -0.391514
C177  C     C_3   0.962353 0.601486 0.405566 -0.789556
H1    H     H_    0.981812 0.639709 0.396430 0.239286
H2    H     H_    0.915110 0.605743 0.405743 0.260946
H3    H     H_    0.977433 0.601580 0.425759 0.234760
C178  C     C_3   0.037661 0.601480 0.594434 -0.789551
H4    H     H_    0.018207 0.639707 0.603570 0.239286
H5    H     H_    0.084905 0.605731 0.594258 0.260946
H6    H     H_    0.022583 0.601576 0.574241 0.234760
C179  C     C_3   0.601476 0.962326 0.405566 -0.789549
H7    H     H_    0.601574 0.977405 0.425758 0.234760
H8    H     H_    0.605720 0.915081 0.405742 0.260946
H9    H     H_    0.639705 0.981776 0.396430 0.239286
C180  C     C_3   0.601488 0.037639 0.594434 -0.789554
H10   H     H_    0.601581 0.022560 0.574241 0.234759
H11   H     H_    0.605749 0.084883 0.594257 0.260947
H12   H     H_    0.639710 0.018177 0.603570 0.239285
C181  C     C_3   0.037647 0.398515 0.405566 -0.789554
H13   H     H_    0.084890 0.394257 0.405742 0.260946
H14   H     H_    0.022568 0.398421 0.425759 0.234760
H15   H     H_    0.018187 0.360291 0.396430 0.239286
C182  C     C_3   0.962339 0.398520 0.594434 -0.789552
H16   H     H_    0.915095 0.394269 0.594258 0.260945
H17   H     H_    0.977417 0.398424 0.574241 0.234760
H18   H     H_    0.981794 0.360294 0.603569 0.239286
C183  C     C_3   0.398524 0.037673 0.405566 -0.789549
H19   H     H_    0.398427 0.022595 0.425758 0.234760
H20   H     H_    0.394279 0.084918 0.405741 0.260947
H21   H     H_    0.360295 0.018224 0.396430 0.239285
C184  C     C_3   0.398512 0.962360 0.594434 -0.789556
H22   H     H_    0.398419 0.977440 0.574241 0.234760
H23   H     H_    0.394251 0.915117 0.594257 0.260948
H24   H     H_    0.360290 0.981822 0.603570 0.239286
C185  C     C_3   0.462352 0.898515 0.905566 -0.789555
H25   H     H_    0.477431 0.898421 0.925759 0.234760
H26   H     H_    0.415109 0.894258 0.905742 0.260943
H27   H     H_    0.481812 0.860291 0.896430 0.239287
C186  C     C_3   0.537658 0.898519 0.094434 -0.789550
H28   H     H_    0.522581 0.898424 0.074241 0.234759
H29   H     H_    0.584902 0.894266 0.094258 0.260946
H30   H     H_    0.518202 0.860293 0.103569 0.239286
C187  C     C_3   0.898548 0.462261 0.905565 -0.789538
H31   H     H_    0.894332 0.415014 0.905739 0.260943
H32   H     H_    0.898442 0.477336 0.925758 0.234758
H33   H     H_    0.860306 0.481689 0.896430 0.239286
C188  C     C_3   0.898493 0.537588 0.094433 -0.789559
H34   H     H_    0.894210 0.584829 0.094254 0.260956
H35   H     H_    0.898405 0.522502 0.074241 0.234761
H36   H     H_    0.860280 0.518110 0.103571 0.239283
C189  C     C_3   0.537648 0.101485 0.905566 -0.789556
H37   H     H_    0.522569 0.101579 0.925759 0.234760
H38   H     H_    0.584891 0.105742 0.905742 0.260944
H39   H     H_    0.518188 0.139709 0.896430 0.239287
C190  C     C_3   0.462342 0.101481 0.094434 -0.789550
H40   H     H_    0.477419 0.101576 0.074241 0.234759
H41   H     H_    0.415098 0.105734 0.094258 0.260946
H42   H     H_    0.481798 0.139707 0.103569 0.239285
C191  C     C_3   0.101452 0.537739 0.905564 -0.789538
H43   H     H_    0.105667 0.584987 0.905739 0.260943
H44   H     H_    0.101559 0.522664 0.925758 0.234758
H45   H     H_    0.139694 0.518312 0.896429 0.239286
C192  C     C_3   0.101507 0.462412 0.094433 -0.789558
H46   H     H_    0.105790 0.415171 0.094254 0.260956
H47   H     H_    0.101595 0.477498 0.074241 0.234760
H48   H     H_    0.139720 0.481890 0.103571 0.239283
C193  C     C_3   0.944810 0.594026 0.349356 -0.795868
H49   H     H_    0.914738 0.575488 0.335102 0.232778
H50   H     H_    0.918183 0.621489 0.361854 0.238743
H51   H     H_    0.976369 0.621836 0.339498 0.255476
C194  C     C_3   0.055201 0.594019 0.650644 -0.795873
H52   H     H_    0.085270 0.575477 0.664899 0.232773
H53   H     H_    0.081832 0.621479 0.638146 0.238745
H54   H     H_    0.023645 0.621833 0.660501 0.255477
C195  C     C_3   0.594012 0.944788 0.349355 -0.795877
H55   H     H_    0.575467 0.914722 0.335100 0.232768
H56   H     H_    0.621831 0.976341 0.339499 0.255477
H57   H     H_    0.621468 0.918152 0.361853 0.238747
C196  C     C_3   0.594029 0.055184 0.650644 -0.795866
H58   H     H_    0.575493 0.085258 0.664897 0.232780
H59   H     H_    0.621838 0.023623 0.660501 0.255476
H60   H     H_    0.621494 0.081809 0.638145 0.238743
C197  C     C_3   0.055189 0.405974 0.349356 -0.795868
H61   H     H_    0.081816 0.378511 0.361854 0.238743
H62   H     H_    0.023630 0.378164 0.339499 0.255476
H63   H     H_    0.085262 0.424512 0.335102 0.232777
C198  C     C_3   0.944799 0.405981 0.650644 -0.795872
H64   H     H_    0.918169 0.378521 0.638146 0.238745
H65   H     H_    0.976356 0.378167 0.660501 0.255477
H66   H     H_    0.914730 0.424522 0.664899 0.232773
C199  C     C_3   0.405988 0.055212 0.349355 -0.795877
H67   H     H_    0.424533 0.085278 0.335100 0.232768
H68   H     H_    0.378169 0.023659 0.339498 0.255477
H69   H     H_    0.378532 0.081847 0.361853 0.238747
C200  C     C_3   0.405971 0.944816 0.650644 -0.795865
H70   H     H_    0.424507 0.914742 0.664898 0.232780
H71   H     H_    0.378162 0.976376 0.660501 0.255476
H72   H     H_    0.378506 0.918191 0.638145 0.238743
C201  C     C_3   0.444810 0.905974 0.849356 -0.795869
H73   H     H_    0.414738 0.924512 0.835102 0.232777
H74   H     H_    0.476369 0.878164 0.839498 0.255477
H75   H     H_    0.418183 0.878511 0.861854 0.238742
C202  C     C_3   0.555198 0.905979 0.150644 -0.795873
H76   H     H_    0.585268 0.924520 0.164899 0.232775
H77   H     H_    0.523641 0.878166 0.160501 0.255477
H78   H     H_    0.581827 0.878518 0.138146 0.238745
C203  C     C_3   0.906019 0.444736 0.849353 -0.795904
H79   H     H_    0.924582 0.414685 0.835096 0.232747
H80   H     H_    0.878580 0.418081 0.861851 0.238754
H81   H     H_    0.878181 0.476275 0.839498 0.255480
C204  C     C_3   0.905947 0.555146 0.150642 -0.795842
H82   H     H_    0.924471 0.585230 0.164895 0.232796
H83   H     H_    0.878471 0.581757 0.138143 0.238739
H84   H     H_    0.878152 0.523575 0.160501 0.255472
C205  C     C_3   0.555190 0.094025 0.849356 -0.795870
H85   H     H_    0.585262 0.075487 0.835102 0.232777
H86   H     H_    0.523631 0.121836 0.839499 0.255477
H87   H     H_    0.581817 0.121488 0.861854 0.238743
C206  C     C_3   0.444802 0.094021 0.150644 -0.795873
H88   H     H_    0.414732 0.075480 0.164899 0.232775
H89   H     H_    0.476359 0.121834 0.160501 0.255476
H90   H     H_    0.418173 0.121482 0.138146 0.238745
C207  C     C_3   0.093980 0.555265 0.849353 -0.795902
H91   H     H_    0.075418 0.585315 0.835096 0.232746
H92   H     H_    0.121419 0.581921 0.861851 0.238754
H93   H     H_    0.121819 0.523726 0.839498 0.255480
C208  C     C_3   0.094053 0.444854 0.150642 -0.795842
H94   H     H_    0.075529 0.414770 0.164895 0.232796
H95   H     H_    0.121529 0.418243 0.138143 0.238739
H96   H     H_    0.121848 0.476425 0.160501 0.255472

loop_
_geom_bond_atom_site_label_1
_geom_bond_atom_site_label_2
_geom_bond_distance
_ccdc_geom_bond_type
C195  H55   1.110500 S    
C180  H11   1.110044 S    
Zn5   O51   1.807429 S    
C7    C162  1.506126 S    
C49   C65   1.463348 S    
C142  C158  1.421095 A    
C190  H40   1.108084 S    
C181  H13   1.110045 S    
C3    C166  1.506126 S    
C12   C39   1.488732 S    
C160  C168  1.426194 A    
C146  C162  1.426184 A    
C144  C192  1.516594 S    
C113  Cl1   1.777715 S    
Zn1   O40   1.807429 S    
C114  Cl2   1.777716 S    
Zn2   O39   1.807431 S    
C205  H86   1.109885 S    
C147  C195  1.519500 S    
C181  H15   1.110522 S    
C148  C196  1.519501 S    
C85   C97   1.420818 A    
C151  C163  1.426180 A    
C80   N4    1.365000 A    
C14   C37   1.488756 S    
C115  C120  1.407165 A    
C200  H72   1.106313 S    
C78   O58   1.346932 S    
C23   C28   1.488756 S    
Zn13  O35   1.807429 S    
C113  C118  1.407164 A    
O34   C22   1.261213 A    
Zn14  O36   1.807431 S    
Zn3   O3    1.871006 S    
C76   N4    1.365000 A    
C138  C154  1.421095 A    
C74   C94   1.420818 A    
C198  H66   1.110498 S    
C183  H20   1.110046 S    
C83   O63   1.346932 S    
C10   C33   1.488754 S    
C46   C62   1.463371 S    
C74   N2    1.364994 A    
C194  H53   1.106315 S    
C100  C112  1.421030 A    
C196  H60   1.106313 S    
C118  Cl6   1.777718 S    
C133  C181  1.516589 S    
C141  C157  1.421101 A    
C116  C119  1.407159 A    
C95   C119  1.420797 A    
C199  H69   1.106317 S    
C93   C117  1.420793 A    
O22   C10   1.261213 A    
N6    C169  1.453005 S    
O28   C16   1.261203 A    
C189  H37   1.108085 S    
C140  C176  1.413742 A    
C85   N5    1.364995 A    
C84   C104  1.420818 A    
C185  H27   1.110519 S    
C107  C108  1.425227 A    
C77   N1    1.364992 A    
O40   C18   1.261210 A    
C130  C178  1.516589 S    
C73   C93   1.420817 A    
C88   O68   1.346932 S    
C192  H48   1.110522 S    
C129  C177  1.516589 S    
C79   C91   1.420821 A    
C1    C168  1.506152 S    
C73   N1    1.364995 A    
C2    C167  1.506100 S    
C195  H57   1.106318 S    
Zn7   O3    1.871004 S    
C147  C163  1.426182 A    
C203  H79   1.110500 S    
C96   C120  1.420799 A    
O9    C1    1.238865 A    
C152  C200  1.519501 S    
C190  H42   1.110521 S    
O11   C3    1.238856 A    
C126  Cl14  1.777717 S    
C189  H39   1.110520 S    
C95   C107  1.421029 A    
Zn16  O9    1.900120 S    
C156  C204  1.519502 S    
Zn13  O4    1.871005 S    
Zn14  O3    1.871007 S    
C139  C155  1.421097 A    
C184  H24   1.110522 S    
C146  C194  1.519501 S    
O44   C22   1.261211 A    
C91   C115  1.420794 A    
C204  H82   1.110494 S    
C92   C116  1.420799 A    
C80   O60   1.346937 S    
C177  H2    1.110044 S    
C131  C147  1.421095 A    
C197  H61   1.106314 S    
O38   C20   1.261206 A    
C155  C203  1.519506 S    
C131  C179  1.516589 S    
C128  Cl16  1.777718 S    
C11   C40   1.488756 S    
C74   O54   1.346932 S    
C81   O61   1.346933 S    
C20   C31   1.488732 S    
C30   C46   1.237407 T    
C102  C110  1.421029 A    
C103  C111  1.421029 A    
C186  H28   1.108084 S    
C152  C164  1.426189 A    
C208  H94   1.110494 S    
C207  H91   1.110502 S    
Zn13  O28   1.807431 S    
Zn9   O12   1.900120 S    
Zn14  O27   1.807429 S    
C202  H77   1.109883 S    
Zn10  O11   1.900120 S    
Zn15  O2    1.871004 S    
Zn11  O2    1.871006 S    
C193  H49   1.110492 S    
C187  H33   1.110527 S    
O27   C15   1.261211 A    
C143  C191  1.516589 S    
C133  C169  1.413744 A    
C206  H88   1.110492 S    
C184  H22   1.108081 S    
N1    C174  1.453005 S    
C84   O64   1.346932 S    
C97   C109  1.421031 A    
O46   C12   1.261206 A    
O10   C2    1.238847 A    
C137  C185  1.516587 S    
O14   C6    1.238851 A    
C184  H23   1.110044 S    
C138  C186  1.516588 S    
C55   C71   1.463370 S    
O43   C21   1.261207 A    
C53   C69   1.463348 S    
C187  H32   1.108084 S    
C182  H17   1.108081 S    
C201  H75   1.106315 S    
C85   O65   1.346935 S    
C50   C66   1.463370 S    
C197  H63   1.110497 S    
C137  C153  1.421101 A    
Zn15  O33   1.807429 S    
C4    C165  1.506131 S    
C94   C106  1.421029 A    
C188  H35   1.108084 S    
C144  C160  1.421100 A    
C77   O57   1.346933 S    
C191  H44   1.108088 S    
C57   C72   1.237368 T    
C143  C175  1.413753 A    
C204  H84   1.109885 S    
C75   O55   1.346937 S    
C58   C71   1.237388 T    
C135  C183  1.516589 S    
C86   C98   1.420818 A    
C97   C121  1.420795 A    
Zn12  O30   1.807429 S    
C207  H93   1.109892 S    
C137  C173  1.413742 A    
C87   N7    1.364996 A    
N3    C176  1.453010 S    
O5    C1    1.238863 A    
C140  C156  1.421100 A    
O31   C19   1.261211 A    
Zn12  O1    1.871007 S    
C179  H7    1.108083 S    
C18   C25   1.488756 S    
C5    C164  1.506131 S    
C48   C64   1.463350 S    
C186  H30   1.110519 S    
C38   C54   1.237407 T    
C178  H4    1.110522 S    
C121  C126  1.407159 A    
O37   C19   1.261213 A    
C208  H96   1.109885 S    
C132  C148  1.421096 A    
C99   C123  1.420796 A    
C42   C58   1.463370 S    
C103  C127  1.420793 A    
O51   C13   1.261203 A    
C193  H51   1.109886 S    
C132  C180  1.516589 S    
C119  Cl7   1.777721 S    
C101  C125  1.420792 A    
C149  C161  1.426186 A    
C190  H41   1.110046 S    
C206  H90   1.106313 S    
C145  C193  1.519501 S    
O8    C4    1.238856 A    
C203  H80   1.106320 S    
C19   C32   1.488754 S    
C138  C174  1.413744 A    
Zn5   O44   1.807431 S    
O48   C10   1.261211 A    
Zn6   O43   1.807429 S    
C86   N6    1.364993 A    
C6    C163  1.506126 S    
Zn8   O37   1.807429 S    
O16   C8    1.238856 A    
C159  C207  1.519504 S    
C78   N2    1.364996 A    
Zn1   O1    1.871004 S    
C21   C30   1.488732 S    
O52   C14   1.261210 A    
C140  C188  1.516593 S    
C205  H85   1.110493 S    
O45   C11   1.261213 A    
C188  H36   1.110522 S    
C73   O53   1.346933 S    
C200  H71   1.109885 S    
C99   C111  1.421029 A    
C127  Cl15  1.777717 S    
C115  Cl3   1.777721 S    
C36   C52   1.237404 T    
O42   C24   1.261206 A    
O6    C2    1.238845 A    
Zn1   O20   1.900120 S    
C25   C41   1.237401 T    
C198  H65   1.109886 S    
Zn2   O19   1.900120 S    
C139  C175  1.413750 A    
C62   C67   1.237386 T    
C32   C48   1.237402 T    
C39   C55   1.237407 T    
C63   C66   1.237388 T    
C131  C171  1.413746 A    
C194  H52   1.110496 S    
C135  C171  1.413744 A    
C132  C172  1.413744 A    
C77   C89   1.420817 A    
C105  C106  1.425227 A    
C196  H59   1.109886 S    
C145  C161  1.426182 A    
C142  C174  1.413743 A    
Zn16  O34   1.807431 S    
C179  H9    1.110524 S    
C129  C169  1.413742 A    
C199  H68   1.109888 S    
C31   C47   1.237407 T    
C191  H45   1.110526 S    
Zn5   O1    1.871005 S    
C133  C149  1.421096 A    
Zn4   O46   1.807429 S    
C178  H6    1.108084 S    
C101  C109  1.421031 A    
Zn11  O26   1.807429 S    
C188  H34   1.110045 S    
C185  H26   1.110046 S    
C104  C112  1.421030 A    
C114  C117  1.407164 A    
C159  C167  1.426173 A    
C156  C168  1.426194 A    
C153  C201  1.519500 S    
C123  Cl11  1.777719 S    
Zn16  O1    1.871009 S    
C124  Cl12  1.777718 S    
C90   C106  1.421031 A    
N7    C172  1.453005 S    
C89   C113  1.420795 A    
O32   C20   1.261203 A    
C87   O67   1.346932 S    
C59   C70   1.237388 T    
C192  H47   1.108084 S    
C153  C165  1.426185 A    
C22   C29   1.488754 S    
Zn4   O13   1.900120 S    
C120  Cl8   1.777721 S    
Zn16  O21   1.807429 S    
Zn5   O16   1.900120 S    
C181  H14   1.108084 S    
Zn6   O15   1.900120 S    
C195  H56   1.109886 S    
N2    C173  1.453005 S    
C9    C34   1.488732 S    
O12   C4    1.238854 A    
C100  C124  1.420795 A    
C79   O59   1.346934 S    
C130  C170  1.413741 A    
C189  H38   1.110046 S    
C82   N6    1.364993 A    
C201  H74   1.109886 S    
O7    C3    1.238854 A    
C54   C70   1.463370 S    
C205  H87   1.106315 S    
C94   C118  1.420792 A    
C191  H43   1.110051 S    
C142  C190  1.516590 S    
O21   C9    1.261206 A    
C26   C42   1.237407 T    
Zn9   O24   1.807429 S    
C51   C67   1.463370 S    
Zn10  O23   1.807431 S    
C151  C199  1.519501 S    
O23   C11   1.261210 A    
O39   C17   1.261206 A    
C177  H1    1.110520 S    
Zn7   O49   1.807429 S    
C28   C44   1.237401 T    
Zn9   O4    1.871004 S    
O15   C7    1.238854 A    
C122  Cl10  1.777717 S    
Zn10  O3    1.871009 S    
O25   C13   1.261206 A    
C154  C202  1.519502 S    
C93   C105  1.421032 A    
O18   C6    1.238853 A    
Zn9   O31   1.807431 S    
Zn10  O32   1.807429 S    
C80   C92   1.420817 A    
Zn7   O18   1.900120 S    
Zn11  O29   1.807431 S    
C81   N5    1.364997 A    
C194  H54   1.109884 S    
Zn12  O25   1.807431 S    
C202  H76   1.110493 S    
C139  C187  1.516591 S    
C87   C99   1.420818 A    
C88   C100  1.420818 A    
O41   C23   1.261213 A    
C56   C72   1.463350 S    
C157  C165  1.426186 A    
C104  C128  1.420795 A    
C141  C189  1.516587 S    
C76   C96   1.420817 A    
C33   C49   1.237404 T    
C207  H92   1.106324 S    
C136  C184  1.516590 S    
C75   C95   1.420816 A    
C111  C112  1.425227 A    
C109  C110  1.425227 A    
C40   C56   1.237401 T    
C187  H31   1.110052 S    
C44   C60   1.463350 S    
C134  C150  1.421100 A    
Zn3   O42   1.807429 S    
C182  H16   1.110045 S    
C129  C145  1.421101 A    
C144  C176  1.413743 A    
C116  Cl4   1.777723 S    
Zn7   O38   1.807431 S    
C52   C68   1.463348 S    
C136  C172  1.413743 A    
C76   O56   1.346937 S    
Zn8   O50   1.807431 S    
Zn2   O2    1.871009 S    
C180  H10   1.108086 S    
O26   C14   1.261213 A    
C143  C159  1.421097 A    
C79   N3    1.364997 A    
C47   C63   1.463370 S    
C183  H19   1.108085 S    
C134  C182  1.516589 S    
C204  H83   1.106316 S    
O19   C7    1.238856 A    
Zn8   O4    1.871009 S    
C45   C61   1.463348 S    
C201  H73   1.110493 S    
C177  H3    1.108084 S    
C197  H62   1.109885 S    
C135  C151  1.421100 A    
O49   C15   1.261213 A    
O13   C5    1.238857 A    
C117  Cl5   1.777719 S    
N8    C171  1.453005 S    
C157  C205  1.519501 S    
C148  C164  1.426189 A    
O20   C8    1.238854 A    
C83   C103  1.420818 A    
N5    C170  1.453005 S    
C91   C107  1.421031 A    
C64   C65   1.237368 T    
C186  H29   1.110046 S    
C136  C152  1.421096 A    
Zn4   O41   1.807431 S    
O24   C12   1.261203 A    
C208  H95   1.106318 S    
C134  C170  1.413742 A    
C34   C50   1.237407 T    
C82   C102  1.420818 A    
C202  H78   1.106313 S    
C149  C197  1.519502 S    
C78   C90   1.420818 A    
C193  H50   1.106318 S    
O35   C23   1.261210 A    
Zn1   O47   1.807431 S    
C206  H89   1.109883 S    
Zn2   O48   1.807429 S    
Zn3   O45   1.807431 S    
Zn6   O2    1.871007 S    
C98   C122  1.420794 A    
C15   C36   1.488754 S    
C125  Cl13  1.777716 S    
C75   N3    1.364999 A    
Zn15  O10   1.900120 S    
C92   C108  1.421036 A    
C141  C173  1.413739 A    
Zn12  O5    1.900120 S    
C130  C146  1.421100 A    
C24   C27   1.488732 S    
Zn13  O8    1.900120 S    
C90   C114  1.420791 A    
Zn14  O7    1.900120 S    
Zn3   O14   1.900120 S    
O29   C17   1.261203 A    
C60   C69   1.237368 T    
Zn15  O22   1.807431 S    
C154  C166  1.426185 A    
C203  H81   1.109891 S    
C61   C68   1.237368 T    
C17   C26   1.488732 S    
C96   C108  1.421034 A    
C182  H18   1.110522 S    
C122  C125  1.407164 A    
C81   C101  1.420817 A    
C37   C53   1.237402 T    
C8    C161  1.506137 S    
C200  H70   1.110496 S    
C84   N8    1.364995 A    
C41   C57   1.463350 S    
C83   N7    1.364996 A    
C102  C126  1.420797 A    
C43   C59   1.463370 S    
C150  C162  1.426183 A    
C180  H12   1.110522 S    
C86   O66   1.346933 S    
C29   C45   1.237404 T    
C198  H64   1.106315 S    
O47   C9    1.261203 A    
C183  H21   1.110524 S    
O17   C5    1.238859 A    
C13   C38   1.488732 S    
C35   C51   1.237407 T    
O33   C21   1.261203 A    
C155  C167  1.426173 A    
Zn4   O4    1.871007 S    
C196  H58   1.110494 S    
Zn11  O6    1.900120 S    
C89   C105  1.421030 A    
C121  Cl9   1.777717 S    
C179  H8    1.110048 S    
C27   C43   1.237407 T    
C199  H67   1.110498 S    
C98   C110  1.421031 A    
C123  C128  1.407159 A    
C124  C127  1.407164 A    
C160  C208  1.519502 S    
Zn6   O52   1.807431 S    
C178  H5    1.110045 S    
Zn8   O17   1.900120 S    
C82   O62   1.346932 S    
C185  H25   1.108088 S    
O36   C24   1.261203 A    
O50   C16   1.261206 A    
C150  C198  1.519498 S    
C88   N8    1.364997 A    
N4    C175  1.453005 S    
C158  C206  1.519502 S    
C16   C35   1.488732 S    
C192  H46   1.110045 S    
C158  C166  1.426185 A    
O30   C18   1.261213 A    
