data_mof_unit_pretest_1233.cif
_audit_creation_date              2012-12-11T15:48:05-0500
_audit_creation_method            fapswitch 2.2
_symmetry_space_group_name_H-M    P1
_symmetry_Int_Tables_number       1
_space_group_crystal_system       triclinic
_cell_length_a                    6.939639
_cell_length_b                    17.508732
_cell_length_c                    19.498915
_cell_angle_alpha                 108.430908
_cell_angle_beta                  89.745367
_cell_angle_gamma                 90.410499
_cell_volume                      2247.61121989

loop_
_atom_site_label
_atom_site_type_symbol
_atom_type_description
_atom_site_fract_x
_atom_site_fract_y
_atom_site_fract_z
_atom_type_partial_charge
O1    O     O_R   0.494330 0.415710 0.413720 -0.542106
O2    O     O_R   0.819360 0.430070 0.560210 -0.542598
O3    O     O_R   0.994320 0.584290 0.586280 -0.542230
C1    C     C_R   0.650449 0.414477 0.581305 0.707614
O4    O     O_R   0.823740 0.406290 0.412670 -0.543049
O5    O     O_R   0.998730 0.560340 0.437690 -0.538159
C2    C     C_R   0.654754 0.383132 0.384686 0.686331
O6    O     O_R   0.489920 0.439660 0.562310 -0.536703
O7    O     O_3   0.662330 0.550570 0.508380 -0.370201
V1    V     V_3+5 0.935370 0.490620 0.498440 1.403614
O8    O     O_R   0.328720 0.569930 0.439790 -0.541524
C3    C     C_R   0.160324 0.585186 0.418363 0.712528
O9    O     O_R   0.324340 0.593710 0.587330 -0.543563
C4    C     C_R   0.155313 0.616478 0.615579 0.689128
V2    V     V_3+5 0.435940 0.509380 0.501560 1.403062
O10   O     O_3   0.159110 0.449430 0.491620 -0.369665
C5    C     C_R   0.312368 0.720913 0.720773 -0.163148
H1    H     H_    0.453233 0.700440 0.698775 0.115554
C6    C     C_R   0.301047 0.784651 0.785743 -0.162890
H2    H     H_    0.433837 0.811442 0.811627 0.118353
C7    C     C_R   0.121249 0.813568 0.816629 -0.045795
C8    C     C_R   0.953140 0.776308 0.781065 -0.170606
H3    H     H_    0.812263 0.796558 0.803198 0.117017
C9    C     C_R   0.964461 0.712594 0.716086 -0.163914
H4    H     H_    0.831668 0.685620 0.690344 0.119616
C10   C     C_R   0.144227 0.684281 0.684774 -0.040469
C11   C     C_R   0.297954 0.627492 0.317097 -0.201636
C12   C     C_R   0.152072 0.634153 0.368802 -0.085073
C13   C     C_R   0.996458 0.686126 0.371570 -0.214866
C14   C     C_R   0.989062 0.732628 0.324579 0.095172
C15   C     C_R   0.136816 0.725703 0.272852 0.041714
C16   C     C_R   0.289150 0.671732 0.268341 0.079791
C17   C     C_R   0.835677 0.785452 0.328037 -0.192937
C18   C     C_R   0.829036 0.831488 0.281150 -0.191066
C19   C     C_R   0.975343 0.825391 0.229735 0.101730
C20   C     C_R   0.130544 0.771938 0.225110 0.027342
C21   C     C_R   0.276230 0.763479 0.171939 0.039171
C22   C     C_R   0.421881 0.704174 0.164201 -0.005476
C23   C     C_R   0.427611 0.660663 0.213838 -0.208630
C24   C     C_R   0.965457 0.870127 0.181577 -0.197223
C25   C     C_R   0.113377 0.865727 0.131247 -0.079475
C26   C     C_R   0.270576 0.814508 0.128413 -0.231293
H5    H     H_    0.416082 0.586208 0.313653 0.123999
H6    H     H_    0.882632 0.691221 0.411017 0.125209
H7    H     H_    0.720254 0.790974 0.366886 0.132899
H8    H     H_    0.708148 0.871388 0.284632 0.131876
H9    H     H_    0.844504 0.909874 0.184338 0.117814
H10   H     H_    0.386881 0.814503 0.091391 0.138526
H11   H     H_    0.537580 0.615494 0.208603 0.133594
C27   C     C_R   0.768675 0.193300 0.876467 -0.151008
C28   C     C_R   0.621928 0.135747 0.869997 -0.100607
C29   C     C_R   0.477634 0.127329 0.817961 -0.177067
C30   C     C_R   0.482515 0.173466 0.770931 0.129223
C31   C     C_R   0.631428 0.230868 0.776978 0.004706
C32   C     C_R   0.772637 0.243042 0.831608 0.035818
C33   C     C_R   0.339534 0.163205 0.718112 -0.181905
C34   C     C_R   0.344094 0.208473 0.670701 -0.201868
C35   C     C_R   0.491781 0.264869 0.675200 0.107648
C36   C     C_R   0.636446 0.276544 0.728811 0.024184
C37   C     C_R   0.782488 0.334931 0.734950 -0.001497
C38   C     C_R   0.914872 0.352418 0.793461 -0.069130
C39   C     C_R   0.910425 0.305718 0.841252 0.219643
C40   C     C_R   0.493473 0.311360 0.628285 -0.206300
C41   C     C_R   0.643526 0.366187 0.631333 -0.081866
C42   C     C_R   0.789544 0.375673 0.682931 -0.211862
H12   H     H_    0.876694 0.199445 0.917666 0.175086
H13   H     H_    0.363053 0.083495 0.813163 0.115676
H14   H     H_    0.223627 0.120070 0.713500 0.126752
H15   H     H_    0.231250 0.199645 0.630652 0.131524
H16   H     H_    0.380592 0.303625 0.588341 0.121176
H17   H     H_    0.906517 0.416737 0.682823 0.138910
C43   C     C_R   0.811399 0.276333 0.281554 -0.150790
H18   H     H_    0.951959 0.295489 0.304784 0.116600
C44   C     C_R   0.800313 0.212562 0.216599 -0.143288
H19   H     H_    0.932867 0.184463 0.191940 0.119345
C45   C     C_R   0.621000 0.185409 0.184086 -0.045565
C46   C     C_R   0.453086 0.223862 0.218414 -0.144865
H20   H     H_    0.312535 0.204704 0.195174 0.119260
C47   C     C_R   0.464172 0.287639 0.283374 -0.149168
H21   H     H_    0.331631 0.315749 0.308035 0.119192
C48   C     C_R   0.643486 0.314761 0.315905 -0.048493
O11   O     O_R   0.774940 0.060470 0.937800 -0.539453
O12   O     O_R   0.440880 0.093730 0.087350 -0.541649
O13   O     O_R   0.266130 0.939630 0.062280 -0.541821
C49   C     C_R   0.609813 0.116976 0.115350 0.691685
O14   O     O_R   0.445480 0.069960 0.939820 -0.533840
O15   O     O_R   0.270770 0.915690 0.913690 -0.543607
C50   C     C_R   0.614427 0.085610 0.918662 0.717886
O16   O     O_R   0.770300 0.084410 0.086380 -0.542157
O17   O     O_3   0.602600 0.949510 0.991670 -0.373407
V3    V     V_3+5 0.329470 0.009370 0.001550 1.425246
O18   O     O_R   0.940760 0.906160 0.912560 -0.544645
C51   C     C_R   0.109970 0.882640 0.884921 0.679480
O19   O     O_R   0.936150 0.929930 0.060100 -0.540795
C52   C     C_R   0.104552 0.915123 0.081954 0.702473
V4    V     V_3+5 0.828930 0.990450 0.998310 1.410926
O20   O     O_3   0.105670 0.050490 0.008320 -0.363290
C53   C     C_R   0.565289 0.682839 0.103805 0.098293
C54   C     C_R   0.509010 0.670569 0.031735 -0.123235
C55   C     C_R   0.646350 0.652373 0.976292 -0.107848
C56   C     C_R   0.839303 0.642864 0.991532 -0.092605
C57   C     C_R   0.894909 0.649773 0.061791 -0.081668
C58   C     C_R   0.758944 0.669282 0.117498 -0.112556
H22   H     H_    0.359385 0.675499 0.018306 0.105140
H23   H     H_    0.603474 0.645606 0.921497 0.099098
H24   H     H_    0.945689 0.629396 0.948965 0.117227
H25   H     H_    0.043505 0.640044 0.073133 0.124554
H26   H     H_    0.805331 0.673812 0.171427 0.120495
C59   C     C_R   0.053413 0.421106 0.805933 0.147904
C60   C     C_R   0.252383 0.407632 0.804822 -0.051215
C61   C     C_R   0.382679 0.470214 0.809538 -0.103456
C62   C     C_R   0.315996 0.546755 0.814359 -0.107160
C63   C     C_R   0.118499 0.561598 0.817499 -0.150514
C64   C     C_R   0.987682 0.499591 0.814677 -0.143110
H27   H     H_    0.306013 0.348511 0.800102 0.146998
H28   H     H_    0.535107 0.458952 0.808708 0.118318
H29   H     H_    0.416960 0.594547 0.815714 0.099827
H30   H     H_    0.066579 0.621139 0.822044 0.126918
H31   H     H_    0.835433 0.512399 0.816833 0.101397
Br1   Br    Br    0.081171 0.332933 0.923948 -0.572655

loop_
_geom_bond_atom_site_label_1
_geom_bond_atom_site_label_2
_ccdc_geom_bond_type
C24   H9    S    
C56   C57   A    
O15   V3    S    
C17   H7    S    
C25   C26   A    
C61   C62   A    
C1    O6    A    
C38   C59   S    
C34   C35   A    
C46   H20   S    
C55   H23   S    
C21   C22   A    
C44   C45   A    
C3    C12   S    
C5    C10   A    
C20   C21   A    
C6    C7    A    
C9    C10   A    
O14   V3    S    
C15   C20   A    
O5    C3    A    
C14   C15   A    
O14   C50   A    
C53   C58   A    
C32   C39   A    
O18   V4    S    
C33   C34   A    
C18   C19   A    
C16   C23   A    
C21   C26   A    
C60   C61   A    
C55   C56   A    
C45   C49   S    
O8    V2    S    
C19   C20   A    
C61   H28   S    
C18   H8    S    
O13   V3    S    
O7    V1    S    
C39   Br1   S    
C43   C48   A    
C22   C53   S    
C38   C39   A    
C54   H22   S    
C36   C37   A    
O9    C4    A    
O19   C52   A    
C62   C63   A    
C17   C18   A    
C31   C36   A    
C46   C47   A    
C22   C23   A    
O11   V4    S    
C44   H19   S    
C28   C29   A    
C9    H4    S    
C43   C44   A    
C47   C48   A    
C49   O16   A    
C27   C28   A    
C35   C36   A    
C33   H14   S    
O17   V4    S    
C4    C10   S    
C40   C41   A    
C37   C38   A    
O13   C52   A    
O2    C1    A    
C13   C14   A    
C15   C16   A    
C40   H16   S    
V4    O20   S    
C5    H1    S    
C57   H25   S    
C26   H10   S    
V3    O20   S    
O19   V4    S    
C27   H12   S    
C58   H26   S    
O3    C4    A    
C59   C64   A    
O1    V2    S    
C24   C25   A    
C2    C48   S    
C37   C42   A    
O6    V2    S    
O9    V2    S    
C13   H6    S    
C8    C9    A    
C47   H21   S    
O2    V1    S    
C56   H24   S    
C29   C30   A    
O4    C2    A    
C63   C64   A    
C30   C33   A    
C35   C40   A    
C31   C32   A    
C12   C13   A    
C14   C17   A    
O12   C49   A    
C11   C16   A    
O1    C2    A    
C64   H31   S    
C29   H13   S    
C43   H18   S    
C28   C50   S    
O5    V1    S    
O8    C3    A    
C23   H11   S    
C30   C31   A    
O12   V3    S    
C1    C41   S    
C27   C32   A    
C54   C55   A    
C62   H29   S    
C41   C42   A    
C6    H2    S    
C19   C24   A    
O7    V2    S    
O4    V1    S    
O3    V1    S    
C42   H17   S    
C59   C60   A    
C45   C46   A    
O17   V3    S    
C25   C52   S    
C7    C51   S    
O16   V4    S    
O11   C50   A    
O15   C51   A    
O18   C51   A    
C5    C6    A    
C57   C58   A    
C63   H30   S    
C11   H5    S    
C53   C54   A    
C11   C12   A    
C8    H3    S    
V1    O10   S    
C34   H15   S    
C7    C8    A    
C60   H27   S    
V2    O10   S    
