data_mof_unit_pretest_1462.cif
_audit_creation_date              2012-12-10T19:45:51-0500
_audit_creation_method            fapswitch 2.2
_symmetry_space_group_name_H-M    P1
_symmetry_Int_Tables_number       1
_space_group_crystal_system       triclinic
_cell_length_a                    10.776659
_cell_length_b                    15.010444
_cell_length_c                    14.149493
_cell_angle_alpha                 91.165328
_cell_angle_beta                  103.884276
_cell_angle_gamma                 89.946237
_cell_volume                      2221.5036195

loop_
_atom_site_label
_atom_site_type_symbol
_atom_type_description
_atom_site_fract_x
_atom_site_fract_y
_atom_site_fract_z
_atom_type_partial_charge
C1    C     C_R   0.500720 0.328036 0.498890 0.882032
C2    C     C_R   0.497262 0.672584 0.500182 0.875850
C3    C     C_R   0.497553 0.048899 0.491058 0.060332
C4    C     C_R   0.497052 0.953641 0.498323 0.062936
C5    C     C_R   0.445455 0.434791 0.091100 -0.273633
C6    C     C_R   0.616396 0.489415 0.915263 -0.313419
C7    C     C_R   0.441247 0.434470 0.189637 0.000010
C8    C     C_R   0.611738 0.486439 0.815086 0.010882
C9    C     C_R   0.564558 0.566538 0.220842 -0.043479
C10   C     C_R   0.389934 0.514775 0.777027 -0.048195
C11   C     C_R   0.571110 0.570327 0.122741 -0.082688
C12   C     C_R   0.388857 0.517268 0.876890 -0.068531
C13   C     C_R   0.510086 0.503201 0.055532 0.075514
C14   C     C_R   0.505197 0.505645 0.948117 0.089194
C15   C     C_R   0.258692 0.501935 0.459664 0.926570
C16   C     C_R   0.741225 0.502967 0.540489 0.970832
C17   C     C_2   0.122239 0.512786 0.437049 -0.389653
C18   C     C_2   0.877685 0.514406 0.563793 -0.385858
C19   C     C_2   0.068076 0.534017 0.509525 -0.171649
C20   C     C_2   0.932116 0.534919 0.492050 -0.151199
C21   C     C_R   0.405436 0.094708 0.526406 -0.257758
C22   C     C_R   0.426180 0.906306 0.418323 -0.256937
C23   C     C_R   0.401689 0.186569 0.525893 0.077964
C24   C     C_R   0.418856 0.814432 0.418998 0.092103
C25   C     C_R   0.497764 0.232312 0.493998 -0.128229
C26   C     C_R   0.492659 0.769472 0.500800 -0.136187
C27   C     C_R   0.587122 0.186202 0.452140 -0.084584
C28   C     C_R   0.561952 0.818186 0.583915 -0.085589
C29   C     C_R   0.583108 0.092714 0.446138 0.072794
C30   C     C_R   0.558070 0.911645 0.585042 0.068766
H1    H     H_    0.876789 0.544171 0.417733 0.186875
H2    H     H_    0.123398 0.543437 0.584137 0.177161
H3    H     H_    0.933467 0.504664 0.637822 0.145170
H4    H     H_    0.066487 0.503605 0.362554 0.148465
H5    H     H_    0.334923 0.057973 0.553563 0.147459
H6    H     H_    0.373505 0.942439 0.355739 0.139246
H7    H     H_    0.396992 0.382385 0.042367 0.148807
H8    H     H_    0.706374 0.477393 0.966838 0.136367
H9    H     H_    0.390948 0.381666 0.215921 0.121231
H10   H     H_    0.698611 0.473902 0.791634 0.132057
H11   H     H_    0.611315 0.617455 0.272409 0.139021
H12   H     H_    0.301894 0.524980 0.722948 0.124503
N1    N     N_R   0.500000 0.499980 0.252470 -0.093898
N2    N     N_R   0.500000 0.500020 0.747530 -0.088137
O1    O     O_R   0.500010 0.369070 0.579480 -0.617210
O2    O     O_R   0.499990 0.630930 0.420520 -0.636181
O3    O     O_R   0.500010 0.369060 0.420520 -0.617852
O4    O     O_R   0.499990 0.630940 0.579480 -0.602368
O5    O     O_R   0.317810 0.500010 0.549800 -0.630958
O6    O     O_R   0.682190 0.499990 0.450200 -0.606860
O7    O     O_R   0.317810 0.500000 0.390840 -0.614180
O8    O     O_R   0.682190 0.500000 0.609160 -0.623556
Zn1   Zn    Zn3+2 0.500000 0.500010 0.606140 0.939353
Zn2   Zn    Zn3+2 0.500000 0.499990 0.393860 0.935782
C31   C     C_R   0.637502 0.647228 0.093807 0.115967
C32   C     C_R   0.765601 0.639957 0.089086 -0.169345
C33   C     C_R   0.831470 0.714781 0.069118 -0.155704
C34   C     C_R   0.770578 0.797354 0.055122 -0.100903
C35   C     C_R   0.643756 0.805401 0.061711 -0.150453
C36   C     C_R   0.577599 0.730787 0.081777 -0.180043
H13   H     H_    0.814737 0.576880 0.102502 0.114384
H14   H     H_    0.929615 0.708873 0.064255 0.122390
H15   H     H_    0.821782 0.855089 0.039526 0.121505
H16   H     H_    0.597042 0.869568 0.052045 0.124756
H17   H     H_    0.480718 0.738600 0.089578 0.114282
C37   C     C_R   0.265150 0.527860 0.904678 0.109136
C38   C     C_R   0.162541 0.470318 0.864291 -0.186196
C39   C     C_R   0.050848 0.472978 0.898004 -0.140775
C40   C     C_R   0.040739 0.533167 0.972282 -0.133577
C41   C     C_R   0.139902 0.593339 0.009956 -0.145597
C42   C     C_R   0.250991 0.591436 0.975563 -0.120191
H18   H     H_    0.170496 0.421711 0.808891 0.128656
H19   H     H_    0.973055 0.427360 0.867723 0.123223
H20   H     H_    0.955604 0.533565 0.999962 0.109063
H21   H     H_    0.131660 0.640830 0.066575 0.120290
H22   H     H_    0.326929 0.638135 0.005705 0.116697
C43   C     C_3   0.289214 0.232014 0.553515 -0.405215
C44   C     C_3   0.303111 0.231829 0.663845 -0.299471
C45   C     C_3   0.182469 0.267243 0.689602 -0.934502
H23   H     H_    0.163122 0.336309 0.663336 0.261999
H24   H     H_    0.099179 0.224176 0.655853 0.258272
H25   H     H_    0.195292 0.267101 0.769814 0.248273
H26   H     H_    0.320372 0.162993 0.691435 0.207796
H27   H     H_    0.385828 0.274201 0.700714 0.240440
H28   H     H_    0.276407 0.301380 0.527296 0.197631
H29   H     H_    0.200132 0.196003 0.516191 0.193662
C46   C     C_3   0.325310 0.768973 0.333913 -0.415361
C47   C     C_3   0.207327 0.735204 0.365257 -0.304088
C48   C     C_3   0.112205 0.690525 0.280179 -0.894605
H30   H     H_    0.082350 0.738058 0.219948 0.251861
H31   H     H_    0.155935 0.630991 0.253508 0.266932
H32   H     H_    0.026077 0.669273 0.304067 0.255382
H33   H     H_    0.235822 0.686983 0.424819 0.217590
H34   H     H_    0.159473 0.792281 0.393013 0.215784
H35   H     H_    0.291817 0.816848 0.274201 0.181512
H36   H     H_    0.371108 0.715055 0.300059 0.227260
C49   C     C_R   0.686320 0.235535 0.417217 0.142710
C50   C     C_R   0.661780 0.263581 0.320389 -0.111549
C51   C     C_R   0.755022 0.310411 0.287814 -0.133232
C52   C     C_R   0.873448 0.328736 0.351348 -0.103663
C53   C     C_R   0.898438 0.301045 0.447811 -0.128699
C54   C     C_R   0.805022 0.254779 0.480932 -0.182156
H37   H     H_    0.570444 0.249311 0.270565 0.110501
H38   H     H_    0.735582 0.332291 0.213281 0.124376
H39   H     H_    0.945822 0.364295 0.325732 0.116189
H40   H     H_    0.990040 0.315750 0.496875 0.144440
H41   H     H_    0.825073 0.233768 0.555845 0.118389
C55   C     C_R   0.642653 0.771760 0.667841 0.159391
C56   C     C_R   0.592941 0.750411 0.747597 -0.129454
C57   C     C_R   0.666831 0.702790 0.824396 -0.113615
C58   C     C_R   0.790369 0.676273 0.822091 -0.113185
C59   C     C_R   0.840379 0.697115 0.742814 -0.128780
C60   C     C_R   0.766571 0.744687 0.665507 -0.165759
H42   H     H_    0.496594 0.769602 0.749363 0.113982
H43   H     H_    0.627377 0.685345 0.884925 0.163667
H44   H     H_    0.846672 0.638936 0.881365 0.134550
H45   H     H_    0.935780 0.675813 0.740974 0.134594
H46   H     H_    0.805167 0.759794 0.603653 0.117219
C61   C     C_3   0.660877 0.040977 0.386154 -0.410736
C62   C     C_3   0.785604 0.003737 0.448363 -0.348066
C63   C     C_3   0.867155 0.961760 0.384905 -0.884139
H47   H     H_    0.813844 0.906791 0.338857 0.267101
H48   H     H_    0.894286 0.012594 0.337446 0.262010
H49   H     H_    0.955777 0.934116 0.431997 0.244025
H50   H     H_    0.841540 0.057973 0.493892 0.220178
H51   H     H_    0.763609 0.951518 0.496222 0.224817
H52   H     H_    0.602806 0.985648 0.344689 0.198390
H53   H     H_    0.683225 0.083556 0.329226 0.204931
C64   C     C_3   0.612223 0.965544 0.678803 -0.412946
C65   C     C_3   0.749849 0.996590 0.687454 -0.341030
C66   C     C_3   0.808467 0.036071 0.788521 -0.896661
H54   H     H_    0.750937 0.093513 0.804208 0.260311
H55   H     H_    0.812850 0.984857 0.844823 0.261937
H56   H     H_    0.907090 0.059643 0.791835 0.247040
H57   H     H_    0.809568 0.939707 0.673603 0.222454
H58   H     H_    0.750504 0.048863 0.633360 0.221840
H59   H     H_    0.551512 0.024271 0.683913 0.197536
H60   H     H_    0.607915 0.926227 0.743397 0.203883

loop_
_geom_bond_atom_site_label_1
_geom_bond_atom_site_label_2
_ccdc_geom_bond_type
C31   C32   A    
C53   C54   A    
C32   H13   S    
C5    H7    S    
C10   H12   S    
C19   C20   S    
C46   C47   S    
C66   H56   S    
C49   C50   A    
C33   H14   S    
C43   C44   S    
C55   C56   A    
C29   C61   S    
C35   H16   S    
O6    Zn2   S    
C24   C26   A    
C59   H45   S    
C62   H51   S    
C27   C29   A    
C50   H37   S    
C34   H15   S    
C32   C33   A    
C38   H18   S    
C3    C29   A    
C57   C58   A    
C63   H49   S    
C44   H26   S    
C64   H60   S    
C65   H57   S    
C39   C40   A    
C46   H35   S    
C6    H8    S    
C58   H44   S    
C7    N1    A    
C48   H31   S    
C5    C13   A    
C49   C54   A    
C61   H53   S    
C15   O5    A    
C51   H38   S    
O1    Zn1   S    
C35   C36   A    
C31   C36   A    
C1    C25   S    
C19   H2    S    
N2    Zn1   S    
C59   C60   A    
C24   C46   S    
O4    Zn1   S    
C47   H34   S    
C9    N1    A    
C10   N2    A    
C38   C39   A    
C16   O8    A    
C54   H41   S    
C5    C7    A    
C62   H50   S    
C1    O3    A    
C6    C8    A    
C2    O4    A    
C39   H19   S    
C12   C37   S    
C2    O2    A    
C60   H46   S    
C55   C60   A    
C6    C14   A    
C4    C22   A    
N1    Zn2   S    
C37   C42   A    
C46   H36   S    
O2    Zn2   S    
C52   H39   S    
C40   H20   S    
C2    C26   S    
C23   C43   S    
C48   H32   S    
C9    C11   A    
C63   H47   S    
C41   C42   A    
C10   C12   A    
C56   H42   S    
O3    Zn2   S    
C12   C14   A    
C36   H17   S    
C15   O7    A    
C21   C23   A    
C22   C24   A    
C3    C21   A    
C17   H4    S    
C66   H54   S    
C11   C31   S    
O8    Zn1   S    
C45   H24   S    
C64   C65   S    
C53   H40   S    
C15   C17   S    
C47   H33   S    
C27   C49   S    
C58   C59   A    
C44   C45   S    
C9    H11   S    
C65   H58   S    
C8    N2    A    
C16   O6    A    
C66   H55   S    
C43   H29   S    
C45   H25   S    
C61   C62   S    
C21   H5    S    
C25   C27   A    
C30   C64   S    
C22   H6    S    
C26   C28   A    
C51   C52   A    
O7    Zn2   S    
C28   C30   A    
C65   C66   S    
C34   C35   A    
C56   C57   A    
C11   C13   A    
C1    O1    A    
C33   C34   A    
C42   H22   S    
C28   C55   S    
O5    Zn1   S    
C52   C53   A    
C17   C19   D    
C37   C38   A    
C18   C20   D    
C23   C25   A    
C40   C41   A    
C18   H3    S    
C63   H48   S    
C43   H28   S    
C45   H23   S    
C44   H27   S    
C64   H59   S    
C47   C48   S    
C16   C18   S    
C50   C51   A    
C41   H21   S    
C7    H9    S    
C62   C63   S    
C8    H10   S    
C48   H30   S    
C13   C14   S    
C57   H43   S    
C4    C30   A    
C3    C4    S    
C20   H1    S    
C61   H52   S    
