data_mof_unit_pretest_1509.cif
_audit_creation_date              2012-12-10T16:57:07-0500
_audit_creation_method            fapswitch 2.2
_symmetry_space_group_name_H-M    P1
_symmetry_Int_Tables_number       1
_space_group_crystal_system       triclinic
_cell_length_a                    20.829563
_cell_length_b                    16.041563
_cell_length_c                    13.140828
_cell_angle_alpha                 89.940677
_cell_angle_beta                  91.679339
_cell_angle_gamma                 89.973689
_cell_volume                      4388.97101954

loop_
_atom_site_label
_atom_site_type_symbol
_atom_type_description
_atom_site_fract_x
_atom_site_fract_y
_atom_site_fract_z
_atom_type_partial_charge
C1    C     C_R   0.620617 0.839077 0.472610 0.859063
C2    C     C_2   0.994928 0.496205 0.946637 -0.143366
C3    C     C_R   0.379229 0.159343 0.529556 0.849710
C4    C     C_R   0.379175 0.840758 0.529771 0.847608
C5    C     C_R   0.879229 0.659343 0.529556 0.849710
C6    C     C_R   0.879175 0.340757 0.529771 0.847608
C7    C     C_R   0.530602 0.999597 0.772177 0.864597
C8    C     C_R   0.030602 0.499596 0.772177 0.864597
C9    C     C_R   0.469204 0.000115 0.228478 0.843432
C10   C     C_R   0.969204 0.500115 0.228478 0.843432
C11   C     C_2   0.329694 0.778034 0.540054 -0.277332
C12   C     C_R   0.622026 0.158410 0.467720 0.860253
C13   C     C_2   0.329877 0.222327 0.538889 -0.277389
C14   C     C_2   0.829694 0.278034 0.540054 -0.277332
C15   C     C_2   0.829877 0.722327 0.538888 -0.277390
C16   C     C_2   0.285349 0.766511 0.465763 -0.215402
C17   C     C_2   0.267886 0.202260 0.526033 -0.217889
C18   C     C_2   0.785349 0.266510 0.465763 -0.215402
C19   C     C_2   0.767886 0.702259 0.526034 -0.217889
C20   C     C_2   0.674348 0.218138 0.450440 -0.380747
C21   C     C_2   0.668796 0.771883 0.469812 -0.378308
C22   C     C_2   0.174348 0.718138 0.450440 -0.380747
C23   C     C_R   0.120616 0.339077 0.472610 0.859063
C24   C     C_2   0.168796 0.271883 0.469812 -0.378308
C25   C     C_2   0.736442 0.201521 0.476043 0.023171
C26   C     C_2   0.718407 0.766173 0.538294 0.022596
C27   C     C_2   0.236442 0.701521 0.476043 0.023171
C28   C     C_2   0.218407 0.266173 0.538294 0.022596
C29   C     C_2   0.457630 0.000805 0.119092 -0.280514
C30   C     C_2   0.957630 0.500805 0.119092 -0.280515
C31   C     C_1   0.758153 0.120484 0.512950 0.260215
C32   C     C_1   0.725425 0.820668 0.626284 0.268262
C33   C     C_1   0.258153 0.620484 0.512950 0.260216
C34   C     C_R   0.122026 0.658410 0.467720 0.860253
C35   C     C_1   0.225425 0.320668 0.626284 0.268261
C36   C     C_2   0.506520 0.991472 0.056899 -0.148647
C37   C     C_2   0.006520 0.491466 0.056898 -0.148647
C38   C     C_2   0.543468 0.996353 0.882303 -0.328310
C39   C     C_2   0.043468 0.496351 0.882303 -0.328310
C40   C     C_2   0.494928 0.996208 0.946637 -0.143367
H1    H     H_    0.283823 0.806915 0.399214 0.157120
H2    H     H_    0.344552 0.286565 0.551711 0.147296
H3    H     H_    0.827832 0.243470 0.611081 0.143453
H4    H     H_    0.844552 0.786565 0.551709 0.147297
H5    H     H_    0.445538 0.000169 0.917756 0.188253
H6    H     H_    0.945538 0.500169 0.917756 0.188253
H7    H     H_    0.555036 0.981961 0.087714 0.153550
H8    H     H_    0.055035 0.481949 0.087713 0.153551
H9    H     H_    0.592913 0.993304 0.910900 0.160020
H10   H     H_    0.092913 0.493300 0.910900 0.160020
H11   H     H_    0.409326 0.013394 0.089505 0.130981
H12   H     H_    0.253879 0.139542 0.503207 0.158736
H13   H     H_    0.909327 0.513403 0.089505 0.130983
H14   H     H_    0.783823 0.306915 0.399214 0.157121
H15   H     H_    0.753879 0.639542 0.503209 0.158737
H16   H     H_    0.661625 0.278374 0.417664 0.154249
H17   H     H_    0.664355 0.726422 0.408726 0.154596
H18   H     H_    0.161625 0.778374 0.417664 0.154249
H19   H     H_    0.164355 0.226422 0.408726 0.154596
H20   H     H_    0.327832 0.743470 0.611081 0.143453
N1    N     N_1   0.775645 0.056049 0.542258 -0.196090
N2    N     N_1   0.731192 0.863871 0.696458 -0.194235
N3    N     N_1   0.275645 0.556049 0.542259 -0.196090
N4    N     N_1   0.231192 0.363871 0.696458 -0.194235
O1    O     O_3   0.500000 1.000000 0.500000 -0.492827
O2    O     O_R   0.880760 0.402800 0.590320 -0.638827
O3    O     O_R   0.577210 1.000000 0.711160 -0.635523
O4    O     O_R   0.077210 0.500000 0.711160 -0.635523
O5    O     O_R   0.475030 0.069050 0.275760 -0.633386
O6    O     O_R   0.475030 0.930950 0.275760 -0.632832
O7    O     O_R   0.975030 0.569050 0.275760 -0.633387
O8    O     O_R   0.975030 0.430950 0.275760 -0.632831
O9    O     O_R   0.632300 0.097230 0.527310 -0.631931
O10   O     O_R   0.632300 0.902770 0.527310 -0.630573
O11   O     O_R   0.132300 0.597230 0.527310 -0.631932
O12   O     O_3   1.000000 0.500000 0.500000 -0.492827
O13   O     O_R   0.132300 0.402770 0.527310 -0.630573
O14   O     O_R   0.419940 0.833680 0.459580 -0.631685
O15   O     O_R   0.419940 0.166320 0.459580 -0.636988
O16   O     O_R   0.919940 0.333680 0.459580 -0.631685
O17   O     O_R   0.919940 0.666320 0.459580 -0.636988
O18   O     O_R   0.472710 0.000000 0.737340 -0.642946
O19   O     O_R   0.972710 0.500000 0.737340 -0.642946
O20   O     O_R   0.566980 0.833700 0.422750 -0.637189
O21   O     O_R   0.566980 0.166300 0.422750 -0.637005
O22   O     O_R   0.066980 0.333700 0.422750 -0.637189
O23   O     O_R   0.066980 0.666300 0.422750 -0.637005
O24   O     O_R   0.380760 0.097200 0.590320 -0.632145
O25   O     O_R   0.380760 0.902800 0.590320 -0.638827
O26   O     O_R   0.880760 0.597200 0.590320 -0.632145
Zn1   Zn    Zn3+2 0.434690 1.000000 0.602700 0.967654
Zn2   Zn    Zn3+2 0.934690 0.500000 0.602700 0.967654
Zn3   Zn    Zn3+2 0.584000 1.000000 0.565300 0.989687
Zn4   Zn    Zn3+2 0.084000 0.500000 0.565300 0.989687
Zn5   Zn    Zn3+2 0.490640 0.098690 0.416020 0.974426
Zn6   Zn    Zn3+2 0.490640 0.901310 0.416020 0.973161
Zn7   Zn    Zn3+2 0.990640 0.598690 0.416020 0.974426
Zn8   Zn    Zn3+2 0.990640 0.401310 0.416020 0.973161

loop_
_geom_bond_atom_site_label_1
_geom_bond_atom_site_label_2
_ccdc_geom_bond_type
C25   C31   S    
C21   C26   D    
C1    C21   S    
C8    O19   A    
C14   C18   D    
O9    Zn3   S    
C20   H16   S    
C3    O15   A    
C38   H9    S    
O8    Zn8   S    
C2    H6    S    
C1    O20   A    
C26   C32   S    
O19   Zn2   S    
O7    Zn7   S    
C29   C36   D    
C12   O21   A    
C1    O10   A    
C9    O5    A    
C15   H4    S    
C20   C25   D    
O12   Zn8   S    
O13   Zn4   S    
C36   H7    S    
C4    O14   A    
O20   Zn6   S    
C19   C26   S    
C31   N1    T    
O12   Zn4   S    
C15   C19   D    
O26   Zn2   S    
C2    C39   D    
O1    Zn6   S    
C28   C35   S    
O14   Zn6   S    
C23   O22   A    
C23   C24   S    
C35   N4    T    
C8    C39   S    
O25   Zn1   S    
C5    O26   A    
C3    C13   S    
C9    C29   S    
C34   O11   A    
C10   O7    A    
C16   C27   S    
O1    Zn3   S    
C12   O9    A    
O10   Zn3   S    
C18   C25   S    
C17   H12   S    
C13   H2    S    
C40   H5    S    
C22   C34   S    
C30   H13   S    
C36   C40   S    
C9    O6    A    
O2    Zn2   S    
O12   Zn7   S    
C27   C33   S    
O18   Zn1   S    
C30   C37   D    
C37   H8    S    
O6    Zn6   S    
O15   Zn5   S    
C6    C14   S    
C5    O17   A    
C11   C16   D    
C10   C30   S    
C6    O16   A    
O24   Zn1   S    
O1    Zn5   S    
C33   N3    T    
C12   C20   S    
C23   O13   A    
C4    C11   S    
O12   Zn2   S    
C8    O4    A    
C22   C27   D    
C7    O18   A    
C11   H20   S    
C4    O25   A    
C29   H11   S    
C19   H15   S    
O1    Zn1   S    
O16   Zn8   S    
C3    O24   A    
C17   C28   S    
C24   C28   D    
O5    Zn5   S    
C22   H18   S    
C21   H17   S    
C13   C17   D    
C32   N2    T    
C38   C40   D    
O21   Zn5   S    
C2    C37   S    
O17   Zn7   S    
C24   H19   S    
C7    C38   S    
C34   O23   A    
O22   Zn8   S    
O4    Zn4   S    
C5    C15   S    
C18   H14   S    
C7    O3    A    
C6    O2    A    
C39   H10   S    
O3    Zn3   S    
C16   H1    S    
O11   Zn4   S    
C14   H3    S    
O23   Zn7   S    
C10   O8    A    
