data_mof_unit_pretest_1000.cif
_audit_creation_date              2013-03-05T15:45:05-0500
_audit_creation_method            fapswitch 2.2
_symmetry_space_group_name_H-M    P1
_symmetry_Int_Tables_number       1
_space_group_crystal_system       triclinic
_cell_length_a                    7.231199
_cell_length_b                    19.088502
_cell_length_c                    19.071109
_cell_angle_alpha                 89.99944
_cell_angle_beta                  86.880472
_cell_angle_gamma                 89.999656
_cell_volume                      2628.53694913

loop_
_atom_site_label
_atom_site_type_symbol
_atom_site_description
_atom_site_fract_x
_atom_site_fract_y
_atom_site_fract_z
_atom_type_partial_charge
O1    O     O_R   0.350610 0.187000 0.656530 -0.535246
O2    O     O_R   0.649390 0.813000 0.343470 -0.535444
O3    O     O_R   0.149390 0.687000 0.343470 -0.535452
O4    O     O_R   0.850610 0.313000 0.656530 -0.535598
O5    O     O_R   0.655920 0.179060 0.799470 -0.580146
O6    O     O_R   0.344080 0.820940 0.200530 -0.580138
O7    O     O_R   0.844080 0.679060 0.200530 -0.580156
O8    O     O_R   0.155920 0.320940 0.799470 -0.580187
O9    O     O_R   0.826150 0.314000 0.799910 -0.580623
O10   O     O_R   0.173850 0.686000 0.200090 -0.580657
O11   O     O_R   0.673850 0.814000 0.200090 -0.580695
O12   O     O_R   0.326150 0.186000 0.799910 -0.580678
C1    C     C_R   0.484858 0.161604 0.822779 0.923767
C2    C     C_R   0.515142 0.838395 0.177221 0.923738
C3    C     C_R   0.015142 0.661604 0.177221 0.923783
C4    C     C_R   0.984857 0.338396 0.822779 0.923810
O13   O     O_R   0.680230 0.178680 0.657050 -0.575446
O14   O     O_R   0.319770 0.821320 0.342950 -0.575315
O15   O     O_R   0.819770 0.678680 0.342950 -0.575338
O16   O     O_R   0.180230 0.321320 0.657050 -0.575236
C5    C     C_R   0.515093 0.161926 0.634331 1.026062
C6    C     C_R   0.484906 0.838074 0.365670 1.026129
C7    C     C_R   0.984905 0.661924 0.365668 1.026241
C8    C     C_R   0.015098 0.338070 0.634327 1.026534
O17   O     O_3   0.504860 0.294770 0.728200 -0.261995
O18   O     O_3   0.495140 0.705230 0.271800 -0.261946
O19   O     O_3   0.995140 0.794770 0.271800 -0.261910
O20   O     O_3   0.004860 0.205230 0.728200 -0.261874
V1    V     V_3+5 0.779710 0.242290 0.728230 1.305945
V2    V     V_3+5 0.220290 0.757710 0.271770 1.306002
V3    V     V_3+5 0.720290 0.742290 0.271770 1.305968
V4    V     V_3+5 0.279710 0.257710 0.728230 1.306028
C9    C     C_1   0.029591 0.611279 0.119553 -0.163596
C10   C     C_1   0.970409 0.388721 0.880448 -0.163586
C11   C     C_1   0.470409 0.111279 0.880448 -0.163608
C12   C     C_1   0.529590 0.888720 0.119552 -0.163614
C13   C     C_2   0.068192 0.522784 0.009558 -0.209649
C14   C     C_2   0.931808 0.477215 0.990442 -0.209652
C15   C     C_2   0.431807 0.022784 0.990442 -0.209646
C16   C     C_2   0.568192 0.977216 0.009558 -0.209642
C17   C     C_1   0.956660 0.429605 0.929698 0.154380
C18   C     C_1   0.043341 0.570394 0.070302 0.154380
C19   C     C_1   0.543341 0.929605 0.070302 0.154382
C20   C     C_1   0.456659 0.070394 0.929698 0.154379
C21   C     C_R   0.015605 0.389426 0.575984 -0.352745
C22   C     C_R   0.984405 0.610543 0.423991 -0.352598
C23   C     C_R   0.484411 0.889445 0.424001 -0.352564
C24   C     C_R   0.515575 0.110543 0.576010 -0.352456
H1    H     H_    0.834268 0.593224 0.595225 0.192057
H2    H     H_    0.165557 0.406738 0.404720 0.192192
H3    H     H_    0.666036 0.093220 0.404814 0.192040
H4    H     H_    0.333950 0.906782 0.595199 0.192068
C25   C     C_R   0.895506 0.578080 0.544526 -0.194471
C26   C     C_R   0.104390 0.421873 0.455431 -0.194578
C27   C     C_R   0.604694 0.078073 0.455497 -0.194452
C28   C     C_R   0.395312 0.921917 0.544517 -0.194495
C29   C     C_R   0.907259 0.628946 0.491329 0.374527
C30   C     C_R   0.092613 0.370993 0.508623 0.374422
C31   C     C_R   0.592805 0.128940 0.508688 0.374635
C32   C     C_R   0.407139 0.871050 0.491323 0.374560
C33   C     C_R   0.049358 0.541315 0.411342 -0.123833
C34   C     C_R   0.950697 0.458661 0.588633 -0.123875
C35   C     C_R   0.450516 0.041328 0.588642 -0.123826
C36   C     C_R   0.549521 0.958656 0.411377 -0.123795
C37   C     C_R   0.038446 0.490679 0.466333 0.077324
C38   C     C_R   0.961547 0.509286 0.533635 0.077445
C39   C     C_R   0.461457 0.990698 0.533647 0.077362
C40   C     C_R   0.538578 0.009287 0.466370 0.077345
C41   C     C_2   0.880286 0.478577 0.660494 0.952095
O21   O     O_2   0.739246 0.451580 0.686371 -0.605057
O22   O     O_R   0.976134 0.528254 0.698295 -0.766269
H5    H     H_    0.915533 0.537258 0.746650 0.335908
C42   C     C_2   0.119872 0.521423 0.339489 0.952149
O23   O     O_2   0.260967 0.548417 0.313657 -0.604976
O24   O     O_R   0.024051 0.471777 0.301640 -0.766315
H6    H     H_    0.084723 0.462790 0.253293 0.335903
C43   C     C_2   0.620234 0.978542 0.339548 0.952209
O25   O     O_2   0.761352 0.951526 0.313764 -0.604876
O26   O     O_R   0.524583 0.028214 0.301669 -0.766355
H7    H     H_    0.585388 0.037198 0.253344 0.335894
C44   C     C_2   0.379856 0.021440 0.660477 0.952201
O27   O     O_2   0.238791 0.048474 0.686287 -0.604922
O28   O     O_R   0.475495 0.971745 0.698333 -0.766353
H8    H     H_    0.414730 0.962761 0.746664 0.335897
C45   C     C_2   0.747188 0.472891 0.029587 1.072285
O29   O     O_2   0.648214 0.421875 0.021332 -0.618226
O30   O     O_R   0.683343 0.526712 0.074407 -0.772536
H9    H     H_    0.555837 0.516888 0.097046 0.338882
C46   C     C_2   0.252812 0.527108 0.970414 1.072261
O31   O     O_2   0.351787 0.578124 0.978669 -0.618235
O32   O     O_R   0.316657 0.473287 0.925594 -0.772541
H10   H     H_    0.444164 0.483110 0.902955 0.338886
C47   C     C_2   0.752813 0.972891 0.970414 1.072267
O33   O     O_2   0.851787 0.921875 0.978668 -0.618244
O34   O     O_R   0.816659 0.026714 0.925594 -0.772536
H11   H     H_    0.944165 0.016890 0.902956 0.338862
C48   C     C_2   0.247187 0.027108 0.029586 1.072285
O35   O     O_2   0.148212 0.078125 0.021331 -0.618234
O36   O     O_R   0.183341 0.973286 0.074405 -0.772534
H12   H     H_    0.055834 0.983109 0.097044 0.338861
N1    N     N_R   0.159695 0.301067 0.492779 0.257763
O37   O     O_R   0.275352 0.290371 0.439113 -0.313622
O38   O     O_R   0.093151 0.246860 0.526988 -0.357632
N2    N     N_R   0.839946 0.698835 0.507130 0.257493
O39   O     O_R   0.723065 0.709409 0.560421 -0.313772
O40   O     O_R   0.907298 0.753099 0.473257 -0.357457
N3    N     N_R   0.339806 0.801162 0.507112 0.257470
O41   O     O_R   0.222857 0.790589 0.560382 -0.313780
O42   O     O_R   0.407274 0.746895 0.473274 -0.357479
N4    N     N_R   0.660012 0.198839 0.492901 0.257236
O43   O     O_R   0.777390 0.209406 0.439763 -0.313875
O44   O     O_R   0.591935 0.253110 0.526567 -0.357726

loop_
_geom_bond_atom_site_label_1
_geom_bond_atom_site_label_2
_geom_bond_distance
_ccdc_geom_bond_type
O30   H9    1.014089 S    
O1    C5    1.329739 A    
N1    O37   1.302102 A    
C27   C31   1.403472 A    
O13   V1    1.985164 S    
C36   C43   1.485198 S    
O3    C7    1.329760 A    
O34   H11   1.014089 S    
C16   C47   1.495970 S    
O15   V3    1.985146 S    
N2    O40   1.301238 A    
C48   O35   1.223771 D    
C26   C37   1.408841 A    
C43   O25   1.222484 D    
C47   O33   1.223771 D    
C35   C44   1.485211 S    
C9    C18   1.221073 T    
C36   C40   1.425208 A    
O20   V1    1.775121 S    
O9    C4    1.333660 A    
C1    C11   1.459715 S    
O10   C3    1.333661 A    
C2    C12   1.459715 S    
O4    C8    1.329760 A    
O11   C2    1.333655 A    
C15   C48   1.495971 S    
C21   C34   1.418725 A    
C31   N4    1.446100 S    
C42   O23   1.222492 D    
C13   C18   1.475669 S    
C41   O22   1.397745 S    
N4    O43   1.301719 A    
C4    C10   1.459728 S    
C23   C32   1.416277 A    
C16   C19   1.475656 S    
O16   C8    1.331246 A    
O2    C6    1.329748 A    
N3    O41   1.301727 A    
C8    C21   1.482767 S    
O14   V2    1.985168 S    
C46   O32   1.398688 S    
O5    C1    1.333758 A    
O4    V1    1.969295 S    
O9    V1    1.976167 S    
C5    C24   1.482792 S    
O17   V4    1.775129 S    
O7    C3    1.333762 A    
C6    C23   1.482803 S    
O11   V3    1.976145 S    
O18   V3    1.775127 S    
C47   O34   1.398688 S    
C7    C22   1.482792 S    
O12   V4    1.976144 S    
O19   V2    1.775120 S    
N3    O42   1.301239 A    
C10   C17   1.221074 T    
N2    O39   1.301735 A    
C48   O36   1.398687 S    
C44   O27   1.222488 D    
O5    V1    1.992873 S    
C43   O26   1.397730 S    
C35   C39   1.425224 A    
C21   C30   1.416468 A    
O7    V3    1.992880 S    
C34   C38   1.425178 A    
C45   O30   1.398686 S    
C39   C40   1.416079 A    
O8    V4    1.992883 S    
C14   C17   1.475668 S    
O32   H10   1.014089 S    
C27   C40   1.408832 A    
C24   C35   1.418671 A    
C22   C33   1.418701 A    
C33   C42   1.485224 S    
C45   O29   1.223770 D    
O1    V4    1.969308 S    
O13   C5    1.331280 A    
C28   C32   1.403510 A    
C34   C41   1.485261 S    
O2    V3    1.969312 S    
O3    V2    1.969296 S    
O15   C7    1.331256 A    
O24   H6    1.013917 S    
C13   C14   1.378875 D    
C25   C38   1.408833 A    
O6    C2    1.333760 A    
O10   V2    1.976165 S    
O28   H8    1.013910 S    
C14   C45   1.495971 S    
C26   C30   1.403634 A    
C30   N1    1.446475 S    
H2    C26   1.080688 S    
C11   C20   1.221066 T    
C32   N3    1.446199 S    
O6    V2    1.992871 S    
C22   C29   1.416281 A    
C42   O24   1.397737 S    
C15   C16   1.378869 D    
C24   C31   1.416187 A    
O16   V4    1.985143 S    
C29   N2    1.446211 S    
C25   C29   1.403508 A    
O8    C4    1.333761 A    
O14   C6    1.331274 A    
C44   O28   1.397731 S    
C23   C36   1.418694 A    
C15   C20   1.475654 S    
C28   C39   1.408809 A    
O36   H12   1.014089 S    
C13   C46   1.495971 S    
O22   H5    1.013923 S    
H1    C25   1.080714 S    
H3    C27   1.080717 S    
C41   O21   1.222502 D    
N4    O44   1.301285 A    
O26   H7    1.013905 S    
C33   C37   1.425241 A    
O12   C1    1.333655 A    
N1    O38   1.301409 A    
C37   C38   1.416034 A    
C12   C19   1.221066 T    
C46   O31   1.223769 D    
C3    C9    1.459727 S    
H4    C28   1.080704 S    
