data_mof_unit_pretest_1633.cif
_audit_creation_date              2012-12-10T16:44:39-0500
_audit_creation_method            fapswitch 2.2
_symmetry_space_group_name_H-M    P1
_symmetry_Int_Tables_number       1
_space_group_crystal_system       triclinic
_cell_length_a                    18.43888
_cell_length_b                    18.482155
_cell_length_c                    18.460337
_cell_angle_alpha                 119.830669
_cell_angle_beta                  119.722815
_cell_angle_gamma                 90.398204
_cell_volume                      4462.94426711

loop_
_atom_site_label
_atom_site_type_symbol
_atom_type_description
_atom_site_fract_x
_atom_site_fract_y
_atom_site_fract_z
_atom_type_partial_charge
C1    C     C_R   0.138528 0.361450 0.000178 0.848358
C2    C     C_R   0.532576 0.281723 0.869394 0.580310
C3    C     C_R   0.585420 0.329950 0.863649 -0.146840
C4    C     C_R   0.859474 0.636624 0.998168 0.733763
C5    C     C_R   0.674340 0.336965 0.905781 -0.204949
C6    C     C_2   0.723039 0.778537 0.943171 -0.114379
C7    C     C_2   0.705363 0.818684 0.012893 -0.193796
C8    C     C_2   0.786842 0.731256 0.955171 -0.325676
C9    C     C_2   0.789803 0.676234 0.983741 0.280137
C10   C     C_2   0.723448 0.280900 0.443850 -0.157746
C11   C     C_2   0.691173 0.192227 0.387704 -0.289257
C12   C     C_R   0.824595 0.157316 0.088420 -0.151942
C13   C     C_2   0.777229 0.337070 0.556201 -0.158247
C14   C     C_2   0.808815 0.304529 0.612289 -0.290410
C15   C     C_2   0.337259 0.280900 0.057181 -0.173937
C16   C     C_R   0.138588 0.638203 0.277072 0.847327
C17   C     C_2   0.304476 0.192125 0.994812 -0.300207
C18   C     C_2   0.281038 0.337021 0.054863 -0.160763
C19   C     C_2   0.192421 0.304641 0.000811 -0.291926
C20   C     C_2   0.218046 0.780081 0.942354 -0.165908
C21   C     C_2   0.306090 0.799647 0.995003 -0.278811
C22   C     C_2   0.162171 0.720070 0.938307 -0.160935
C23   C     C_R   0.786641 0.202726 0.043508 0.070267
C24   C     C_2   0.195515 0.700241 0.006461 -0.285133
C25   C     C_2   0.218991 0.776535 0.556197 -0.155744
C26   C     C_2   0.307773 0.808918 0.612247 -0.289158
C27   C     C_2   0.162791 0.722805 0.443867 -0.152334
C28   C     C_R   0.861784 0.361423 0.722990 0.851757
C29   C     C_2   0.195441 0.691040 0.387743 -0.291546
C30   C     C_R   0.638247 0.138392 0.277007 0.848198
C31   C     C_R   0.361593 0.861750 0.722923 0.859774
C32   C     C_R   0.640499 0.863535 0.001977 0.847898
C33   C     C_R   0.361385 0.138366 0.999312 0.845633
C34   C     C_R   0.840927 0.257347 0.043672 0.069491
C35   C     C_R   0.360402 0.859623 0.999246 0.863230
C36   C     C_R   0.640430 0.139783 0.000506 0.788891
C37   C     C_R   0.139662 0.640321 0.000760 0.859860
C38   C     C_R   0.860065 0.360044 0.999943 0.782851
C39   C     C_R   0.931625 0.265160 0.089033 -0.148141
C40   C     C_R   0.967244 0.219413 0.132242 -0.133137
C41   C     C_R   0.913869 0.165597 0.131871 -0.134401
C42   C     C_3   0.415501 0.284252 0.885358 -0.268668
C43   C     C_R   0.696404 0.195806 0.000350 -0.115807
C44   C     C_R   0.659523 0.242278 0.956797 0.014441
C45   C     C_R   0.713297 0.295219 0.954982 0.063615
C46   C     C_R   0.803967 0.303526 0.999702 -0.126851
C47   C     C_R   0.569074 0.235385 0.912761 -0.286728
H1    H     H_    0.557344 0.362778 0.826506 0.181305
H2    H     H_    0.314671 0.407858 0.100876 0.179827
H3    H     H_    0.976037 0.306784 0.091992 0.124362
H4    H     H_    0.156501 0.234899 0.955964 0.152703
H5    H     H_    0.185203 0.807458 0.899332 0.179582
H6    H     H_    0.340545 0.770189 0.034471 0.157679
H7    H     H_    0.091573 0.692925 0.878408 0.179623
H8    H     H_    0.264658 0.729481 0.070115 0.152627
H9    H     H_    0.185231 0.790499 0.593544 0.179126
H10   H     H_    0.343865 0.798675 0.578313 0.152937
H11   H     H_    0.091718 0.708308 0.406592 0.184208
H12   H     H_    0.739713 0.818833 0.080603 0.193261
H13   H     H_    0.265428 0.701826 0.421623 0.153245
H14   H     H_    0.036668 0.226011 0.166475 0.137937
H15   H     H_    0.941830 0.130400 0.165831 0.137095
H16   H     H_    0.786036 0.115402 0.091001 0.123108
H17   H     H_    0.525947 0.192982 0.910193 0.139705
H18   H     H_    0.712017 0.374567 0.898329 0.160854
H19   H     H_    0.693938 0.783740 0.879127 0.176801
H20   H     H_    0.677770 0.497397 0.882793 0.320561
H21   H     H_    0.466248 0.336444 0.968059 0.161807
H22   H     H_    0.395967 0.219715 0.872360 0.155396
H23   H     H_    0.834533 0.743422 0.940835 0.159723
H24   H     H_    0.355620 0.304138 0.862361 0.199793
H25   H     H_    0.709375 0.314595 0.406575 0.179202
H26   H     H_    0.701600 0.156200 0.421578 0.154280
H27   H     H_    0.791908 0.408060 0.593529 0.178230
H28   H     H_    0.797780 0.234617 0.578372 0.153951
H29   H     H_    0.408453 0.314700 0.112102 0.179437
H30   H     H_    0.234332 0.155972 0.936931 0.154782
O1    O     O_3   0.000000 0.500000 0.000000 -0.496355
O2    O     O_R   0.325040 0.054120 0.939900 -0.644549
O3    O     O_R   0.444330 0.884140 0.060080 -0.634203
O4    O     O_R   0.054210 0.325030 0.939940 -0.643770
O5    O     O_R   0.615830 0.175840 0.060080 -0.640755
O6    O     O_R   0.324160 0.884140 0.939910 -0.646019
O7    O     O_R   0.615850 0.055700 0.939930 -0.639508
O8    O     O_R   0.614980 0.885710 0.939940 -0.651045
O9    O     O_R   0.445830 0.174930 0.060060 -0.645265
O10   O     O_R   0.614300 0.054120 0.229160 -0.642642
O11   O     O_R   0.325070 0.885060 0.770830 -0.642758
O12   O     O_R   0.054160 0.614240 0.229150 -0.638036
O13   O     O_R   0.885070 0.614240 0.060060 -0.577808
O14   O     O_R   0.174980 0.614900 0.229170 -0.645343
O15   O     O_R   0.885740 0.445830 0.770840 -0.641948
O16   O     O_R   0.175880 0.615810 0.060090 -0.643546
O17   O     O_R   0.884210 0.324110 0.939920 -0.642791
O18   O     O_R   0.055710 0.615810 0.939920 -0.644561
O19   O     O_R   0.884190 0.444260 0.060070 -0.613811
O20   O     O_2   0.729533 0.692115 0.095297 -0.259844
O21   O     O_2   0.616502 0.635590 0.916919 -0.293070
O22   O     O_3   0.696244 0.531688 0.954380 -0.529308
O23   O     O_R   0.885120 0.325030 0.770840 -0.640806
O24   O     O_3   0.443905 0.275544 0.823879 -0.607488
O25   O     O_R   0.175010 0.445830 0.060100 -0.641151
O26   O     O_R   0.885710 0.614900 0.939900 -0.664802
O27   O     O_3   0.500040 0.999960 0.000000 -0.495022
O28   O     O_R   0.614930 0.174930 0.229160 -0.641719
O29   O     O_R   0.445880 0.885710 0.770850 -0.638990
O30   O     O_R   0.614330 0.885060 0.060100 -0.621094
S1    S     S_3+6 0.705003 0.635749 0.988169 0.046352
Zn1   Zn    Zn3+2 0.956610 0.542450 0.085830 1.015978
Zn2   Zn    Zn3+2 0.129220 0.543380 0.085850 0.969851
Zn3   Zn    Zn3+2 0.957530 0.543380 0.914160 0.962386
Zn4   Zn    Zn3+2 0.956640 0.370790 0.914170 0.969973
Zn5   Zn    Zn3+2 0.543440 0.957510 0.914170 0.972581
Zn6   Zn    Zn3+2 0.542510 0.956570 0.085840 0.997307
Zn7   Zn    Zn3+2 0.370820 0.956570 0.914150 0.969949
Zn8   Zn    Zn3+2 0.543410 0.129170 0.085830 0.958062

loop_
_geom_bond_atom_site_label_1
_geom_bond_atom_site_label_2
_ccdc_geom_bond_type
C15   C18   S    
C4    C9    S    
O7    Zn5   S    
O2    Zn7   S    
C27   C29   D    
C35   O3    A    
O28   Zn8   S    
C25   H9    S    
C33   O9    A    
C23   C43   A    
C22   H7    S    
C45   C46   A    
C24   H8    S    
O22   S1    S    
C12   C23   A    
O14   Zn2   S    
O9    Zn8   S    
C1    O4    A    
C4    O26   A    
O12   Zn1   S    
C3    H1    S    
O21   S1    D    
C37   O18   A    
O26   Zn3   S    
C18   C19   D    
O10   Zn6   S    
O27   Zn8   S    
O20   S1    D    
C11   C30   S    
C36   O5    A    
C8    C9    D    
C32   O30   A    
O4    Zn4   S    
O1    Zn3   S    
C34   C46   A    
C44   C47   A    
H20   O22   S    
O16   Zn2   S    
C28   O23   A    
C15   H29   S    
C26   C31   S    
C13   C14   D    
C42   H21   S    
C17   C33   S    
C41   H15   S    
C7    H12   S    
C4    O13   A    
C1    C19   S    
O29   Zn5   S    
C34   C39   A    
O6    Zn7   S    
C5    H18   S    
C11   H26   S    
C47   H17   S    
C12   H16   S    
C35   O6    A    
C33   O2    A    
C6    C8    S    
C2    O24   S    
C16   C29   S    
C5    C45   A    
C10   C13   S    
C42   H22   S    
C40   H14   S    
C9    S1    S    
C43   C44   A    
O30   Zn6   S    
C12   C41   A    
O27   Zn7   S    
C29   H13   S    
C6    H19   S    
C23   C34   A    
C38   O17   A    
C17   H30   S    
C24   C37   S    
C37   O16   A    
O1    Zn2   S    
C13   H27   S    
O27   Zn6   S    
C40   C41   A    
C20   C22   S    
O23   Zn4   S    
C30   O28   A    
C31   O29   A    
C22   C24   D    
O25   Zn2   S    
C42   O24   S    
C31   O11   A    
C39   C40   A    
C44   C45   A    
C15   C17   D    
C7    C32   S    
O3    Zn6   S    
C3    C5    A    
C27   H11   S    
O15   Zn3   S    
C6    C7    D    
C21   C35   S    
C2    C47   A    
C25   C27   S    
O19   Zn1   S    
C8    H23   S    
C14   H28   S    
O11   Zn7   S    
O8    Zn5   S    
C2    C3    A    
C25   C26   D    
O5    Zn8   S    
C20   H5    S    
O18   Zn3   S    
C21   H6    S    
C36   O7    A    
C32   O8    A    
O17   Zn4   S    
C42   H24   S    
O1    Zn1   S    
C26   H10   S    
C38   C46   S    
C10   C11   D    
O27   Zn5   S    
C28   O15   A    
C19   H4    S    
C16   O12   A    
C39   H3    S    
C20   C21   D    
C16   O14   A    
C38   O19   A    
C36   C43   S    
O1    Zn4   S    
O13   Zn1   S    
C14   C28   S    
C30   O10   A    
C1    O25   A    
C18   H2    S    
C10   H25   S    
