data_mof_unit_pretest_945.cif
_audit_creation_date              2012-12-10T17:04:32-0500
_audit_creation_method            fapswitch 2.2
_symmetry_space_group_name_H-M    P1
_symmetry_Int_Tables_number       1
_space_group_crystal_system       triclinic
_cell_length_a                    14.950594
_cell_length_b                    10.891725
_cell_length_c                    10.091134
_cell_angle_alpha                 89.652344
_cell_angle_beta                  88.860495
_cell_angle_gamma                 89.966118
_cell_volume                      1642.86224902

loop_
_atom_site_label
_atom_site_type_symbol
_atom_type_description
_atom_site_fract_x
_atom_site_fract_y
_atom_site_fract_z
_atom_type_partial_charge
C1    C     C_R   0.501528 0.263067 0.500106 0.891487
C2    C     C_R   0.907455 0.610157 0.506315 0.045836
C3    C     C_R   0.951877 0.272697 0.519784 0.102607
C4    C     C_R   0.045408 0.271303 0.511594 0.169186
C5    C     C_R   0.093470 0.382925 0.513795 0.040022
C6    C     C_R   0.046935 0.494851 0.498349 -0.055541
C7    C     C_R   0.093622 0.606397 0.475467 0.050176
C8    C     C_R   0.044446 0.713538 0.453173 0.146124
C9    C     C_R   0.957944 0.718786 0.503165 0.132311
C10   C     C_R   0.186108 0.387844 0.533916 0.095775
C11   C     C_R   0.231782 0.497507 0.503452 -0.073563
C12   C     C_R   0.327480 0.497241 0.501212 0.901157
C13   C     C_R   0.187232 0.607749 0.475546 0.104048
C14   C     C_2   0.521508 0.936480 0.395693 0.203623
C15   C     C_2   0.489981 0.866442 0.495831 -0.295164
C16   C     C_2   0.494339 0.063331 0.396888 0.121451
C17   C     C_2   0.519648 0.133773 0.499164 -0.060060
C18   C     C_2   0.533046 0.586015 0.928788 0.278935
C19   C     C_2   0.511885 0.596430 0.073596 -0.167489
C20   C     C_R   0.500317 0.736560 0.499165 0.915429
C21   C     C_R   0.672547 0.498999 0.498692 0.908836
C22   C     C_R   0.813579 0.612344 0.510715 0.096615
C23   C     C_R   0.768174 0.500494 0.495398 -0.064973
C24   C     C_R   0.813307 0.388898 0.476021 0.085242
C25   C     C_R   0.905431 0.384279 0.499965 0.094159
C26   C     C_R   0.953058 0.495978 0.499836 -0.058596
H1    H     H_    0.449485 0.906506 0.575346 0.153424
H2    H     H_    0.511191 0.686375 0.118549 0.177917
H3    H     H_    0.521775 0.419034 0.108965 0.187502
N1    N     N_2   0.500970 0.501330 0.852150 -0.074827
N2    N     N_2   0.500990 0.501360 0.147810 -0.206801
O1    O     O_R   0.499990 0.319060 0.613040 -0.594708
O2    O     O_R   0.500010 0.319100 0.386900 -0.624658
O3    O     O_R   0.367830 0.499950 0.613080 -0.634139
O4    O     O_R   0.367860 0.499990 0.386940 -0.599452
O5    O     O_R   0.499990 0.680900 0.613100 -0.585154
O6    O     O_R   0.500010 0.680940 0.386960 -0.618591
O7    O     O_R   0.632140 0.500010 0.613060 -0.578738
O8    O     O_R   0.632170 0.500050 0.386920 -0.621270
Zn1   Zn    Zn3+2 0.499980 0.499970 0.650990 0.995924
Zn2   Zn    Zn3+2 0.500020 0.500030 0.349010 0.950474
C27   C     C_3   0.762554 0.733312 0.514019 -0.773079
H4    H     H_    0.692137 0.724631 0.484569 0.210072
H5    H     H_    0.761296 0.770436 0.615874 0.288815
H6    H     H_    0.793544 0.800804 0.444168 0.249034
C28   C     C_3   0.433312 0.105504 0.287411 -0.810038
H7    H     H_    0.407705 0.025906 0.231205 0.242635
H8    H     H_    0.374377 0.154769 0.329726 0.239688
H9    H     H_    0.470336 0.165424 0.215903 0.253195
I1    I     I_    0.604553 0.071163 0.655620 -0.361926
I2    I     I_    0.623049 0.719731 0.853420 -0.280027
C29   C     C_3   0.430995 0.418600 0.900178 -0.618507
H10   H     H_    0.392313 0.386059 0.815664 0.243799
H11   H     H_    0.460403 0.334316 0.943469 0.187225
H12   H     H_    0.382508 0.464499 0.968555 0.200606
C30   C     C_3   0.764699 0.283344 0.410808 -0.855656
H13   H     H_    0.716314 0.240998 0.481738 0.248859
H14   H     H_    0.727872 0.317312 0.323529 0.255121
H15   H     H_    0.810837 0.212959 0.370049 0.261196
C31   C     C_3   0.905642 0.159651 0.574933 -0.760927
H16   H     H_    0.838491 0.180215 0.617728 0.259117
H17   H     H_    0.900543 0.088216 0.497504 0.270269
H18   H     H_    0.944650 0.122994 0.658837 0.271106
I3    I     I_    0.106468 0.100820 0.454534 -0.358111
C32   C     C_3   0.234836 0.286682 0.607427 -0.822417
H19   H     H_    0.275049 0.325888 0.687475 0.232515
H20   H     H_    0.188304 0.224115 0.661412 0.264917
H21   H     H_    0.279587 0.235121 0.538487 0.239215
C33   C     C_3   0.240591 0.726688 0.464687 -0.800365
H22   H     H_    0.289129 0.732159 0.546326 0.218943
H23   H     H_    0.277733 0.730055 0.368370 0.253624
H24   H     H_    0.198864 0.810207 0.474599 0.275505
I4    I     I_    0.064104 0.805503 0.268767 -0.272977
I5    I     I_    0.942836 0.845961 0.659750 -0.322950
C34   C     C_3   0.584076 0.895918 0.284583 -0.783266
H25   H     H_    0.637752 0.965506 0.270386 0.242053
H26   H     H_    0.618172 0.807823 0.304526 0.241370
H27   H     H_    0.546687 0.889364 0.191064 0.236834

loop_
_geom_bond_atom_site_label_1
_geom_bond_atom_site_label_2
_ccdc_geom_bond_type
C19   N2    D    
C1    O2    A    
C7    C8    A    
O8    Zn2   S    
C22   C27   S    
C28   H9    S    
C31   H18   S    
O3    Zn1   S    
C5    C6    A    
C30   H13   S    
C31   H17   S    
C18   C19   S    
C33   H23   S    
C21   O7    A    
C16   C17   D    
C32   H20   S    
C2    C22   A    
C23   C24   A    
C18   N1    D    
C29   H12   S    
C3    C31   S    
C27   H5    S    
C29   H11   S    
C18   I2    S    
C15   C20   S    
C28   H8    S    
O5    Zn1   S    
C24   C25   A    
C16   C28   S    
C8    C9    A    
C25   C26   A    
C1    O1    A    
C31   H16   S    
C27   H6    S    
C33   H24   S    
C34   H25   S    
C15   H1    S    
C21   O8    A    
C3    C25   A    
C32   H21   S    
N1    Zn1   S    
C2    C26   A    
C12   O4    A    
C19   H2    S    
C34   H26   S    
C21   C23   S    
C14   C16   S    
C9    I5    S    
C12   O3    A    
C3    C4    A    
C29   H10   S    
C10   C32   S    
N1    C29   S    
C28   H7    S    
N2    Zn2   S    
C14   C15   D    
C4    C5    A    
C17   I1    S    
C11   C12   S    
C6    C7    A    
C24   C30   S    
C4    I3    S    
C1    C17   S    
C30   H15   S    
O2    Zn2   S    
C14   C34   S    
C5    C10   A    
H3    N2    S    
O7    Zn1   S    
C20   O6    A    
C11   C13   A    
C6    C26   A    
C13   C33   S    
C8    I4    S    
C30   H14   S    
O1    Zn1   S    
O6    Zn2   S    
C33   H22   S    
O4    Zn2   S    
C34   H27   S    
C10   C11   A    
C20   O5    A    
C7    C13   A    
C32   H19   S    
C27   H4    S    
C22   C23   A    
C2    C9    A    
