data_mof_unit_pretest_712.cif
_audit_creation_date              2012-12-10T17:24:42-0500
_audit_creation_method            fapswitch 2.2
_symmetry_space_group_name_H-M    P1
_symmetry_Int_Tables_number       1
_space_group_crystal_system       triclinic
_cell_length_a                    23.497857
_cell_length_b                    10.862702
_cell_length_c                    9.617274
_cell_angle_alpha                 91.188231
_cell_angle_beta                  90.206573
_cell_angle_gamma                 92.464533
_cell_volume                      2451.98842813

loop_
_atom_site_label
_atom_site_type_symbol
_atom_type_description
_atom_site_fract_x
_atom_site_fract_y
_atom_site_fract_z
_atom_type_partial_charge
C1    C     C_R   0.503640 0.262977 0.499452 0.807014
C2    C     C_R   0.965349 0.328847 0.354412 -0.161463
C3    C     C_R   0.024665 0.327131 0.355388 -0.159546
C4    C     C_R   0.057326 0.421162 0.424391 -0.014393
C5    C     C_R   0.029799 0.517898 0.492430 -0.016831
C6    C     C_R   0.062166 0.612799 0.561524 -0.015457
C7    C     C_R   0.034230 0.708814 0.629112 -0.157958
C8    C     C_R   0.974850 0.710117 0.628900 -0.161154
C9    C     C_R   0.117001 0.420689 0.427795 0.534583
C10   C     C_R   0.121817 0.609056 0.561080 0.536365
C11   C     C_R   0.239521 0.520364 0.372241 -0.096758
C12   C     C_R   0.391009 0.500331 0.499771 0.806445
C13   C     C_R   0.298730 0.516139 0.373115 -0.208572
C14   C     C_R   0.328363 0.503293 0.498898 -0.045520
C15   C     C_R   0.297595 0.494592 0.623673 -0.209600
C16   C     C_R   0.238319 0.498301 0.622436 -0.097104
C17   C     C_R   0.209022 0.511258 0.496761 0.348456
C18   C     C_R   0.761045 0.421195 0.567659 -0.169741
C19   C     C_R   0.701419 0.412503 0.566318 0.225102
C20   C     C_R   0.671027 0.503915 0.500037 -0.041771
C21   C     C_R   0.700623 0.600322 0.432808 -0.294430
C22   C     C_R   0.760020 0.606899 0.432530 -0.091742
C23   C     C_R   0.496231 0.737422 0.502534 0.776103
C24   C     C_R   0.790446 0.517247 0.499796 0.316801
C25   C     C_R   0.545448 0.126903 0.742766 -0.166845
C26   C     C_R   0.543987 0.072242 0.872142 -0.259969
C27   C     C_R   0.515185 0.958723 0.887559 0.069042
C28   C     C_R   0.494636 0.893513 0.769489 -0.150281
C29   C     C_R   0.502181 0.941861 0.635200 0.053245
C30   C     C_R   0.518928 0.067303 0.625604 0.094760
C31   C     C_R   0.506971 0.128910 0.500788 -0.109082
C32   C     C_R   0.488823 0.060844 0.382554 -0.220484
C33   C     C_R   0.483031 0.933664 0.386781 -0.200779
C34   C     C_R   0.608714 0.500380 0.500093 0.805068
C35   C     C_R   0.491910 0.872116 0.510252 -0.108885
C36   C     C_R   0.578325 0.658179 0.147476 -0.109951
C37   C     C_R   0.617580 0.732697 0.077084 -0.225552
C38   C     C_R   0.617200 0.733088 0.933778 -0.192171
C39   C     C_R   0.577677 0.658685 0.860050 -0.137237
C40   C     C_R   0.538412 0.577542 0.927202 0.221713
C41   C     C_R   0.538585 0.577276 0.076645 0.264480
C42   C     C_R   0.463608 0.425760 0.071765 -0.061777
C43   C     C_R   0.463660 0.425708 0.924006 -0.052253
C44   C     C_R   0.882346 0.613833 0.560983 0.538612
C45   C     C_R   0.877838 0.427060 0.424803 0.539833
C46   C     C_R   0.937441 0.424394 0.422841 -0.016405
C47   C     C_R   0.969748 0.519415 0.491852 -0.017627
C48   C     C_R   0.942142 0.615597 0.560801 -0.016352
Cu1   Cu    Cu3+1 0.500000 0.499990 0.640660 0.940184
Cu2   Cu    Cu3+1 0.500000 0.500010 0.359340 0.949551
H1    H     H_    0.941475 0.254744 0.300515 0.189199
H2    H     H_    0.677697 0.670812 0.381099 0.140935
H3    H     H_    0.782433 0.680928 0.378939 0.154686
H4    H     H_    0.478503 0.105855 0.286764 0.162280
H5    H     H_    0.567716 0.215651 0.736217 0.197023
H6    H     H_    0.562787 0.121525 0.961264 0.138717
H7    H     H_    0.470230 0.808739 0.785580 0.206027
H8    H     H_    0.469791 0.882644 0.294310 0.213035
H9    H     H_    0.433755 0.364806 0.125087 0.137110
H10   H     H_    0.044792 0.251821 0.302110 0.190568
H11   H     H_    0.580503 0.669934 0.257104 0.186201
H12   H     H_    0.647545 0.793036 0.134507 0.149014
H13   H     H_    0.646812 0.793794 0.879129 0.160690
H14   H     H_    0.579097 0.670456 0.750873 0.195848
H15   H     H_    0.433853 0.364654 0.867298 0.143690
H16   H     H_    0.058121 0.782984 0.682843 0.190979
H17   H     H_    0.954699 0.785188 0.682562 0.189100
H18   H     H_    0.217252 0.530817 0.274699 0.148304
H19   H     H_    0.321239 0.523544 0.275375 0.166618
H20   H     H_    0.319233 0.484485 0.722134 0.161560
H21   H     H_    0.215069 0.490519 0.719089 0.147659
H22   H     H_    0.784716 0.350692 0.617318 0.148910
N1    N     N_R   0.851544 0.520122 0.494301 -0.460450
N2    N     N_R   0.147954 0.513782 0.495253 -0.468805
N3    N     N_R   0.500540 0.501210 0.147910 -0.199055
N4    N     N_R   0.500560 0.501290 0.852040 -0.206571
O1    O     O_R   0.500000 0.319640 0.618810 -0.581534
O2    O     O_2   0.846330 0.337525 0.357481 -0.542359
O3    O     O_2   0.143905 0.327311 0.365387 -0.534755
O4    O     O_2   0.153471 0.700299 0.624942 -0.532324
O5    O     O_R   0.500000 0.319660 0.381240 -0.585938
O6    O     O_R   0.417880 0.499950 0.618810 -0.579676
O7    O     O_R   0.417880 0.499980 0.381240 -0.575114
O8    O     O_R   0.500000 0.680340 0.618760 -0.617469
O9    O     O_R   0.500000 0.680360 0.381190 -0.581150
O10   O     O_R   0.582120 0.500020 0.618760 -0.586403
O11   O     O_R   0.582120 0.500050 0.381190 -0.604891
O12   O     O_2   0.855199 0.703978 0.628741 -0.541619
N5    N     N_2   0.672636 0.307082 0.622356 -0.441907
H23   H     H_    0.692130 0.275226 0.710094 0.255286
C49   C     C_3   0.661322 0.209375 0.520043 -0.695387
H24   H     H_    0.640766 0.128196 0.570466 0.223781
H25   H     H_    0.701745 0.180276 0.472241 0.246459
H26   H     H_    0.632389 0.240627 0.437550 0.230652
C50   C     C_2   0.507126 0.908692 0.027173 0.325700
H27   H     H_    0.530302 0.951185 0.114580 0.062738
O13   O     O_2   0.474575 0.819992 0.046033 -0.567028

loop_
_geom_bond_atom_site_label_1
_geom_bond_atom_site_label_2
_ccdc_geom_bond_type
C9    N2    A    
C33   H8    S    
C1    O1    A    
C27   C50   S    
C50   H27   S    
C1    C31   S    
C37   H12   S    
C7    C8    A    
C28   H7    S    
C2    C46   A    
C39   H14   S    
C5    C47   A    
C42   N3    A    
C37   C38   A    
C18   C24   A    
C5    C6    A    
Cu1   O8    S    
C36   C37   A    
C34   O10   A    
C30   C31   A    
C24   N1    S    
C49   H25   S    
C1    O5    A    
C15   C16   A    
C43   N4    A    
C45   N1    A    
C18   C19   A    
C9    O3    S    
Cu2   O9    S    
C11   C17   A    
C31   C32   A    
C16   C17   A    
C45   O2    S    
C10   N2    A    
N5    C49   S    
C20   C34   S    
C3    H10   S    
C21   C22   A    
C36   C41   A    
C16   H21   S    
C32   H4    S    
Cu2   O7    S    
C22   H3    S    
C18   H22   S    
C23   O8    A    
C49   H24   S    
C10   O4    S    
C25   C26   A    
C45   C46   A    
C40   N4    A    
C12   O7    A    
Cu1   O6    S    
C8    C48   A    
C29   C30   A    
C19   N5    S    
C41   N3    A    
C47   C48   A    
C43   H15   S    
C26   C27   A    
Cu1   N4    S    
C12   O6    A    
Cu2   O11   S    
C40   C41   A    
C12   C14   S    
C23   C35   S    
C17   N2    S    
C22   C24   A    
C42   C43   A    
C3    C4    A    
C39   C40   A    
C11   H18   S    
C38   H13   S    
C25   C30   A    
C15   H20   S    
C46   C47   A    
C28   C29   A    
Cu1   O10   S    
C25   H5    S    
C4    C5    A    
C26   H6    S    
C42   H9    S    
C6    C10   A    
C50   O13   D    
C6    C7    A    
C29   C35   A    
C32   C33   A    
C19   C20   A    
C2    C3    A    
C4    C9    A    
C44   O12   S    
Cu2   N3    S    
C49   H26   S    
C11   C13   A    
C38   C39   A    
C13   H19   S    
C33   C35   A    
Cu1   O1    S    
C34   O11   A    
C44   N1    A    
C2    H1    S    
C44   C48   A    
C20   C21   A    
C8    H17   S    
Cu1   Cu2   S    
C23   O9    A    
C27   C28   A    
C14   C15   A    
N5    H23   S    
C13   C14   A    
C21   H2    S    
C36   H11   S    
Cu2   O5    S    
C7    H16   S    
