data_mof_unit_pretest_684.cif
_audit_creation_date              2012-10-26T21:12:34-0400
_audit_creation_method            fapswitch 2.2
_symmetry_space_group_name_H-M    P1
_symmetry_Int_Tables_number       1
_space_group_crystal_system       triclinic
_cell_length_a                    23.526709
_cell_length_b                    10.893395
_cell_length_c                    9.67282
_cell_angle_alpha                 88.485856
_cell_angle_beta                  90.419056
_cell_angle_gamma                 94.110672
_cell_volume                      2471.72852852

loop_
_atom_site_label
_atom_site_type_symbol
_atom_type_description
_atom_site_fract_x
_atom_site_fract_y
_atom_site_fract_z
_atom_type_partial_charge
C1    C     C_R   0.495455 0.262190 0.502602 0.606100
C2    C     C_R   0.121348 0.475173 0.641689 0.447308
C3    C     C_R   0.235554 0.581240 0.513008 0.147580
C4    C     C_R   0.391111 0.503240 0.500010 0.601042
C5    C     C_R   0.295422 0.595520 0.527423 0.159478
C6    C     C_R   0.327946 0.493116 0.501855 -0.050117
C7    C     C_R   0.299281 0.375919 0.483343 0.036948
C8    C     C_R   0.239778 0.359492 0.498261 0.144439
C9    C     C_R   0.207742 0.462777 0.508459 0.153873
C10   C     C_R   0.750875 0.342107 0.514458 0.163485
C11   C     C_R   0.692904 0.360005 0.483944 0.186110
C12   C     C_R   0.963658 0.341149 0.307661 0.259481
C13   C     C_R   0.671453 0.477952 0.505590 0.017759
C14   C     C_R   0.710716 0.575923 0.545031 0.043662
C15   C     C_R   0.768556 0.558965 0.555651 -0.064214
C16   C     C_R   0.499105 0.737634 0.497691 0.612218
C17   C     C_R   0.789025 0.443804 0.540246 0.171272
C18   C     C_R   0.510865 0.103817 0.763272 0.287413
C19   C     C_R   0.555334 0.061520 0.847427 0.273654
C20   C     C_R   0.582604 0.958639 0.807889 -0.113787
C21   C     C_R   0.563504 0.895286 0.692086 -0.120320
C22   C     C_R   0.521580 0.939898 0.605476 0.002232
C23   C     C_R   0.023086 0.347580 0.306602 -0.035385
C24   C     C_R   0.505243 0.058422 0.627390 0.019515
C25   C     C_R   0.488028 0.126916 0.509859 0.039190
C26   C     C_R   0.469544 0.063833 0.391356 -0.046243
C27   C     C_R   0.469041 0.936003 0.388188 0.157790
C28   C     C_R   0.609031 0.495525 0.500873 0.604641
C29   C     C_R   0.497974 0.872616 0.493765 0.075600
C30   C     C_R   0.599061 0.601699 0.135244 0.262769
C31   C     C_R   0.649595 0.587046 0.061647 0.243032
C32   C     C_R   0.646917 0.607487 0.919833 -0.134132
C33   C     C_R   0.593879 0.607496 0.857284 -0.128800
C34   C     C_R   0.055321 0.395711 0.416994 0.002436
C35   C     C_R   0.546104 0.552874 0.925019 0.132063
C36   C     C_R   0.547502 0.550253 0.073150 0.117093
C37   C     C_R   0.454084 0.456162 0.074291 0.066854
C38   C     C_R   0.454092 0.456421 0.926996 0.088385
C39   C     C_R   0.880212 0.461934 0.658665 0.427408
C40   C     C_R   0.876018 0.402986 0.423264 0.458571
C41   C     C_R   0.935261 0.388884 0.422034 0.024991
C42   C     C_R   0.967795 0.428253 0.539598 -0.091839
C43   C     C_R   0.940284 0.470793 0.656549 -0.006233
C44   C     C_R   0.028028 0.430594 0.537450 -0.075414
C45   C     C_R   0.060937 0.468094 0.654544 -0.012147
C46   C     C_R   0.032205 0.503605 0.775280 0.195235
C47   C     C_R   0.973266 0.520248 0.767395 0.142744
C48   C     C_R   0.114781 0.409136 0.408712 0.449177
Cu1   Cu    Cu3+1 0.500000 0.499990 0.640660 1.057805
Cu2   Cu    Cu3+1 0.500000 0.500010 0.359340 1.122599
H1    H     H_    0.798445 0.636674 0.576622 0.176221
H2    H     H_    0.853746 0.139395 0.143650 0.397936
H3    H     H_    0.649787 0.119990 0.597939 0.358473
H4    H     H_    0.417140 0.176706 0.047156 0.356838
H5    H     H_    0.602442 0.330288 0.028791 0.367923
H6    H     H_    0.658519 0.916475 0.171976 0.428429
H7    H     H_    0.767544 0.697151 0.282323 0.377048
H8    H     H_    0.084750 0.326033 0.957040 0.351201
H9    H     H_    0.384514 0.699741 0.753397 0.367001
H10   H     H_    0.453049 0.113578 0.303198 0.173547
H11   H     H_    0.617275 0.924861 0.868534 0.208346
H12   H     H_    0.584472 0.817341 0.662252 0.154568
H13   H     H_    0.416576 0.418485 0.128835 0.128611
H14   H     H_    0.044589 0.314054 0.218128 0.217668
H15   H     H_    0.685010 0.628901 0.859734 0.195745
H16   H     H_    0.591034 0.648898 0.758207 0.177065
H17   H     H_    0.416304 0.420231 0.873737 0.164941
I1    I     I_    0.691911 0.758902 0.580309 -0.260461
I2    I     I_    0.420591 0.851490 0.224648 -0.041463
I3    I     I_    0.939239 0.656289 0.895469 0.022486
I4    I     I_    0.185014 0.736997 0.488950 0.002623
I5    I     I_    0.345303 0.221484 0.434823 -0.176240
I6    I     I_    0.197343 0.178904 0.513069 -0.062207
I7    I     I_    0.782995 0.163504 0.541041 -0.069893
N1    N     N_R   0.849743 0.433182 0.541967 -0.407667
N2    N     N_R   0.146483 0.447460 0.520090 -0.394965
N3    N     N_R   0.500540 0.501210 0.147910 -0.239458
N4    N     N_R   0.500560 0.501290 0.852040 -0.224703
O1    O     O_R   0.500000 0.319640 0.618810 -0.461587
O2    O     O_R   0.582120 0.500020 0.618760 -0.534170
O3    O     O_R   0.582120 0.500050 0.381190 -0.454161
O4    O     O_2   0.852003 0.477853 0.776883 -0.385306
O5    O     O_2   0.904095 0.359788 0.071183 -0.161281
O6    O     O_2   0.969079 0.194602 0.087338 -0.272759
O7    O     O_3   0.875301 0.166847 0.226972 -0.444138
O8    O     O_2   0.605888 0.280511 0.315939 -0.200634
O9    O     O_2   0.685245 0.152751 0.333017 -0.177537
O10   O     O_3   0.618341 0.154147 0.544177 -0.556133
O11   O     O_2   0.410415 0.210337 0.757054 -0.277839
O12   O     O_2   0.844689 0.391021 0.306744 -0.335072
O13   O     O_2   0.412924 0.005090 0.861547 -0.216045
O14   O     O_3   0.454947 0.188220 0.002389 -0.480897
O15   O     O_2   0.549856 0.082413 0.121768 -0.163070
O16   O     O_2   0.643231 0.123147 0.013796 -0.250449
O17   O     O_3   0.569509 0.287780 0.981348 -0.489787
O18   O     O_2   0.544004 0.808753 0.141721 -0.260072
O19   O     O_2   0.605106 0.763689 0.340555 -0.259709
O20   O     O_3   0.652698 0.843461 0.113285 -0.471629
O21   O     O_2   0.722062 0.458404 0.207168 -0.229117
O22   O     O_2   0.763450 0.605344 0.034668 -0.210757
O23   O     O_2   0.140920 0.385518 0.289480 -0.405342
O24   O     O_3   0.726175 0.691260 0.261414 -0.451178
O25   O     O_2   0.101565 0.638850 0.943929 -0.144228
O26   O     O_2   0.024689 0.511904 0.055855 -0.256116
O27   O     O_3   0.109882 0.402320 0.966459 -0.411631
O28   O     O_2   0.329009 0.831639 0.470178 -0.206437
O29   O     O_2   0.288258 0.784560 0.697415 -0.190335
O30   O     O_3   0.391027 0.730534 0.657110 -0.499671
O31   O     O_2   0.155316 0.515122 0.746097 -0.357998
O32   O     O_R   0.500000 0.319660 0.381240 -0.464324
O33   O     O_R   0.417880 0.499950 0.618810 -0.487302
O34   O     O_R   0.417880 0.499980 0.381240 -0.515111
O35   O     O_R   0.500000 0.680340 0.618760 -0.511936
O36   O     O_R   0.500000 0.680360 0.381190 -0.439207
S1    S     S_3+6 0.928247 0.265546 0.166908 0.105158
S2    S     S_3+6 0.650040 0.235593 0.413324 0.085729
S3    S     S_3+6 0.445443 0.128472 0.845013 0.077072
S4    S     S_3+6 0.580452 0.137637 0.996746 0.120537
S5    S     S_3+6 0.598504 0.756577 0.187043 0.079408
S6    S     S_3+6 0.717296 0.583350 0.141099 0.094702
S7    S     S_3+6 0.066854 0.517666 0.939825 0.120964
S8    S     S_3+6 0.325944 0.738910 0.587822 0.076460

loop_
_geom_bond_atom_site_label_1
_geom_bond_atom_site_label_2
_ccdc_geom_bond_type
Cu1   O35   S    
C2    O31   S    
O10   S2    S    
C22   C29   A    
C27   C29   A    
C11   C13   A    
C41   C42   A    
C48   N2    A    
O18   S5    D    
C19   C20   A    
H6    O20   S    
C16   O35   A    
C2    N2    A    
C7    C8    A    
C45   C46   A    
H7    O24   S    
C12   C23   A    
C26   C27   A    
C37   C38   A    
C18   C24   A    
H2    O7    S    
C36   N3    A    
C30   C31   A    
C30   S5    S    
C10   C17   A    
Cu2   O32   S    
Cu1   N4    S    
O8    S2    D    
C18   C19   A    
C20   H11   S    
O21   S6    D    
C35   C36   A    
C19   S4    S    
C8    C9    A    
O13   S3    D    
C13   C28   S    
O22   S6    D    
C9    N2    S    
C15   H1    S    
C10   I7    S    
C27   I2    S    
Cu1   O33   S    
C12   S1    S    
C4    O34   A    
O17   S4    S    
C21   C22   A    
C1    C25   S    
C42   C44   A    
C37   H13   S    
C33   H16   S    
C2    C45   A    
O5    S1    D    
O20   S5    S    
C34   C44   A    
C24   C25   A    
C4    C6    S    
C7    I5    S    
C39   C43   A    
O26   S7    D    
C38   N4    A    
C25   C26   A    
C37   N3    A    
C5    S8    S    
Cu1   O1    S    
Cu2   O36   S    
O19   S5    D    
C3    I4    S    
O14   S3    S    
C47   I3    S    
H4    O14   S    
C12   C41   A    
C3    C9    A    
C1    O32   A    
C31   C32   A    
O7    S1    S    
C23   C34   A    
O28   S8    D    
Cu2   O34   S    
C21   H12   S    
O27   S7    S    
C46   S7    S    
C38   H17   S    
C11   S2    S    
C18   S3    S    
O9    S2    D    
H5    O17   S    
C40   C41   A    
C4    O33   A    
O11   S3    D    
O6    S1    D    
C39   N1    A    
C1    O1    A    
C22   C24   A    
C34   C48   A    
O15   S4    D    
O25   S7    D    
Cu2   N3    S    
O24   S6    S    
C44   C45   A    
C15   C17   A    
C46   C47   A    
C23   H14   S    
C28   O3    A    
C39   O4    S    
O30   S8    S    
C3    C5    A    
C16   O36   A    
C40   N1    A    
C6    C7    A    
C35   N4    A    
H9    O30   S    
Cu1   O2    S    
C30   C36   A    
H8    O27   S    
C32   C33   A    
C16   C29   S    
O16   S4    D    
C5    C6    A    
C26   H10   S    
C48   O23   S    
C8    I6    S    
C33   C35   A    
H3    O10   S    
C28   O2    A    
C31   S6    S    
C10   C11   A    
C20   C21   A    
Cu1   Cu2   S    
C42   C43   A    
C17   N1    S    
C14   I1    S    
C14   C15   A    
O29   S8    D    
C40   O12   S    
C13   C14   A    
C43   C47   A    
Cu2   O3    S    
C32   H15   S    
