data_mof_unit_pretest_27.cif
_audit_creation_date              2012-12-11T16:56:17-0500
_audit_creation_method            fapswitch 2.2
_symmetry_space_group_name_H-M    P1
_symmetry_Int_Tables_number       1
_space_group_crystal_system       triclinic
_cell_length_a                    6.960334
_cell_length_b                    14.534351
_cell_length_c                    16.196881
_cell_angle_alpha                 90.433761
_cell_angle_beta                  90.015541
_cell_angle_gamma                 90.023098
_cell_volume                      1638.49310643

loop_
_atom_site_label
_atom_site_type_symbol
_atom_type_description
_atom_site_fract_x
_atom_site_fract_y
_atom_site_fract_z
_atom_type_partial_charge
O1    O     O_R   0.505830 0.583360 0.413880 -0.537202
O2    O     O_R   0.175830 0.595460 0.585520 -0.543433
O3    O     O_R   0.005520 0.416640 0.586120 -0.540385
C1    C     C_R   0.344680 0.617404 0.614452 0.695131
O4    O     O_R   0.176120 0.594390 0.414490 -0.544143
O5    O     O_R   0.005810 0.415570 0.413870 -0.539549
C2    C     C_R   0.344935 0.616245 0.385916 0.691197
O6    O     O_R   0.505540 0.584430 0.586130 -0.536978
O7    O     O_3   0.339200 0.441330 0.500000 -0.368502
V1    V     V_3+5 0.064350 0.510880 0.500000 1.385930
O8    O     O_R   0.676100 0.404540 0.414480 -0.539659
C3    C     C_R   0.845115 0.382530 0.385747 0.695207
O9    O     O_R   0.675810 0.405610 0.585510 -0.539256
C4    C     C_R   0.845012 0.383763 0.613673 0.745881
V2    V     V_3+5 0.564340 0.489120 0.500000 1.397460
O10   O     O_3   0.839360 0.558670 0.500000 -0.373677
C5    C     C_2   0.721036 0.208980 0.786107 -0.132527
C6    C     C_2   0.885659 0.181797 0.822611 -0.314872
H1    H     H_    0.585547 0.180317 0.807022 0.136638
H2    H     H_    0.022819 0.209773 0.803797 0.127663
C7    C     C_2   0.708653 0.277483 0.718148 -0.137696
C8    C     C_2   0.861540 0.315549 0.680530 -0.312530
H3    H     H_    0.565111 0.296515 0.698274 0.134950
H4    H     H_    0.006216 0.297198 0.698549 0.129435
C9    C     C_R   0.727742 0.181252 0.242870 0.098801
C10   C     C_R   0.882563 0.180450 0.187560 -0.111361
C11   C     C_R   0.034165 0.242348 0.203271 -0.179279
H5    H     H_    0.156793 0.244248 0.162471 0.134199
C12   C     C_R   0.022734 0.307003 0.268335 -0.178537
H6    H     H_    0.137578 0.356467 0.275891 0.127962
C13   C     C_R   0.859019 0.311942 0.319449 -0.110794
C14   C     C_R   0.715960 0.245510 0.307023 0.103536
C15   C     C_3   0.505505 0.258042 0.294791 -0.409454
C16   C     C_3   0.518173 0.187614 0.225243 -0.398512
H7    H     H_    0.470153 0.328400 0.273120 0.166166
H8    H     H_    0.420623 0.233735 0.348504 0.176434
H9    H     H_    0.489254 0.216870 0.163259 0.171481
H10   H     H_    0.441437 0.122383 0.238910 0.167541
C17   C     C_R   0.507733 0.681631 0.741368 0.104948
C18   C     C_R   0.353090 0.682132 0.685869 -0.113480
C19   C     C_R   0.201397 0.743453 0.703100 -0.180097
H11   H     H_    0.078681 0.746318 0.662380 0.132878
C20   C     C_R   0.212650 0.806297 0.769748 -0.176056
H12   H     H_    0.097689 0.855428 0.778343 0.128000
C21   C     C_R   0.376263 0.810070 0.821144 -0.112442
C22   C     C_R   0.519365 0.744086 0.807065 0.102728
C23   C     C_3   0.729867 0.756929 0.795374 -0.410790
C24   C     C_3   0.717363 0.688555 0.724152 -0.398874
H13   H     H_    0.814394 0.731013 0.848581 0.176367
H14   H     H_    0.765487 0.827909 0.775442 0.166920
H15   H     H_    0.746503 0.719636 0.662921 0.169213
C25   C     C_R   0.507335 0.681240 0.260138 0.100072
C26   C     C_R   0.353031 0.681302 0.315727 -0.112340
C27   C     C_R   0.201636 0.743102 0.300164 -0.179308
H16   H     H_    0.079138 0.745630 0.341041 0.132714
C28   C     C_R   0.212997 0.806853 0.235133 -0.177768
H17   H     H_    0.098262 0.856235 0.227756 0.127313
C29   C     C_R   0.376431 0.811047 0.183813 -0.111893
C30   C     C_R   0.519018 0.744577 0.196035 0.103216
C31   C     C_3   0.729769 0.756800 0.207794 -0.408999
C32   C     C_3   0.717179 0.687429 0.277289 -0.398828
H18   H     H_    0.766250 0.827401 0.229466 0.166087
H19   H     H_    0.813652 0.731480 0.153840 0.176010
H20   H     H_    0.747177 0.717549 0.339250 0.170220
H21   H     H_    0.793036 0.621831 0.263353 0.167804
O11   O     O_R   0.229930 0.912420 0.917160 -0.539456
O12   O     O_R   0.559420 0.902500 0.088780 -0.539252
O13   O     O_R   0.729660 0.081330 0.089380 -0.537159
C33   C     C_R   0.390365 0.880791 0.117512 0.695383
O14   O     O_R   0.559650 0.901420 0.917750 -0.539333
O15   O     O_R   0.729880 0.080250 0.917130 -0.537188
C34   C     C_R   0.390535 0.879575 0.888711 0.696551
O16   O     O_R   0.229700 0.913500 0.089410 -0.539199
O17   O     O_3   0.396250 0.055540 0.003280 -0.371459
V3    V     V_3+5 0.671130 0.986010 0.003260 1.397000
O18   O     O_R   0.059600 0.091310 0.917720 -0.545180
C35   C     C_R   0.890908 0.113197 0.889558 0.741255
O19   O     O_R   0.059370 0.092380 0.088750 -0.544373
C36   C     C_R   0.890607 0.114550 0.117337 0.692719
V4    V     V_3+5 0.171120 0.007820 0.003230 1.388497
O20   O     O_3   0.896130 0.938240 0.003240 -0.369629
H22   H     H_    0.793971 0.622945 0.736325 0.169943

loop_
_geom_bond_atom_site_label_1
_geom_bond_atom_site_label_2
_ccdc_geom_bond_type
C11   C12   A    
C16   H9    S    
C19   H11   S    
C1    O6    A    
C23   H13   S    
C21   C22   A    
O13   V3    S    
C10   C11   A    
C31   H19   S    
C25   C32   S    
O5    C3    A    
C15   H7    S    
O19   V4    S    
V2    O10   S    
C15   H8    S    
C28   H17   S    
C31   H18   S    
O1    C2    A    
C22   C23   S    
O8    V2    S    
C24   H15   S    
O11   C34   A    
C13   C14   A    
C28   C29   A    
C33   O16   A    
O1    V2    S    
O7    V1    S    
C9    C16   S    
C9    C14   A    
C30   C31   S    
O17   V4    S    
C7    C8    D    
C21   C34   S    
C19   C20   A    
C5    C6    D    
C23   H14   S    
C27   C28   A    
O17   V3    S    
C1    C18   S    
O18   C35   A    
C17   C18   A    
O4    C2    A    
O19   C36   A    
V3    O20   S    
C29   C30   A    
C26   C27   A    
C5    C7    S    
C31   C32   S    
O12   C33   A    
C32   H20   S    
O2    C1    A    
C20   H12   S    
C12   H6    S    
C25   C30   A    
C23   C24   S    
C15   C16   S    
C20   C21   A    
O3    C4    A    
C17   C22   A    
C18   C19   A    
O6    V2    S    
O9    V2    S    
C3    C13   S    
C8    H4    S    
O12   V3    S    
C2    C26   S    
O2    V1    S    
O15   C35   A    
C25   C26   A    
C27   H16   S    
C16   H10   S    
O18   V4    S    
V4    O20   S    
O5    V1    S    
O8    C3    A    
C29   C33   S    
O11   V4    S    
C10   C36   S    
C14   C15   S    
C4    C8    S    
C7    H3    S    
C9    C10   A    
O4    V1    S    
C12   C13   A    
O3    V1    S    
V1    O10   S    
O15   V3    S    
O13   C36   A    
C6    C35   S    
C5    H1    S    
O16   V4    S    
C24   H22   S    
C6    H2    S    
O7    V2    S    
C32   H21   S    
O14   V3    S    
O14   C34   A    
O9    C4    A    
C17   C24   S    
C11   H5    S    
