data_mof_unit_pretest_513.cif
_audit_creation_date              2013-03-05T16:00:49-0500
_audit_creation_method            fapswitch 2.2
_symmetry_space_group_name_H-M    P1
_symmetry_Int_Tables_number       1
_space_group_crystal_system       triclinic
_cell_length_a                    21.21572
_cell_length_b                    21.230489
_cell_length_c                    13.987954
_cell_angle_alpha                 90.003325
_cell_angle_beta                  90.003728
_cell_angle_gamma                 90.02547
_cell_volume                      6300.45513409

loop_
_atom_site_label
_atom_site_type_symbol
_atom_site_description
_atom_site_fract_x
_atom_site_fract_y
_atom_site_fract_z
_atom_type_partial_charge
O1    O     O_R   0.066090 0.433930 0.580280 -0.628017
O2    O     O_R   0.933910 0.566070 0.419720 -0.623324
O3    O     O_R   0.933910 0.566070 0.580280 -0.630083
O4    O     O_R   0.066090 0.433930 0.419720 -0.624451
O5    O     O_R   0.933910 0.433930 0.419720 -0.622187
O6    O     O_R   0.066090 0.566070 0.580280 -0.628274
O7    O     O_R   0.066090 0.566070 0.419720 -0.621553
O8    O     O_R   0.933910 0.433930 0.580280 -0.628380
O9    O     O_R   0.566090 0.933930 0.580280 -0.625631
O10   O     O_R   0.433910 0.066070 0.419720 -0.628075
O11   O     O_R   0.433910 0.066070 0.580280 -0.623219
O12   O     O_R   0.566090 0.933930 0.419720 -0.628000
O13   O     O_R   0.433910 0.933930 0.419720 -0.629335
O14   O     O_R   0.566090 0.066070 0.580280 -0.621948
O15   O     O_R   0.566090 0.066070 0.419720 -0.628597
O16   O     O_R   0.433910 0.933930 0.580280 -0.624601
C1    C     C_R   0.086448 0.412802 0.499954 0.896646
C2    C     C_R   0.912934 0.586473 0.499975 0.904282
C3    C     C_R   0.912557 0.413801 0.500006 0.904762
C4    C     C_R   0.086767 0.586733 0.499967 0.897765
C5    C     C_R   0.586924 0.913386 0.500026 0.900100
C6    C     C_R   0.412584 0.086228 0.499992 0.902983
C7    C     C_R   0.413173 0.913326 0.500016 0.898706
C8    C     C_R   0.586424 0.087221 0.500050 0.901713
Zn1   Zn    Zn3+2 0.000000 0.500000 0.607200 0.954518
Zn2   Zn    Zn3+2 1.000000 0.500000 0.392800 0.976720
Zn3   Zn    Zn3+2 0.500000 0.000000 0.607200 0.973436
Zn4   Zn    Zn3+2 0.500000 0.000000 0.392800 0.955384
C9    C     C_R   0.165802 0.648883 0.414723 -0.200871
C10   C     C_R   0.833136 0.351946 0.413765 -0.194005
C11   C     C_R   0.839495 0.654364 0.412861 -0.200248
C12   C     C_R   0.156006 0.340915 0.412574 -0.200568
C13   C     C_R   0.655712 0.159368 0.587463 -0.196025
C14   C     C_R   0.333594 0.851657 0.584982 -0.255899
C15   C     C_R   0.333297 0.148233 0.586228 -0.197351
C16   C     C_R   0.659350 0.844455 0.587161 -0.203534
C17   C     C_R   0.134109 0.635147 0.499594 -0.088016
C18   C     C_R   0.861075 0.369470 0.500161 -0.091425
C19   C     C_R   0.863901 0.633251 0.499801 -0.088628
C20   C     C_R   0.131272 0.361780 0.499478 -0.091162
C21   C     C_R   0.631118 0.138362 0.500535 -0.091586
C22   C     C_R   0.365396 0.865345 0.500201 -0.068053
C23   C     C_R   0.361228 0.130697 0.499840 -0.091264
C24   C     C_R   0.635397 0.866038 0.500209 -0.090476
C25   C     C_R   0.147343 0.667556 0.583753 -0.233114
C26   C     C_R   0.838828 0.346133 0.586937 -0.225550
C27   C     C_R   0.841730 0.656759 0.586425 -0.226737
C28   C     C_R   0.147765 0.332810 0.585287 -0.225081
C29   C     C_R   0.647577 0.167339 0.414715 -0.225251
C30   C     C_R   0.351675 0.833429 0.415743 -0.226725
C31   C     C_R   0.339123 0.154201 0.413086 -0.225161
C32   C     C_R   0.657313 0.842269 0.413598 -0.225926
C33   C     C_R   0.193438 0.713491 0.584243 0.112246
C34   C     C_R   0.790068 0.303001 0.587916 0.103323
C35   C     C_R   0.796234 0.703210 0.586894 0.105788
C36   C     C_R   0.190728 0.283853 0.585256 0.103696
C37   C     C_R   0.690443 0.216402 0.414749 0.104106
C38   C     C_R   0.305259 0.787797 0.414992 0.098150
C39   C     C_R   0.290467 0.197428 0.412120 0.103046
C40   C     C_R   0.702352 0.795369 0.413152 0.100539
C41   C     C_R   0.225663 0.727925 0.498729 0.056083
C42   C     C_R   0.762265 0.284139 0.500924 0.059270
C43   C     C_R   0.771529 0.725188 0.499433 0.060608
C44   C     C_R   0.216453 0.262896 0.497893 0.059153
C45   C     C_R   0.716084 0.237461 0.502129 0.059228
C46   C     C_R   0.272972 0.773381 0.500371 0.082109
C47   C     C_R   0.262627 0.216233 0.499096 0.059172
C48   C     C_R   0.726918 0.773243 0.500607 0.060067
C49   C     C_R   0.210710 0.696586 0.411960 0.032249
C50   C     C_R   0.782319 0.310399 0.412691 0.038005
C51   C     C_R   0.791801 0.699283 0.411036 0.031439
C52   C     C_R   0.197508 0.290191 0.409834 0.037852
C53   C     C_R   0.697099 0.210205 0.590202 0.037367
C54   C     C_R   0.288045 0.804569 0.587155 0.028113
C55   C     C_R   0.282585 0.189879 0.587308 0.038282
C56   C     C_R   0.706656 0.799158 0.588987 0.036318
C57   C     C_R   0.208084 0.744242 0.669662 -0.228318
C58   C     C_R   0.769540 0.278215 0.674969 -0.252602
C59   C     C_R   0.776506 0.728672 0.673897 -0.255461
C60   C     C_R   0.208329 0.256118 0.671747 -0.253629
C61   C     C_R   0.708070 0.244105 0.328244 -0.253283
C62   C     C_R   0.290417 0.757321 0.329453 -0.252658
C63   C     C_R   0.270044 0.222322 0.325086 -0.252733
C64   C     C_R   0.721841 0.769711 0.326170 -0.247024
C65   C     C_R   0.753044 0.292030 0.325995 -0.036185
C66   C     C_R   0.242545 0.712380 0.326169 -0.032866
C67   C     C_R   0.222791 0.267911 0.322387 -0.036550
C68   C     C_R   0.765462 0.720748 0.323737 -0.032735
C69   C     C_R   0.255962 0.789074 0.672690 -0.134266
C70   C     C_R   0.722275 0.232604 0.677665 -0.036416
C71   C     C_R   0.732653 0.777482 0.676295 -0.034242
C72   C     C_R   0.253287 0.208210 0.673990 -0.036236
H1    H     H_    0.156151 0.620868 0.351936 0.191297
H2    H     H_    0.852450 0.369780 0.347643 0.196497
H3    H     H_    0.859122 0.636440 0.347043 0.196390
H4    H     H_    0.143864 0.365741 0.347742 0.193015
H5    H     H_    0.643573 0.134553 0.652315 0.194171
H6    H     H_    0.343921 0.878786 0.648550 0.180822
H7    H     H_    0.352521 0.130299 0.652339 0.196250
H8    H     H_    0.639764 0.862360 0.653022 0.198165
H9    H     H_    0.122179 0.656636 0.649226 0.165979
H10   H     H_    0.860293 0.360508 0.653878 0.165934
H11   H     H_    0.860844 0.639940 0.653685 0.164111
H12   H     H_    0.127760 0.348805 0.652404 0.166065
H13   H     H_    0.627650 0.151245 0.347584 0.165929
H14   H     H_    0.376857 0.844355 0.350290 0.165856
H15   H     H_    0.360600 0.139854 0.346154 0.165688
H16   H     H_    0.638405 0.859303 0.346329 0.165887
H17   H     H_    0.183199 0.732075 0.734899 0.170560
H18   H     H_    0.790241 0.294852 0.741280 0.181641
H19   H     H_    0.796890 0.711690 0.740228 0.176279
H20   H     H_    0.186471 0.271580 0.737840 0.181022
H21   H     H_    0.686250 0.228578 0.262142 0.180892
H22   H     H_    0.315190 0.769876 0.264291 0.183131
H23   H     H_    0.290788 0.205755 0.258780 0.181701
H24   H     H_    0.701419 0.786728 0.259891 0.185479
C73   C     C_R   0.943977 0.501077 0.798047 -0.054811
C74   C     C_R   0.056025 0.499017 0.201981 -0.025275
C75   C     C_R   0.056016 0.498989 0.798069 -0.054652
C76   C     C_R   0.943968 0.501086 0.201977 -0.031154
C77   C     C_R   0.443972 0.998741 0.798012 -0.025957
C78   C     C_R   0.556017 0.001185 0.201946 -0.054648
C79   C     C_R   0.556025 0.001205 0.798028 -0.034123
C80   C     C_R   0.443982 0.998785 0.201937 -0.051733
N1    N     N_R   1.000000 0.500000 0.750030 -0.106654
N2    N     N_R   1.000000 0.500000 0.249970 -0.111231
N3    N     N_R   0.500000 1.000000 0.750030 -0.112453
N4    N     N_R   0.500000 0.000000 0.249970 -0.107131
C81   C     C_R   0.057377 0.498994 0.898790 0.011210
C82   C     C_R   0.942605 0.501190 0.101276 0.012371
C83   C     C_R   0.942610 0.501164 0.898772 0.014305
C84   C     C_R   0.057383 0.499014 0.101285 0.010646
C85   C     C_R   0.557385 0.001238 0.898725 0.013257
C86   C     C_R   0.442618 0.998707 0.101213 0.010408
C87   C     C_R   0.442612 0.998664 0.898712 0.013915
C88   C     C_R   0.557380 0.001224 0.101223 0.013921
C89   C     C_R   0.999993 0.500076 0.949394 0.091501
C90   C     C_R   0.999993 0.500082 0.050669 0.084564
C91   C     C_R   0.499998 0.999967 0.949330 0.084057
C92   C     C_R   0.499998 0.999970 0.050605 0.091606
C93   C     C_R   0.114434 0.497970 0.949847 -0.185217
C94   C     C_R   0.885552 0.502398 0.050241 -0.165615
C95   C     C_R   0.885554 0.502346 0.949816 -0.193892
C96   C     C_R   0.114438 0.497991 0.050268 -0.184857
C97   C     C_R   0.614438 0.002488 0.949755 -0.183952
C98   C     C_R   0.385564 0.997366 0.050157 -0.181627
C99   C     C_R   0.385562 0.997301 0.949734 -0.150119
C100  C     C_R   0.614435 0.002470 0.050178 -0.184239
H25   H     H_    0.900448 0.501881 0.757646 0.134619
H26   H     H_    0.099556 0.498241 0.242385 0.132033
H27   H     H_    0.099548 0.498188 0.757687 0.136603
H28   H     H_    0.900433 0.501873 0.242373 0.158679
H29   H     H_    0.400440 0.997802 0.757608 0.148298
H30   H     H_    0.599546 0.002098 0.242340 0.136306
H31   H     H_    0.599555 0.002126 0.757635 0.145913
H32   H     H_    0.400454 0.997867 0.242325 0.136540
H33   H     H_    0.159028 0.497153 0.912143 0.156475
H34   H     H_    0.840968 0.503432 0.087954 0.172905
H35   H     H_    0.840962 0.503257 0.912103 0.154426
H36   H     H_    0.159029 0.497204 0.088000 0.161471
H37   H     H_    0.659026 0.003478 0.912034 0.162402
H38   H     H_    0.340973 0.996333 0.087860 0.155668
H39   H     H_    0.340980 0.996142 0.912010 0.165775
H40   H     H_    0.659026 0.003438 0.087890 0.156485
C101  C     C_2   0.767108 0.322010 0.232358 0.912940
O17   O     O_2   0.770000 0.289675 0.160108 -0.595257
O18   O     O_R   0.774244 0.387366 0.225813 -0.809359
H41   H     H_    0.783122 0.401935 0.158114 0.345436
C102  C     C_2   0.226279 0.684892 0.231577 0.905194
O19   O     O_2   0.268276 0.670530 0.175773 -0.605646
O20   O     O_R   0.163205 0.678075 0.204324 -0.802237
H42   H     H_    0.158468 0.659144 0.138147 0.350521
C103  C     C_2   0.200817 0.290009 0.227210 0.904688
O21   O     O_2   0.238938 0.298395 0.162847 -0.597761
O22   O     O_R   0.136484 0.298572 0.209663 -0.801929
H43   H     H_    0.127659 0.313348 0.142045 0.353514
C104  C     C_2   0.780264 0.692834 0.228914 0.911708
O23   O     O_2   0.784530 0.635730 0.219408 -0.635671
O24   O     O_R   0.786062 0.732089 0.149115 -0.780215
H44   H     H_    0.795102 0.707787 0.088240 0.360435
C105  C     C_2   0.271623 0.817592 0.766835 0.945481
O25   O     O_2   0.229642 0.840195 0.815675 -0.551949
O26   O     O_R   0.333195 0.817146 0.802560 -0.767008
H45   H     H_    0.363474 0.792632 0.760692 0.308519
C106  C     C_2   0.700199 0.210581 0.772835 0.906324
O27   O     O_2   0.738239 0.202371 0.837358 -0.596103
O28   O     O_R   0.635854 0.201882 0.790181 -0.803165
H46   H     H_    0.626954 0.187172 0.857811 0.353445
C107  C     C_2   0.717260 0.805565 0.770788 0.912261
O29   O     O_2   0.709796 0.771372 0.840254 -0.604488
O30   O     O_R   0.714204 0.870993 0.781601 -0.815888
H47   H     H_    0.703821 0.884122 0.849492 0.347162
C108  C     C_2   0.267283 0.178186 0.767611 0.914062
O31   O     O_2   0.270238 0.210499 0.839881 -0.595552
O32   O     O_R   0.274278 0.112819 0.774119 -0.813598
H48   H     H_    0.283134 0.098220 0.841807 0.344671

loop_
_geom_bond_atom_site_label_1
_geom_bond_atom_site_label_2
_geom_bond_distance
_ccdc_geom_bond_type
C84   C96   1.405391 A    
C63   C67   1.394319 A    
O20   H42   1.014115 S    
C101  O17   1.223258 D    
O8    Zn1   2.018291 S    
O10   Zn4   2.019190 S    
O5    Zn2   2.018356 S    
O2    C2    1.282998 A    
C66   C102  1.486635 S    
C102  O20   1.398818 S    
C102  O19   1.223302 D    
C14   C22   1.394998 A    
C88   C92   1.408517 A    
C44   C52   1.419449 A    
C23   C31   1.393461 A    
C97   C100  1.404712 A    
O15   Zn4   2.018288 S    
C47   C55   1.419530 A    
C29   C37   1.382461 A    
C68   C104  1.486355 S    
C12   C52   1.391846 A    
C79   H31   1.082856 S    
C105  O25   1.220936 D    
O10   C6    1.284060 A    
C87   C91   1.408627 A    
C98   H38   1.083339 S    
C15   C55   1.392980 A    
C35   C59   1.395948 A    
O7    Zn2   2.018288 S    
C77   H29   1.082917 S    
C79   C85   1.408839 A    
C76   C82   1.408902 A    
C13   C53   1.391578 A    
C54   C69   1.415278 A    
C27   C35   1.380248 A    
C39   C63   1.396204 A    
C53   C70   1.416965 A    
C77   N3    1.365360 A    
C38   C62   1.396102 A    
C86   C92   1.408520 A    
C76   N2    1.365392 A    
C106  O28   1.398701 S    
O6    Zn1   2.018353 S    
C81   C93   1.405624 A    
C84   C90   1.408613 A    
C28   H12   1.084902 S    
C45   C53   1.419426 A    
C42   C50   1.419513 A    
O3    C2    1.283612 A    
C107  O30   1.398804 S    
Zn2   N2    1.997901 S    
O14   C8    1.283410 A    
C74   H26   1.082844 S    
Zn1   N1    1.997899 S    
C32   C40   1.380354 A    
C39   C47   1.410195 A    
C43   C48   1.392052 A    
C33   C41   1.411424 A    
C41   C46   1.392261 A    
C38   C46   1.410364 A    
C6    C23   1.442003 S    
C108  O32   1.398728 S    
C35   C43   1.410441 A    
C36   C44   1.410473 A    
O13   Zn4   2.018356 S    
O14   Zn3   2.018353 S    
C96   H36   1.083404 S    
C15   C23   1.396495 A    
C59   C71   1.393349 A    
C108  O31   1.223252 D    
C80   N4    1.365429 A    
C24   C32   1.392420 A    
O16   Zn3   2.018291 S    
C103  O22   1.398699 S    
C25   C33   1.380806 A    
C101  O18   1.398718 S    
O1    Zn1   2.019190 S    
C8    C21   1.441223 S    
C78   H30   1.082773 S    
C26   C34   1.381319 A    
Zn3   N3    1.997899 S    
C94   H34   1.083309 S    
C31   H15   1.084945 S    
C15   H7    1.080101 S    
C21   C29   1.393341 A    
C10   C50   1.392741 A    
O13   C7    1.283109 A    
C31   C39   1.381599 A    
C9    C49   1.390706 A    
C105  O26   1.398626 S    
C75   H27   1.082756 S    
C86   C98   1.405652 A    
C76   H28   1.082920 S    
O8    C3    1.283899 A    
C27   H11   1.085002 S    
O30   H47   1.013959 S    
C100  H40   1.083335 S    
C44   C47   1.393654 A    
C63   H23   1.085248 S    
O3    Zn1   2.019187 S    
C62   H22   1.085384 S    
O2    Zn2   2.019190 S    
C72   C108  1.486498 S    
C93   C96   1.404697 A    
O18   H41   1.013847 S    
C29   H13   1.084910 S    
C34   C42   1.410169 A    
C104  O24   1.398460 S    
C103  O21   1.223248 D    
O12   C5    1.283594 A    
C58   C70   1.394208 A    
C51   C68   1.418208 A    
C1    C20   1.441760 S    
C30   C38   1.381140 A    
C60   C72   1.395035 A    
C33   C57   1.396454 A    
C2    C19   1.438534 S    
O26   H45   1.013330 S    
C83   C89   1.408527 A    
C3    C18   1.441482 S    
C75   C81   1.409181 A    
C5    C24   1.438399 S    
C71   C107  1.486384 S    
C79   N3    1.365306 A    
O22   H43   1.013961 S    
O11   Zn3   2.019187 S    
C57   C69   1.392352 A    
C60   H20   1.085206 S    
C73   H25   1.082800 S    
C58   H18   1.085248 S    
C77   C87   1.408878 A    
C57   H17   1.085423 S    
C7    C22   1.436733 S    
C78   C88   1.409207 A    
C88   C100  1.405641 A    
C25   H9    1.085119 S    
C55   C72   1.417129 A    
C22   C30   1.392583 A    
O4    C1    1.283548 A    
C75   N1    1.365388 A    
C93   H33   1.083334 S    
O15   C8    1.284542 A    
C12   H4    1.080148 S    
C14   C54   1.390441 A    
C85   C91   1.408610 A    
O16   C7    1.282627 A    
C87   C99   1.405423 A    
C80   H32   1.082782 S    
C9    C17   1.395162 A    
C37   C61   1.396397 A    
C16   C24   1.395611 A    
C85   C97   1.405416 A    
C17   C25   1.392039 A    
C82   C90   1.408606 A    
C52   C67   1.417022 A    
C83   C95   1.405655 A    
O9    Zn3   2.019190 S    
C19   C27   1.392396 A    
C98   C99   1.404718 A    
C41   C49   1.419894 A    
C28   C36   1.382725 A    
C20   C28   1.393433 A    
C42   C45   1.393360 A    
C64   C68   1.392491 A    
C67   C103  1.486628 S    
C37   C45   1.410454 A    
O4    Zn2   2.019186 S    
C91   C92   1.416626 A    
C16   H8    1.079822 S    
C95   H35   1.083343 S    
O5    C3    1.284140 A    
C70   C106  1.486655 S    
C80   C86   1.409222 A    
O24   H44   1.013969 S    
C48   C56   1.419868 A    
O6    C4    1.283314 A    
C89   C90   1.416624 A    
O11   C6    1.284253 A    
O1    C1    1.284681 A    
C36   C60   1.396444 A    
C59   H19   1.085361 S    
C40   C48   1.410317 A    
C65   C101  1.486504 S    
C13   C21   1.396171 A    
O28   H46   1.013959 S    
C10   H2    1.080121 S    
C62   C66   1.393942 A    
C9    H1    1.080203 S    
C4    C17   1.436822 S    
C40   C64   1.395789 A    
O9    C5    1.282962 A    
C106  O27   1.223249 D    
C73   C83   1.409238 A    
C97   H37   1.083401 S    
C11   H3    1.079796 S    
C11   C51   1.390992 A    
C14   H6    1.081746 S    
C11   C19   1.395753 A    
C13   H5    1.080165 S    
C12   C20   1.396262 A    
C78   N4    1.365413 A    
C107  O29   1.223205 D    
C82   C94   1.405451 A    
C18   C26   1.393383 A    
C74   C84   1.408827 A    
C104  O23   1.223003 D    
C56   C71   1.416909 A    
O32   H48   1.013860 S    
C16   C56   1.390541 A    
C81   C89   1.408505 A    
O12   Zn4   2.019186 S    
C64   H24   1.085320 S    
O7    C4    1.282405 A    
C61   H21   1.085205 S    
C30   H14   1.085112 S    
C94   C95   1.404736 A    
C32   H16   1.084993 S    
C99   H39   1.083321 S    
C74   N2    1.365261 A    
C10   C18   1.396401 A    
C34   C58   1.396165 A    
C50   C65   1.417073 A    
C73   N1    1.365448 A    
C43   C51   1.420046 A    
C61   C65   1.394929 A    
C49   C66   1.417270 A    
Zn4   N4    1.997901 S    
C69   C105  1.486888 S    
C26   H10   1.084951 S    
C46   C54   1.419145 A    
