data_mof_unit_pretest_237.cif
_audit_creation_date              2012-12-11T16:53:50-0500
_audit_creation_method            fapswitch 2.2
_symmetry_space_group_name_H-M    P1
_symmetry_Int_Tables_number       1
_space_group_crystal_system       triclinic
_cell_length_a                    14.975665
_cell_length_b                    14.762515
_cell_length_c                    16.953343
_cell_angle_alpha                 108.733674
_cell_angle_beta                  106.313456
_cell_angle_gamma                 108.672775
_cell_volume                      3039.5467434

loop_
_atom_site_label
_atom_site_type_symbol
_atom_type_description
_atom_site_fract_x
_atom_site_fract_y
_atom_site_fract_z
_atom_type_partial_charge
C1    C     C_R   0.086384 0.283831 0.074097 -0.158644
C2    C     C_R   0.063989 0.548454 0.265171 -0.126807
C3    C     C_R   0.280883 0.784338 0.174965 0.747290
C4    C     C_R   0.935233 0.519949 0.747026 -0.148366
C5    C     C_R   0.698070 0.407153 0.996701 -0.142148
C6    C     C_R   0.340569 0.780143 0.251882 -0.038143
C7    C     C_R   0.641552 0.441982 0.944654 0.071826
C8    C     C_R   0.971407 0.533750 0.274384 0.051325
C9    C     C_R   0.996401 0.823189 0.985985 0.059560
C10   C     C_R   0.417974 0.497624 0.904550 0.040400
C11   C     C_R   0.358208 0.431492 0.932362 0.043415
C12   C     C_R   0.025989 0.581243 0.745203 0.119188
C13   C     C_R   0.376282 0.345242 0.936810 -0.177292
C14   C     C_R   0.464912 0.338563 0.929496 -0.192037
C15   C     C_R   0.532742 0.416896 0.915681 0.058123
C16   C     C_R   0.774502 0.200480 0.813314 -0.121996
C17   C     C_R   0.499963 0.486117 0.890402 0.109647
C18   C     C_3   0.559347 0.603841 0.920542 -0.541573
C19   C     C_3   0.471133 0.617928 0.941114 0.003612
C20   C     C_R   0.961750 0.577687 0.360776 0.102922
C21   C     C_R   0.033237 0.622469 0.677917 0.047133
C22   C     C_R   0.137454 0.696833 0.607193 0.733474
C23   C     C_R   0.756475 0.193250 0.726240 0.056184
C24   C     C_R   0.130870 0.680151 0.681972 -0.343129
C25   C     C_R   0.942065 0.593897 0.603136 -0.269366
C26   C     C_R   0.947824 0.604994 0.526186 0.122046
C27   C     C_R   0.046295 0.652384 0.526605 -0.046282
C28   C     C_R   0.252440 0.529696 0.944643 -0.134757
C29   C     C_R   0.052007 0.642532 0.443970 -0.195736
C30   C     C_R   0.863591 0.542802 0.362470 -0.161759
C31   C     C_R   0.856709 0.557879 0.445318 -0.165434
C32   C     C_R   0.713729 0.094726 0.641010 0.109196
C33   C     C_R   0.451451 0.850560 0.318966 -0.071780
C34   C     C_R   0.286711 0.459860 0.963583 0.047593
C35   C     C_R   0.612252 0.017461 0.389440 -0.060753
C36   C     C_R   0.519086 0.937160 0.312469 0.725275
C37   C     C_R   0.487915 0.835141 0.396854 -0.349508
C38   C     C_R   0.576928 0.915031 0.474450 0.143422
C39   C     C_R   0.635246 0.011008 0.473777 0.042768
C40   C     C_R   0.780341 0.296071 0.734623 -0.124571
C41   C     C_R   0.706221 0.100390 0.558552 -0.210191
C42   C     C_R   0.667551 0.994719 0.639275 -0.153180
C43   C     C_R   0.600081 0.904798 0.555999 -0.147165
C44   C     C_R   0.073625 0.132231 0.162126 0.083191
C45   C     C_R   0.275902 0.687314 0.250422 -0.283192
C46   C     C_R   0.993440 0.108464 0.080343 -0.184708
C47   C     C_R   0.903621 0.008447 0.038034 0.731840
C48   C     C_R   0.889606 0.944972 0.084660 -0.367179
C49   C     C_R   0.965096 0.978748 0.172635 -0.017368
C50   C     C_R   0.059745 0.068218 0.206707 0.165499
C51   C     C_3   0.120232 0.161659 0.299899 -0.455788
C52   C     C_R   0.254003 0.438214 0.027212 -0.124285
C53   C     C_3   0.135393 0.232342 0.251657 -0.473115
C54   C     C_R   0.107713 0.604994 0.824029 -0.141343
C55   C     C_R   0.914167 0.200062 0.997925 -0.090063
C56   C     C_R   0.706641 0.503004 0.919226 -0.147334
C57   C     C_R   0.998979 0.189004 0.044980 0.143216
C58   C     C_3   0.505785 0.683459 0.045450 -0.322691
C59   C     C_3   0.573422 0.802479 0.078932 -0.758127
C60   C     C_3   0.682048 0.110086 0.380163 -0.280046
C61   C     C_3   0.645455 0.196989 0.392776 -0.847811
C62   C     C_R   0.889915 0.463388 0.187522 -0.126283
C63   C     C_R   0.083127 0.807676 0.021248 -0.120431
C64   C     C_R   0.910864 0.722831 0.944400 -0.110290
F1    F     F_    0.314565 0.848726 0.137446 -0.674192
F2    F     F_    0.232999 0.745933 0.610254 -0.707973
F3    F     F_    0.496412 0.945500 0.232815 -0.663362
F4    F     F_    0.826982 0.974410 0.954349 -0.720225
H1    H     H_    0.163736 0.310282 0.124732 0.105830
H2    H     H_    0.635134 0.643505 0.982137 0.203895
H3    H     H_    0.856441 0.500066 0.704271 0.090315
H4    H     H_    0.565168 0.620082 0.862053 0.186862
H5    H     H_    0.429304 0.646193 0.896720 0.140392
H6    H     H_    0.127794 0.675121 0.444124 0.170420
H7    H     H_    0.792082 0.496906 0.299866 0.113783
H8    H     H_    0.780584 0.523431 0.444583 0.119739
H9    H     H_    0.202711 0.706620 0.740012 0.161763
H10   H     H_    0.865976 0.552870 0.599773 0.129558
H11   H     H_    0.746999 0.176892 0.561096 0.129042
H12   H     H_    0.684845 0.528627 0.866879 0.106520
H13   H     H_    0.764710 0.136694 0.832986 0.116102
H14   H     H_    0.675409 0.986514 0.701619 0.137643
H15   H     H_    0.558050 0.830047 0.556358 0.133471
H16   H     H_    0.441738 0.766770 0.402777 0.164614
H17   H     H_    0.817943 0.872025 0.054346 0.167404
H18   H     H_    0.071457 0.172385 0.337543 0.192969
H19   H     H_    0.193876 0.162552 0.339440 0.194312
H20   H     H_    0.095341 0.284070 0.261247 0.199253
H21   H     H_    0.263546 0.562661 0.897926 0.103599
H22   H     H_    0.217950 0.274292 0.264124 0.189536
H23   H     H_    0.807446 0.434497 0.168543 0.097557
H24   H     H_    0.774718 0.320998 0.680922 0.094425
H25   H     H_    0.268546 0.387690 0.058002 0.099011
H26   H     H_    0.187646 0.664328 0.852233 0.107687
H27   H     H_    0.833805 0.151656 0.981348 0.149020
H28   H     H_    0.298357 0.647309 0.289882 0.144051
H29   H     H_    0.645054 0.815394 0.067686 0.236045
H30   H     H_    0.528991 0.835102 0.041885 0.274606
H31   H     H_    0.596986 0.846937 0.153840 0.260389
H32   H     H_    0.437335 0.676476 0.060532 0.210763
H33   H     H_    0.549722 0.653077 0.085931 0.193038
H34   H     H_    0.163326 0.867299 0.052375 0.179187
H35   H     H_    0.565505 0.164265 0.338859 0.290054
H36   H     H_    0.645382 0.228639 0.461663 0.238090
H37   H     H_    0.698839 0.264146 0.386864 0.237749
H38   H     H_    0.764473 0.145069 0.430212 0.167679
H39   H     H_    0.682324 0.080770 0.311124 0.222184
H40   H     H_    0.830997 0.703075 0.904502 0.112709
H41   H     H_    0.142824 0.597839 0.317972 0.109578
H42   H     H_    0.667726 0.346336 0.017486 0.095448
H43   H     H_    0.328706 0.290146 0.954788 0.133219
H44   H     H_    0.485357 0.279820 0.943998 0.133930
N1    N     N_R   0.055640 0.348550 0.045600 -0.041204
N2    N     N_R   0.811290 0.303400 0.871650 -0.042320
N3    N     N_R   0.205180 0.552990 0.997660 -0.043459
N4    N     N_R   0.814810 0.361830 0.823710 -0.040217
N5    N     N_R   0.201660 0.494570 0.045600 -0.041907
N6    N     N_R   0.068420 0.560530 0.871650 -0.039299
N7    N     N_R   0.948050 0.295860 0.997660 -0.057014
N8    N     N_R   0.185190 0.638170 0.176290 -0.074950
N9    N     N_R   0.798340 0.505430 0.954400 -0.039957
N10   N     N_R   0.931580 0.439470 0.128350 -0.043523
N11   N     N_R   0.051950 0.704140 0.002340 -0.044899
N12   N     N_R   0.944360 0.651450 0.954400 -0.048800
N13   N     N_R   0.039170 0.492150 0.176290 -0.037946
N14   N     N_R   0.188710 0.696600 0.128350 -0.117750
N15   N     N_R   0.794820 0.447010 0.002340 -0.039475
N16   N     N_R   0.960830 0.507850 0.823710 -0.042245
Ni1   Ni    Ni4+2 0.119330 0.493420 0.109950 0.200959
Ni2   Ni    Ni4+2 0.880670 0.506580 0.890050 0.210128
Ni3   Ni    Ni4+2 0.872590 0.372590 0.000000 0.214283
Ni4   Ni    Ni4+2 0.127410 0.627410 0.000000 0.264435

loop_
_geom_bond_atom_site_label_1
_geom_bond_atom_site_label_2
_ccdc_geom_bond_type
C18   H2    S    
C2    H41   S    
C6    C45   A    
N11   Ni4   S    
C27   C29   A    
C9    C64   A    
C43   H15   S    
N2    Ni3   S    
C47   F4    S    
C35   C36   A    
C42   H14   S    
N9    Ni2   S    
C3    C6    A    
C40   N4    A    
C3    N14   A    
C60   H38   S    
N11   N12   A    
C39   C41   A    
C20   C30   A    
C14   H44   S    
C26   C27   A    
C8    C20   S    
N1    Ni1   S    
C61   H35   S    
N9    N15   A    
C30   C31   A    
N8    N14   A    
C5    H42   S    
C10   C17   A    
C23   C40   A    
C33   C36   A    
C59   H31   S    
C18   C19   S    
C22   F2    S    
N1    N7    A    
C44   C53   S    
N6    N16   A    
N3    N5    A    
N7    Ni3   S    
C32   C41   A    
C37   H16   S    
C28   H21   S    
C4    C12   A    
N5    Ni1   S    
N3    Ni4   S    
C52   N5    A    
C7    C15   S    
C28   C34   A    
C26   C31   A    
C13   C14   A    
C3    F1    S    
C1    N1    A    
C7    C56   A    
C63   H34   S    
C51   H18   S    
C44   C46   A    
C64   H40   S    
N15   Ni3   S    
C20   C29   A    
C19   C58   S    
C18   H4    S    
C36   F3    S    
C4    N16   A    
C25   H10   S    
C19   H5    S    
C61   H36   S    
C58   H32   S    
C55   H27   S    
C51   H19   S    
C5    C7    A    
C55   N7    A    
C29   H6    S    
C50   C51   S    
C58   C59   S    
C64   N12   A    
C12   C21   S    
C1    H1    S    
N8    Ni1   S    
C16   N2    A    
C35   C60   S    
C51   C53   S    
C35   C39   A    
C37   C38   A    
C28   N3    A    
C1    C57   A    
C63   N11   A    
C47   C48   A    
C14   C15   A    
N14   Ni4   S    
C10   C19   S    
C62   H23   S    
C5    N15   A    
C17   C18   S    
N12   Ni2   S    
C52   H25   S    
C58   H33   S    
C40   H24   S    
C60   H39   S    
C45   N8    A    
C48   C49   A    
C16   C23   A    
C22   C27   A    
C54   N6    A    
C46   C57   S    
C59   H29   S    
C22   C24   A    
C42   C43   A    
N10   Ni3   S    
C62   N10   A    
C61   H37   S    
C44   C50   A    
C15   C17   A    
C21   C25   A    
C46   C47   A    
C9    C63   A    
C11   C34   S    
C2    C8    A    
N16   Ni2   S    
C41   H11   S    
N2    N4    A    
C34   C52   A    
C56   H12   S    
C6    C33   S    
C56   N9    A    
N10   N13   A    
C55   C57   A    
C25   C26   A    
C38   C43   A    
C13   H43   S    
C23   C32   S    
C30   H7    S    
C11   C13   A    
C31   H8    S    
C38   C39   A    
C16   H13   S    
C53   H20   S    
C33   C37   A    
C54   H26   S    
N6    Ni4   S    
C10   C11   A    
C2    N13   A    
N13   Ni1   S    
C24   H9    S    
N4    Ni2   S    
C49   C50   A    
C21   C24   A    
C53   H22   S    
C59   H30   S    
C32   C42   A    
C48   H17   S    
C60   C61   S    
C45   H28   S    
C4    H3    S    
C12   C54   A    
C8    C62   A    
