data_mof_unit_pretest_1386.cif
_audit_creation_date              2012-12-10T17:21:42-0500
_audit_creation_method            fapswitch 2.2
_symmetry_space_group_name_H-M    P1
_symmetry_Int_Tables_number       1
_space_group_crystal_system       triclinic
_cell_length_a                    10.731484
_cell_length_b                    10.800364
_cell_length_c                    9.580131
_cell_angle_alpha                 88.345648
_cell_angle_beta                  89.931889
_cell_angle_gamma                 93.280576
_cell_volume                      1108.08870617

loop_
_atom_site_label
_atom_site_type_symbol
_atom_type_description
_atom_site_fract_x
_atom_site_fract_y
_atom_site_fract_z
_atom_type_partial_charge
C1    C     C_R   0.486975 0.261676 0.502205 0.808006
C2    C     C_3   0.878314 0.500157 0.500941 0.161025
C3    C     C_3   0.935454 0.617679 0.422660 -0.401102
C4    C     C_3   0.921433 0.383573 0.428040 -0.367549
C5    C     C_R   0.365788 0.109947 0.742753 -0.169126
C6    C     C_R   0.317989 0.038088 0.855564 -0.157021
C7    C     C_R   0.309849 0.909856 0.849067 -0.153533
C8    C     C_R   0.350335 0.852898 0.730196 -0.160294
C9    C     C_R   0.406352 0.923317 0.617085 0.075249
C10   C     C_R   0.413458 0.054944 0.623026 0.104876
C11   C     C_R   0.459877 0.125977 0.504689 -0.179405
C12   C     C_R   0.259918 0.499475 0.500300 0.727585
C13   C     C_R   0.467759 0.067427 0.377222 -0.231637
C14   C     C_R   0.452148 0.939542 0.367892 0.146558
C15   C     C_R   0.445586 0.866342 0.493507 -0.187207
C16   C     C_R   0.676307 0.654910 0.139345 -0.153906
C17   C     C_R   0.767498 0.725611 0.065013 -0.237796
C18   C     C_R   0.766384 0.727602 0.921130 -0.218141
C19   C     C_R   0.675671 0.657022 0.850989 -0.151363
C20   C     C_R   0.587233 0.576051 0.922700 0.212290
C21   C     C_R   0.587279 0.575668 0.072354 0.210255
C22   C     C_R   0.415282 0.429678 0.076523 -0.073540
C23   C     C_R   0.481116 0.735390 0.497834 0.788280
C24   C     C_R   0.414629 0.430663 0.928611 -0.078273
C25   C     C_R   0.740165 0.500312 0.500161 0.753695
C26   C     C_3   0.071259 0.497586 0.653234 -0.374122
C27   C     C_3   0.928692 0.498948 0.653045 -0.365763
C28   C     C_3   0.079323 0.618113 0.424061 -0.375728
C29   C     C_3   0.065294 0.383771 0.427267 -0.388474
C30   C     C_3   0.122009 0.499717 0.501167 0.175195
Cu1   Cu    Cu3+1 0.499990 0.499990 0.640660 0.909772
Cu2   Cu    Cu3+1 0.500010 0.500010 0.359340 0.911671
H1    H     H_    0.110731 0.579682 0.709464 0.164766
H2    H     H_    0.886708 0.381655 0.318638 0.175163
H3    H     H_    0.114894 0.622892 0.314728 0.167083
H4    H     H_    0.902750 0.619967 0.312619 0.172601
H5    H     H_    0.482636 0.122192 0.281572 0.180629
H6    H     H_    0.356216 0.207742 0.748448 0.148955
H7    H     H_    0.282058 0.082390 0.946005 0.120948
H8    H     H_    0.267454 0.854339 0.934252 0.127497
H9    H     H_    0.329099 0.754220 0.725486 0.160837
H10   H     H_    0.345828 0.372059 0.133826 0.128647
H11   H     H_    0.099713 0.412930 0.711192 0.160831
H12   H     H_    0.675942 0.670512 0.248307 0.202895
H13   H     H_    0.835368 0.784336 0.119543 0.142957
H14   H     H_    0.834073 0.787024 0.863171 0.144632
H15   H     H_    0.678312 0.671442 0.740931 0.199042
H16   H     H_    0.342894 0.376044 0.875852 0.116105
H17   H     H_    0.888822 0.415861 0.712626 0.174815
H18   H     H_    0.900573 0.582610 0.707454 0.167719
H19   H     H_    0.118332 0.702274 0.476754 0.145898
H20   H     H_    0.904628 0.702619 0.472539 0.142319
H21   H     H_    0.099199 0.383135 0.317448 0.166053
H22   H     H_    0.095463 0.297836 0.481096 0.146544
H23   H     H_    0.881948 0.298122 0.483406 0.151068
N1    N     N_R   0.501200 0.501210 0.147910 -0.199397
N2    N     N_R   0.501250 0.501290 0.852040 -0.197543
O1    O     O_R   0.499990 0.319640 0.618810 -0.577999
O2    O     O_R   0.500000 0.319660 0.381240 -0.577168
O3    O     O_R   0.317680 0.499970 0.618790 -0.603939
O4    O     O_R   0.317700 0.499990 0.381210 -0.593854
O5    O     O_R   0.500000 0.680340 0.618760 -0.602766
O6    O     O_R   0.500010 0.680360 0.381190 -0.594734
O7    O     O_R   0.682300 0.500010 0.618790 -0.597150
O8    O     O_R   0.682320 0.500030 0.381210 -0.594828
C31   C     C_3   0.428007 0.890953 0.222423 -0.394880
C32   C     C_3   0.540542 0.916803 0.126098 -0.786274
H24   H     H_    0.545744 0.014940 0.087728 0.236954
H25   H     H_    0.628081 0.899099 0.182668 0.252226
H26   H     H_    0.531451 0.857148 0.033822 0.259525
H27   H     H_    0.395744 0.792087 0.221015 0.225341
H28   H     H_    0.348387 0.939631 0.176812 0.178001

loop_
_geom_bond_atom_site_label_1
_geom_bond_atom_site_label_2
_ccdc_geom_bond_type
Cu1   O3    S    
C26   H11   S    
C21   N1    A    
C2    C4    S    
C3    H20   S    
C16   C21   A    
C26   C30   S    
C29   C30   S    
C9    C10   A    
C16   H12   S    
C26   H1    S    
C13   H5    S    
C31   H27   S    
C1    C11   S    
C27   H18   S    
C7    H8    S    
C32   H26   S    
Cu1   N2    S    
C22   C24   A    
C15   C23   S    
C17   C18   A    
C14   C31   S    
C5    C10   A    
C4    H23   S    
Cu1   Cu2   S    
C1    O1    A    
C20   C21   A    
C12   O4    A    
C11   C13   A    
Cu1   O5    S    
C26   C27   S    
C22   H10   S    
C29   H21   S    
C3    H4    S    
C18   H14   S    
Cu1   O1    S    
C28   C30   S    
C3    C28   S    
C24   N2    A    
C17   H13   S    
Cu2   O4    S    
C5    H6    S    
C2    C25   S    
C2    C3    S    
C1    O2    A    
C2    C27   S    
C9    C15   A    
C5    C6    A    
C28   H19   S    
C4    H2    S    
C23   O6    A    
C16   C17   A    
C29   H22   S    
C4    C29   S    
C32   H24   S    
C24   H16   S    
C27   H17   S    
C7    C8    A    
C25   O8    A    
C8    H9    S    
Cu2   O6    S    
C18   C19   A    
C10   C11   A    
C19   H15   S    
C31   C32   S    
C6    H7    S    
Cu2   O8    S    
C22   N1    A    
C14   C15   A    
Cu2   O2    S    
C12   C30   S    
C20   N2    A    
C13   C14   A    
Cu1   O7    S    
Cu2   N1    S    
C23   O5    A    
C31   H28   S    
C6    C7    A    
C19   C20   A    
C28   H3    S    
C8    C9    A    
C32   H25   S    
C25   O7    A    
C12   O3    A    
