data_mof_unit_pretest_1472.cif
_audit_creation_date              2012-12-10T16:32:36-0500
_audit_creation_method            fapswitch 2.2
_symmetry_space_group_name_H-M    P1
_symmetry_Int_Tables_number       1
_space_group_crystal_system       triclinic
_cell_length_a                    16.970775
_cell_length_b                    16.910593
_cell_length_c                    16.935552
_cell_angle_alpha                 65.958856
_cell_angle_beta                  65.937672
_cell_angle_gamma                 65.799445
_cell_volume                      3875.821416

loop_
_atom_site_label
_atom_site_type_symbol
_atom_type_description
_atom_site_fract_x
_atom_site_fract_y
_atom_site_fract_z
_atom_type_partial_charge
C1    C     C_R   0.593619 0.022235 0.594787 0.277728
C2    C     C_R   0.821654 0.563194 0.035377 0.898813
C3    C     C_3   0.803988 0.692058 0.549882 0.149173
C4    C     C_3   0.805724 0.777312 0.559976 -0.376718
C5    C     C_3   0.785822 0.771294 0.658543 -0.657313
C6    C     C_R   0.435393 0.967727 0.178306 0.908524
C7    C     C_R   0.564379 0.032482 0.821799 0.901044
C8    C     C_R   0.566970 0.822632 0.026679 0.912623
C9    C     C_R   0.436485 0.178501 0.965222 0.893899
C10   C     C_R   0.031233 0.564867 0.821979 0.919393
C11   C     C_R   0.964055 0.437030 0.178469 0.899270
C12   C     C_R   0.822139 0.029678 0.565552 0.906332
C13   C     C_R   0.178273 0.966565 0.435845 0.904229
C14   C     C_R   0.546080 0.005785 0.548819 -0.231731
C15   C     C_R   0.408307 0.963811 0.411292 0.281730
C16   C     C_R   0.454390 0.978669 0.459721 -0.223092
C17   C     C_R   0.015364 0.544984 0.543860 -0.244614
C18   C     C_R   0.980504 0.461968 0.451545 -0.242012
C19   C     C_R   0.549418 0.543506 0.010205 -0.269381
C20   C     C_R   0.457307 0.457110 0.979379 -0.263250
C21   C     C_R   0.502766 0.079250 0.488148 0.292741
C22   C     C_R   0.505847 0.903845 0.512556 0.302301
C23   C     C_R   0.926442 0.563053 0.544416 0.337268
C24   C     C_R   0.069941 0.450333 0.444464 0.390628
C25   C     C_R   0.487464 0.500481 0.083351 0.408055
C26   C     C_R   0.029987 0.591300 0.592158 0.208719
C27   C     C_R   0.514417 0.504853 0.905980 0.291951
C28   C     C_R   0.447373 0.067099 0.452850 0.304437
C29   C     C_R   0.543269 0.917937 0.565522 0.308075
C30   C     C_R   0.445131 0.454153 0.067937 0.337265
C31   C     C_R   0.565222 0.542944 0.921791 0.334339
C32   C     C_R   0.908683 0.517376 0.502571 0.285960
C33   C     C_R   0.087855 0.485623 0.496005 0.290437
C34   C     C_R   0.550331 0.034475 0.680690 -0.185292
C35   C     C_R   0.449220 0.962403 0.321430 -0.223506
C36   C     C_R   0.035925 0.679719 0.550289 -0.243258
C37   C     C_R   0.962281 0.413428 0.407684 0.252633
C38   C     C_R   0.968046 0.321304 0.446439 -0.197915
C39   C     C_R   0.679628 0.546418 0.043343 -0.187009
C40   C     C_R   0.319001 0.448525 0.967295 -0.222757
C41   C     C_R   0.320785 0.956529 0.452797 -0.175041
C42   C     C_R   0.682862 0.024860 0.553882 -0.189268
C43   C     C_R   0.453079 0.322669 0.954294 -0.180741
C44   C     C_R   0.560654 0.683915 0.015591 -0.212386
C45   C     C_R   0.947949 0.456185 0.322634 -0.176704
C46   C     C_R   0.033137 0.550327 0.681243 -0.170904
C47   C     C_R   0.598067 0.043893 0.726270 -0.078147
C48   C     C_R   0.596565 0.591147 0.024861 0.243056
C49   C     C_R   0.402151 0.953588 0.274594 -0.079660
C50   C     C_R   0.044422 0.725900 0.598161 -0.066044
C51   C     C_R   0.957562 0.274357 0.400425 -0.076630
C52   C     C_R   0.725881 0.595974 0.049201 -0.079823
C53   C     C_R   0.273517 0.401135 0.957111 -0.087128
C54   C     C_R   0.274331 0.951352 0.403209 -0.084146
C55   C     C_R   0.727252 0.039012 0.599748 -0.087412
C56   C     C_R   0.403868 0.275130 0.949823 -0.078747
C57   C     C_R   0.603053 0.728021 0.034085 -0.082721
C58   C     C_R   0.946708 0.405123 0.275075 -0.095954
C59   C     C_R   0.410106 0.410120 0.963728 0.241510
C60   C     C_R   0.042942 0.598200 0.726673 -0.093950
C61   C     C_R   0.683533 0.051903 0.683568 -0.267047
C62   C     C_R   0.317165 0.943573 0.317243 -0.271375
C63   C     C_R   0.053418 0.683086 0.683468 -0.280339
C64   C     C_R   0.943679 0.317547 0.316866 -0.266995
C65   C     C_R   0.683981 0.683243 0.053106 -0.265693
C66   C     C_R   0.317379 0.317186 0.943989 -0.261046
C67   C     C_3   0.524962 0.801265 0.698052 0.076074
C68   C     C_3   0.472672 0.850337 0.771103 -0.339391
C69   C     C_3   0.411261 0.798892 0.851818 -0.991954
C70   C     C_R   0.970461 0.178151 0.434209 0.914485
C71   C     C_3   0.322196 0.192062 0.463702 0.141955
C72   C     C_3   0.247181 0.146550 0.523373 -0.385108
C73   C     C_3   0.170863 0.202935 0.583490 -0.894373
C74   C     C_3   0.214562 0.514441 0.489087 0.091313
C75   C     C_3   0.316695 0.474642 0.458771 -0.348460
C76   C     C_3   0.364150 0.538259 0.451290 -0.999929
C77   C     C_3   0.789141 0.460274 0.583074 0.105634
C78   C     C_3   0.710862 0.449551 0.569472 -0.350494
C79   C     C_3   0.671502 0.377946 0.649104 -0.953053
C80   C     C_3   0.698388 0.529319 0.805510 0.094160
C81   C     C_R   0.031990 0.821728 0.564662 0.909147
C82   C     C_3   0.772226 0.481448 0.853269 -0.339321
C83   C     C_3   0.855115 0.421769 0.801093 -0.968356
C84   C     C_3   0.421058 0.319786 0.168444 0.094211
C85   C     C_3   0.347741 0.275272 0.196003 -0.350262
C86   C     C_3   0.387556 0.174787 0.205221 -0.865221
C87   C     C_3   0.602705 0.770766 0.478756 0.133405
C88   C     C_3   0.609505 0.754069 0.393643 -0.372468
C89   C     C_3   0.700908 0.689518 0.359321 -0.942420
C90   C     C_3   0.574735 0.179261 0.375858 0.143265
C91   C     C_3   0.612070 0.255393 0.357292 -0.367366
C92   C     C_R   0.177954 0.434474 0.969821 0.911798
C93   C     C_3   0.537218 0.343237 0.366181 -0.761863
C94   C     C_3   0.455527 0.583971 0.787017 0.097711
C95   C     C_3   0.470008 0.592304 0.689200 -0.337737
C96   C     C_3   0.391454 0.663777 0.654107 -0.923245
C97   C     C_3   0.423952 0.572324 0.196645 0.110877
C98   C     C_3   0.327683 0.610494 0.187312 -0.406465
C99   C     C_3   0.319912 0.685972 0.099479 -0.909974
C100  C     C_3   0.191663 0.453257 0.317255 0.117466
C101  C     C_3   0.158552 0.489699 0.233402 -0.349529
C102  C     C_3   0.097352 0.587253 0.222068 -0.938257
H1    H     H_    0.481046 0.033400 0.713116 0.135981
H2    H     H_    0.498260 0.720483 0.997758 0.162939
H3    H     H_    0.721173 0.755286 0.700194 0.271108
H4    H     H_    0.781060 0.836978 0.662722 0.219056
H5    H     H_    0.840862 0.718078 0.686641 0.266276
H6    H     H_    0.945217 0.526734 0.290739 0.163698
H7    H     H_    0.025630 0.482902 0.715245 0.163325
H8    H     H_    0.718830 0.060940 0.718747 0.183384
H9    H     H_    0.280935 0.938370 0.280412 0.183806
H10   H     H_    0.060681 0.719051 0.719322 0.185260
H11   H     H_    0.939081 0.280236 0.280593 0.183153
H12   H     H_    0.718226 0.718857 0.063018 0.181844
H13   H     H_    0.281103 0.280878 0.938041 0.184420
H14   H     H_    0.565387 0.732501 0.727928 0.201581
H15   H     H_    0.515378 0.972666 0.287193 0.137712
H16   H     H_    0.476712 0.791753 0.676510 0.170484
H17   H     H_    0.520931 0.858203 0.794247 0.247952
H18   H     H_    0.429588 0.918039 0.742549 0.203001
H19   H     H_    0.359155 0.794836 0.831028 0.254544
H20   H     H_    0.376933 0.834698 0.904623 0.273503
H21   H     H_    0.451187 0.729461 0.880773 0.272373
H22   H     H_    0.292667 0.259081 0.420438 0.191453
H23   H     H_    0.347593 0.206155 0.506184 0.173188
H24   H     H_    0.219492 0.136700 0.479938 0.246742
H25   H     H_    0.275402 0.079548 0.567737 0.199375
H26   H     H_    0.030702 0.713019 0.482011 0.140151
H27   H     H_    0.197070 0.214206 0.627167 0.263253
H28   H     H_    0.119253 0.166667 0.627208 0.247078
H29   H     H_    0.138147 0.269142 0.541890 0.302680
H30   H     H_    0.198684 0.530989 0.551860 0.180318
H31   H     H_    0.193698 0.577133 0.435402 0.108719
H32   H     H_    0.337337 0.408734 0.508827 0.240699
H33   H     H_    0.337047 0.462233 0.392702 0.214822
H34   H     H_    0.342256 0.605924 0.404127 0.258412
H35   H     H_    0.438282 0.509934 0.425768 0.267989
H36   H     H_    0.348260 0.546200 0.518597 0.274674
H37   H     H_    0.982515 0.286340 0.510866 0.145169
H38   H     H_    0.765018 0.479973 0.645613 0.150075
H39   H     H_    0.841841 0.393273 0.591430 0.126971
H40   H     H_    0.657129 0.515276 0.561637 0.215168
H41   H     H_    0.735149 0.429503 0.506710 0.231749
H42   H     H_    0.723553 0.310921 0.656305 0.261477
H43   H     H_    0.614215 0.372640 0.637531 0.267304
H44   H     H_    0.646437 0.396766 0.712584 0.291011
H45   H     H_    0.726001 0.571267 0.737098 0.198758
H46   H     H_    0.680845 0.477804 0.796363 0.166465
H47   H     H_    0.792043 0.532556 0.860618 0.251708
H48   H     H_    0.710411 0.475318 0.047499 0.137524
H49   H     H_    0.746005 0.437298 0.920967 0.201313
H50   H     H_    0.837161 0.368268 0.795782 0.248215
H51   H     H_    0.907663 0.388913 0.836937 0.270040
H52   H     H_    0.883176 0.462829 0.732292 0.289285
H53   H     H_    0.443574 0.302215 0.228129 0.160400
H54   H     H_    0.480687 0.291980 0.116215 0.122925
H55   H     H_    0.298845 0.284368 0.261551 0.231925
H56   H     H_    0.310237 0.307389 0.144826 0.236400
H57   H     H_    0.425274 0.164004 0.137995 0.264710
H58   H     H_    0.332254 0.142746 0.237052 0.267202
H59   H     H_    0.283666 0.514016 0.979856 0.153509
H60   H     H_    0.434867 0.142864 0.246674 0.288522
H61   H     H_    0.620461 0.704291 0.528878 0.153266
H62   H     H_    0.653588 0.805513 0.461608 0.109536
H63   H     H_    0.555244 0.725083 0.408126 0.238851
H64   H     H_    0.600747 0.819275 0.339764 0.215884
H65   H     H_    0.756568 0.715247 0.347564 0.259924
H66   H     H_    0.705348 0.683436 0.294669 0.260905
H67   H     H_    0.708786 0.621349 0.408928 0.296261
H68   H     H_    0.539298 0.198728 0.325141 0.144722
H69   H     H_    0.633837 0.118371 0.366583 0.064283
H70   H     H_    0.287624 0.959555 0.521723 0.137011
H71   H     H_    0.651037 0.234760 0.405243 0.221919
H72   H     H_    0.658731 0.267273 0.287592 0.169870
H73   H     H_    0.492919 0.361024 0.324387 0.272888
H74   H     H_    0.567290 0.398954 0.343129 0.233406
H75   H     H_    0.496267 0.335687 0.437847 0.273031
H76   H     H_    0.456773 0.647902 0.789545 0.136681
H77   H     H_    0.388139 0.574122 0.827904 0.146895
H78   H     H_    0.533124 0.610990 0.646559 0.216975
H79   H     H_    0.477287 0.525999 0.684143 0.238155
H80   H     H_    0.328513 0.643521 0.692843 0.252871
H81   H     H_    0.717940 0.013385 0.488102 0.132030
H82   H     H_    0.406277 0.670530 0.581823 0.275539
H83   H     H_    0.380977 0.730502 0.660240 0.273067
H84   H     H_    0.459318 0.624376 0.164534 0.148914
H85   H     H_    0.417343 0.555435 0.268826 0.142459
H86   H     H_    0.305542 0.555775 0.191400 0.264580
H87   H     H_    0.280662 0.638744 0.244490 0.178248
H88   H     H_    0.248756 0.713117 0.097945 0.251965
H89   H     H_    0.361864 0.660249 0.040041 0.257256
H90   H     H_    0.340875 0.742246 0.094898 0.258216
H91   H     H_    0.262400 0.410210 0.301383 0.155656
H92   H     H_    0.522116 0.289850 0.957126 0.140825
H93   H     H_    0.195336 0.509525 0.332477 0.129232
H94   H     H_    0.216805 0.488774 0.171686 0.232086
H95   H     H_    0.123340 0.445172 0.237030 0.246103
H96   H     H_    0.041709 0.594280 0.284861 0.252112
H97   H     H_    0.068385 0.608367 0.165972 0.272469
H98   H     H_    0.136632 0.633383 0.205700 0.251347
H99   H     H_    0.733606 0.688671 0.579066 0.159208
H100  H     H_    0.824439 0.699162 0.476309 0.091844
H101  H     H_    0.872424 0.789125 0.520777 0.205947
H102  H     H_    0.754922 0.836643 0.530560 0.196400
O1    O     O_R   0.982940 0.138950 0.510160 -0.635802
O2    O     O_R   0.982940 0.510160 0.138950 -0.641557
O3    O     O_R   0.861050 0.017060 0.489840 -0.643408
O4    O     O_R   0.138950 0.982940 0.510160 -0.639601
O5    O     O_R   0.867700 0.025880 0.612340 -0.630023
O6    O     O_R   0.132300 0.974120 0.387660 -0.630790
O7    O     O_R   0.025880 0.612340 0.867700 -0.630576
O8    O     O_R   0.974120 0.387660 0.132300 -0.631023
O9    O     O_R   0.612340 0.867700 0.025880 -0.630593
O10   O     O_R   0.387660 0.132300 0.974120 -0.625005
O11   O     O_R   0.387660 0.974120 0.132300 -0.627915
O12   O     O_R   0.017060 0.861050 0.489840 -0.646890
O13   O     O_R   0.612340 0.025880 0.867700 -0.629907
O14   O     O_R   0.132300 0.387660 0.974120 -0.629634
O15   O     O_R   0.867700 0.612340 0.025880 -0.629712
O16   O     O_R   0.974120 0.132300 0.387660 -0.632138
O17   O     O_R   0.025880 0.867700 0.612340 -0.631089
O18   O     O_3   0.586287 0.846131 0.625855 -0.656184
O19   O     O_3   0.391481 0.140701 0.405801 -0.655652
O20   O     O_3   0.173521 0.448340 0.508340 -0.624189
O21   O     O_3   0.820970 0.529177 0.508998 -0.648362
O22   O     O_3   0.623388 0.588910 0.850805 -0.642498
O23   O     O_R   0.138950 0.510160 0.982940 -0.638935
O24   O     O_3   0.383259 0.414514 0.139954 -0.659313
O25   O     O_3   0.512519 0.817669 0.517052 -0.643894
O26   O     O_3   0.514587 0.163090 0.464147 -0.605717
O27   O     O_3   0.524647 0.510037 0.818772 -0.643428
O28   O     O_3   0.476336 0.490988 0.172220 -0.636910
O29   O     O_3   0.140095 0.398547 0.390979 -0.631650
O30   O     O_3   0.856909 0.613686 0.599379 -0.627233
O31   O     O_R   0.861050 0.489840 0.017060 -0.641473
O32   O     O_R   0.510160 0.982940 0.138950 -0.639565
O33   O     O_R   0.489840 0.017060 0.861050 -0.640960
O34   O     O_R   0.489840 0.861050 0.017060 -0.642483
O35   O     O_R   0.510160 0.138950 0.982940 -0.647294
O36   O     O_R   0.017060 0.489840 0.861050 -0.636636
Zn1   Zn    Zn3+2 0.004880 0.004880 0.583590 0.935865
Zn2   Zn    Zn3+2 0.995120 0.995120 0.416410 0.922631
Zn3   Zn    Zn3+2 0.004880 0.583590 0.004880 0.929823
Zn4   Zn    Zn3+2 0.995120 0.416410 0.995120 0.933985
Zn5   Zn    Zn3+2 0.583590 0.004880 0.004880 0.928288
Zn6   Zn    Zn3+2 0.416410 0.995120 0.995120 0.933198

loop_
_geom_bond_atom_site_label_1
_geom_bond_atom_site_label_2
_ccdc_geom_bond_type
C16   C28   A    
C87   H61   S    
C87   C88   S    
C73   H29   S    
C25   O28   S    
C10   O36   A    
C101  C102  S    
C22   C29   A    
C74   H30   S    
C65   H12   S    
C95   C96   S    
C77   H38   S    
C67   H14   S    
C19   C31   A    
C34   C47   A    
C97   C98   S    
C44   H2    S    
C75   H32   S    
C79   H43   S    
C83   H52   S    
C20   C30   A    
C76   H35   S    
C70   O1    A    
C77   O21   S    
C39   H48   S    
C17   C23   A    
C17   C33   A    
C60   C63   A    
C18   C24   A    
C17   C26   S    
C90   O26   S    
C14   C21   A    
C18   C37   S    
O13   Zn5   S    
C12   O5    A    
C83   H50   S    
C102  H98   S    
C102  H96   S    
C3    O30   S    
O23   Zn3   S    
C99   H90   S    
C11   O8    A    
C84   H53   S    
C75   H33   S    
C4    H102  S    
C81   O12   A    
C69   H21   S    
C15   C16   S    
C98   C99   S    
C74   H31   S    
C74   O20   S    
O36   Zn4   S    
C96   H80   S    
C1    C34   A    
C91   H71   S    
C94   H76   S    
C63   H10   S    
C89   H65   S    
C98   H86   S    
C24   O29   S    
C23   O30   S    
C80   H45   S    
C6    O11   A    
O2    Zn3   S    
C92   O23   A    
C68   C69   S    
C90   H69   S    
C9    O35   A    
C38   H37   S    
C86   H60   S    
C11   O2    A    
O14   Zn4   S    
C11   C58   S    
C86   H57   S    
C82   H49   S    
C101  H94   S    
C43   C59   A    
C5    H3    S    
C39   C52   A    
C40   C59   A    
C58   C64   A    
C50   C63   A    
O34   Zn6   S    
C100  O29   S    
C36   H26   S    
C85   H55   S    
C96   H82   S    
C98   H87   S    
O1    Zn1   S    
C61   H8    S    
C96   H83   S    
C15   C35   A    
C94   O27   S    
C79   H44   S    
C46   H7    S    
C5    H4    S    
C32   O21   S    
O12   Zn2   S    
C29   O18   S    
O31   Zn4   S    
C41   H70   S    
C73   H27   S    
C45   C58   A    
C71   O19   S    
C74   C75   S    
C62   H9    S    
C72   H25   S    
C27   C31   A    
C67   C68   S    
C12   C55   S    
C12   O3    A    
C7    O33   A    
C71   H22   S    
C97   H84   S    
C15   C41   A    
C80   C82   S    
C8    O9    A    
C66   H13   S    
O3    Zn2   S    
O5    Zn1   S    
C95   H78   S    
C93   H75   S    
C78   C79   S    
C4    C5    S    
C4    H101  S    
O17   Zn1   S    
C38   C51   A    
C54   C62   A    
C77   C78   S    
O16   Zn2   S    
C93   H73   S    
C70   O16   A    
C91   H72   S    
C72   H24   S    
C7    C47   S    
C67   O18   S    
C10   C60   S    
C75   C76   S    
C89   H66   S    
C35   C49   A    
C37   C38   A    
C42   H81   S    
C30   O24   S    
C8    C57   S    
C91   C93   S    
C43   C56   A    
C79   H42   S    
C69   H19   S    
C44   C57   A    
C13   O6    A    
C90   H68   S    
C53   C92   S    
C13   O4    A    
O10   Zn6   S    
C9    C56   S    
C84   C85   S    
C20   C59   S    
C92   O14   A    
C53   C66   A    
O6    Zn2   S    
C85   C86   S    
O7    Zn3   S    
C2    C52   S    
C28   O19   S    
O11   Zn6   S    
C27   O27   S    
C51   C70   S    
C21   C28   A    
C82   C83   S    
C76   H36   S    
C43   H92   S    
C2    O15   A    
C3    H99   S    
C35   H15   S    
C18   C32   A    
C85   H56   S    
C14   C29   A    
C37   C45   A    
C3    C4    S    
C84   O24   S    
C36   C50   A    
C13   C54   S    
C5    H5    S    
C100  H93   S    
C26   C36   A    
C25   C30   A    
C97   H85   S    
C6    O32   A    
C73   H28   S    
C16   C22   A    
C49   C62   A    
C46   C60   A    
C19   C48   S    
O32   Zn5   S    
C71   H23   S    
C51   C64   A    
C34   H1    S    
C57   C65   A    
C72   C73   S    
C47   C61   A    
C99   H88   S    
C10   O7    A    
C45   H6    S    
C83   H51   S    
C20   C27   A    
C8    O34   A    
C9    O10   A    
C81   O17   A    
C93   H74   S    
C88   H64   S    
C24   C33   A    
O35   Zn5   S    
C23   C32   A    
C78   H40   S    
C89   H67   S    
C40   H59   S    
C68   H17   S    
C87   O25   S    
C78   H41   S    
C68   H18   S    
C99   H89   S    
C84   H54   S    
C90   C91   S    
C22   O25   S    
C69   H20   S    
C42   C55   A    
C56   C66   A    
C21   O26   S    
C55   C61   A    
C100  C101  S    
O15   Zn3   S    
O33   Zn6   S    
C87   H62   S    
C101  H95   S    
C94   H77   S    
C95   H79   S    
C6    C49   S    
C94   C95   S    
C19   C25   A    
C67   H16   S    
C77   H39   S    
C41   C54   A    
C82   H47   S    
C26   C46   A    
C40   C53   A    
C2    O31   A    
C76   H34   S    
C33   O20   S    
C100  H91   S    
C1    C42   A    
C80   H46   S    
C71   C72   S    
C88   C89   S    
C97   O28   S    
O8    Zn4   S    
C88   H63   S    
C31   O22   S    
C3    H100  S    
O9    Zn5   S    
C1    C14   S    
O4    Zn1   S    
C80   O22   S    
C102  H97   S    
C86   H58   S    
C52   C65   A    
C44   C48   A    
C50   C81   S    
C64   H11   S    
C39   C48   A    
C7    O13   A    
