data_mof_unit_pretest_1031.cif
_audit_creation_date              2012-12-10T16:55:02-0500
_audit_creation_method            fapswitch 2.2
_symmetry_space_group_name_H-M    P1
_symmetry_Int_Tables_number       1
_space_group_crystal_system       triclinic
_cell_length_a                    7.772884
_cell_length_b                    8.574763
_cell_length_c                    15.717854
_cell_angle_alpha                 90.864153
_cell_angle_beta                  85.830555
_cell_angle_gamma                 93.625344
_cell_volume                      1042.68369211

loop_
_atom_site_label
_atom_site_type_symbol
_atom_type_description
_atom_site_fract_x
_atom_site_fract_y
_atom_site_fract_z
_atom_type_partial_charge
C1    C     C_R   0.545762 0.794722 0.497844 0.966015
C2    C     C_2   0.430151 0.041802 0.503511 -0.371109
C3    C     C_R   0.502017 0.500222 0.661595 0.911908
C4    C     C_R   0.454241 0.205278 0.502213 0.960756
C5    C     C_R   0.498003 0.499868 0.338396 0.901472
C6    C     C_3   0.321712 0.540030 0.956147 -0.375411
C7    C     C_3   0.640873 0.629892 0.948684 0.024671
C8    C     C_3   0.634806 0.629112 0.047278 -0.412339
C9    C     C_1   0.494136 0.500881 0.249621 -0.176214
C10   C     C_3   0.504613 0.505356 0.917269 0.276956
C11   C     C_3   0.318414 0.541005 0.054401 -0.394647
C12   C     C_3   0.497630 0.503217 0.082716 0.311230
C13   C     C_3   0.544187 0.341322 0.046227 -0.391916
C14   C     C_3   0.548366 0.342533 0.947971 -0.423267
C15   C     C_1   0.494138 0.501871 0.174259 -0.106624
C16   C     C_1   0.507113 0.503468 0.825697 -0.064444
C17   C     C_1   0.506381 0.501645 0.750347 -0.135438
C18   C     C_2   0.569859 0.958200 0.496639 -0.369836
H1    H     H_    0.283482 0.657753 0.079611 0.182710
H2    H     H_    0.453667 0.250616 0.925789 0.209125
H3    H     H_    0.678773 0.313452 0.920602 0.189465
H4    H     H_    0.447363 0.249043 0.071385 0.186449
H5    H     H_    0.224674 0.449299 0.934919 0.170081
H6    H     H_    0.771930 0.599307 0.923011 0.135820
H7    H     H_    0.764498 0.604745 0.067836 0.156281
H8    H     H_    0.217265 0.453268 0.080482 0.170448
H9    H     H_    0.672658 0.311944 0.066264 0.178145
H10   H     H_    0.701822 0.009221 0.490081 0.181082
H11   H     H_    0.298187 0.990781 0.510074 0.182024
H12   H     H_    0.013407 0.381892 0.436549 0.191801
H13   H     H_    0.986592 0.618103 0.563455 0.198171
H14   H     H_    0.283215 0.654424 0.933909 0.206168
H15   H     H_    0.603534 0.745651 0.073983 0.199280
I1    I     I_    0.611722 0.862897 0.903057 -0.479787
N1    N     N_2   0.950340 0.457950 0.477370 -0.173120
N2    N     N_2   0.049660 0.542050 0.522630 -0.170925
O1    O     O_R   0.389240 0.738570 0.505550 -0.612434
O2    O     O_R   0.678400 0.711630 0.491050 -0.630162
O3    O     O_R   0.355360 0.513470 0.630110 -0.609220
O4    O     O_R   0.644510 0.486530 0.615610 -0.618695
O5    O     O_R   0.321600 0.288370 0.508950 -0.630131
O6    O     O_R   0.610760 0.261430 0.494450 -0.613076
O7    O     O_R   0.355490 0.513470 0.384390 -0.623514
O8    O     O_R   0.644640 0.486530 0.369890 -0.613953
Zn1   Zn    Zn3+2 0.306930 0.517990 0.509680 0.954144
Zn2   Zn    Zn3+2 0.693070 0.482010 0.490320 0.952059

loop_
_geom_bond_atom_site_label_1
_geom_bond_atom_site_label_2
_ccdc_geom_bond_type
C6    C10   S    
C7    C10   S    
C6    H14   S    
C11   C12   S    
C5    C9    S    
O3    Zn1   S    
C2    C18   D    
C2    C4    S    
N1    N2    D    
C12   C15   S    
C1    O1    A    
C8    C12   S    
C5    O7    A    
C3    O3    A    
N2    Zn1   S    
C10   C16   S    
C13   C14   S    
O4    Zn2   S    
C8    H7    S    
O7    Zn1   S    
C11   H1    S    
C1    C18   S    
C4    O6    A    
C1    O2    A    
C2    H11   S    
C6    H5    S    
H12   N1    S    
C14   H3    S    
C5    O8    A    
O8    Zn2   S    
C13   H4    S    
C3    C17   S    
C8    H15   S    
C10   C14   S    
C7    I1    S    
O2    Zn2   S    
C4    O5    A    
O1    Zn1   S    
C7    H6    S    
C14   H2    S    
C7    C8    S    
C18   H10   S    
C12   C13   S    
O6    Zn2   S    
C6    C11   S    
O5    Zn1   S    
H13   N2    S    
C13   H9    S    
C11   H8    S    
C3    O4    A    
C9    C15   T    
N1    Zn2   S    
C16   C17   T    
