data_mof_unit_pretest_64.cif
_audit_creation_date              2013-03-05T15:52:08-0500
_audit_creation_method            fapswitch 2.2
_symmetry_space_group_name_H-M    P1
_symmetry_Int_Tables_number       1
_space_group_crystal_system       triclinic
_cell_length_a                    6.959395
_cell_length_b                    19.596872
_cell_length_c                    23.433467
_cell_angle_alpha                 96.208229
_cell_angle_beta                  91.093382
_cell_angle_gamma                 88.758498
_cell_volume                      3175.97288272

loop_
_atom_site_label
_atom_site_type_symbol
_atom_site_description
_atom_site_fract_x
_atom_site_fract_y
_atom_site_fract_z
_atom_type_partial_charge
O1    O     O_R   0.617180 0.809390 0.808140 -0.573847
O2    O     O_R   0.382820 0.190610 0.191860 -0.573821
O3    O     O_R   0.293300 0.672410 0.795490 -0.576189
O4    O     O_R   0.706700 0.327590 0.204510 -0.576261
O5    O     O_R   0.117220 0.690610 0.691850 -0.578487
O6    O     O_R   0.882780 0.309390 0.308150 -0.578484
C1    C     C_R   0.464674 0.648214 0.805534 1.085215
C2    C     C_R   0.535332 0.351792 0.194471 1.085042
O7    O     O_R   0.287840 0.807750 0.814460 -0.560163
O8    O     O_R   0.712160 0.192250 0.185540 -0.560211
O9    O     O_R   0.111720 0.826910 0.710960 -0.592463
O10   O     O_R   0.888280 0.173090 0.289040 -0.592463
C3    C     C_R   0.456499 0.830823 0.833127 1.009969
C4    C     C_R   0.543501 0.169176 0.166873 1.010004
O11   O     O_R   0.622680 0.673080 0.789040 -0.582378
O12   O     O_R   0.377320 0.326920 0.210960 -0.582297
O13   O     O_3   0.448820 0.756130 0.716020 -0.284459
O14   O     O_3   0.551180 0.243870 0.283980 -0.284458
V1    V     V_3+5 0.176220 0.748860 0.756300 1.213613
V2    V     V_3+5 0.823780 0.251140 0.243700 1.213595
O15   O     O_R   0.781670 0.827580 0.704500 -0.593474
O16   O     O_R   0.218330 0.172420 0.295500 -0.593480
C5    C     C_R   0.948137 0.851619 0.693871 0.965621
C6    C     C_R   0.051863 0.148381 0.306129 0.965617
O17   O     O_R   0.787130 0.692240 0.685530 -0.579349
O18   O     O_R   0.212870 0.307760 0.314470 -0.579353
C7    C     C_R   0.956109 0.669235 0.666800 0.949085
C8    C     C_R   0.043890 0.330765 0.333200 0.949085
V3    V     V_3+5 0.675510 0.751130 0.743690 1.189721
V4    V     V_3+5 0.324490 0.248870 0.256310 1.189756
O19   O     O_3   0.952780 0.743870 0.783980 -0.242825
O20   O     O_3   0.047220 0.256130 0.216020 -0.242816
C9    C     C_1   0.966659 0.617176 0.614744 -0.307991
C10   C     C_1   0.033341 0.382824 0.385256 -0.307996
C11   C     C_1   0.978221 0.573662 0.571926 0.077776
C12   C     C_1   0.021779 0.426338 0.428074 0.077771
C13   C     C_1   0.993431 0.521860 0.521318 0.014455
C14   C     C_1   0.006569 0.478140 0.478682 0.014453
C15   C     C_R   0.947699 0.913798 0.663268 -0.190877
C16   C     C_R   0.052301 0.086202 0.336732 -0.190874
C17   C     C_R   0.874355 0.035205 0.664389 0.803753
C18   C     C_R   0.125646 0.964795 0.335611 0.803749
C19   C     C_R   0.889002 0.976279 0.692559 -0.313678
C20   C     C_R   0.110999 0.023720 0.307441 -0.313681
C21   C     C_R   0.991299 0.910457 0.604566 -0.234431
C22   C     C_R   0.008701 0.089543 0.395434 -0.234431
C23   C     C_R   0.974278 0.969773 0.574131 0.053823
C24   C     C_R   0.025723 0.030227 0.425869 0.053822
C25   C     C_R   0.915125 0.032532 0.605572 -0.083448
C26   C     C_R   0.084876 0.967467 0.394427 -0.083442
C27   C     C_R   0.011298 0.969048 0.513780 0.115130
C28   C     C_R   0.988702 0.030952 0.486220 0.115128
C29   C     C_R   0.930451 0.091528 0.519970 -0.228907
C30   C     C_R   0.069549 0.908472 0.480030 -0.228908
C31   C     C_R   0.895011 0.092137 0.578110 -0.107043
C32   C     C_R   0.104990 0.907863 0.421890 -0.107049
H1    H     H_    0.850065 0.140257 0.601739 0.200715
H2    H     H_    0.149935 0.859743 0.398260 0.200710
H3    H     H_    0.966642 0.139271 0.416040 0.117566
H4    H     H_    0.033357 0.860728 0.583959 0.117565
H5    H     H_    0.146807 0.020690 0.262419 0.163624
H6    H     H_    0.853193 0.979310 0.737581 0.163628
H7    H     H_    0.910107 0.139936 0.502725 0.137900
H8    H     H_    0.089893 0.860064 0.497275 0.137898
C33   C     C_R   0.483699 0.587371 0.837154 -0.387495
C34   C     C_R   0.516359 0.412623 0.162833 -0.387451
C35   C     C_R   0.547092 0.465126 0.832569 0.972220
C36   C     C_R   0.453395 0.534886 0.167389 0.972225
C37   C     C_R   0.541022 0.525513 0.806472 -0.402154
C38   C     C_R   0.459188 0.474506 0.193499 -0.402148
C39   C     C_R   0.446386 0.589879 0.896574 0.427690
C40   C     C_R   0.553812 0.410079 0.103423 0.427769
C41   C     C_R   0.489281 0.530658 0.925849 -0.067042
C42   C     C_R   0.511243 0.469303 0.074126 -0.067053
C43   C     C_R   0.515747 0.466764 0.891825 -0.464680
C44   C     C_R   0.484882 0.533216 0.108137 -0.464725
C45   C     C_R   0.501548 0.531565 0.987236 -0.235676
C46   C     C_R   0.499146 0.468386 0.012735 -0.235808
C47   C     C_R   0.474136 0.407119 0.975945 0.704265
C48   C     C_R   0.526660 0.592833 0.024010 0.704434
C49   C     C_R   0.499489 0.405622 0.917137 0.732727
C50   C     C_R   0.501355 0.594347 0.082818 0.732805
H9    H     H_    0.430387 0.476739 0.238970 0.172193
H10   H     H_    0.569764 0.523307 0.761001 0.172187
C51   C     C_1   0.467231 0.882851 0.885206 -0.240291
C52   C     C_1   0.532769 0.117149 0.114794 -0.240230
C53   C     C_1   0.478661 0.926343 0.928047 0.119348
C54   C     C_1   0.521339 0.073656 0.071953 0.119363
C55   C     C_1   0.493572 0.978140 0.978675 0.054293
C56   C     C_1   0.506428 0.021860 0.021325 0.054294
F1    F     F_    0.411791 0.349032 0.995610 -0.598698
F2    F     F_    0.588875 0.650921 0.004309 -0.598831
F3    F     F_    0.816991 0.094961 0.694697 -0.658807
F4    F     F_    0.183010 0.905039 0.305303 -0.658818
F5    F     F_    0.493021 0.344026 0.884494 -0.548265
F6    F     F_    0.507926 0.655945 0.115454 -0.548276
N1    N     N_R   0.661628 0.352567 0.075988 0.261837
O21   O     O_R   0.614859 0.289887 0.082192 -0.359883
O22   O     O_R   0.811416 0.362950 0.045880 -0.343459
N2    N     N_R   0.338381 0.647324 0.924056 0.261914
O23   O     O_R   0.189171 0.636833 0.954365 -0.343495
O24   O     O_R   0.384430 0.710041 0.917733 -0.360088
F7    F     F_    0.586335 0.405273 0.799648 -0.605993
F8    F     F_    0.414281 0.594762 0.200298 -0.605953

loop_
_geom_bond_atom_site_label_1
_geom_bond_atom_site_label_2
_geom_bond_distance
_ccdc_geom_bond_type
C21   H4    1.076938 S    
C2    C34   1.472681 S    
O6    C8    1.311207 A    
C22   H3    1.076939 S    
O13   V3    1.699098 S    
O4    C2    1.300586 A    
V1    O19   1.705036 S    
N1    O21   1.301396 A    
C35   F7    1.357927 S    
C23   C25   1.420778 A    
C45   C46   1.432339 A    
C7    C9    1.505062 S    
C16   C22   1.408629 A    
C34   C40   1.416637 A    
O9    V1    1.993325 S    
C42   C44   1.420329 A    
C11   C13   1.479161 S    
O3    C1    1.300612 A    
C49   F5    1.358517 S    
C52   C54   1.247177 T    
O12   V4    1.998711 S    
C21   C23   1.429679 A    
O7    C3    1.316872 A    
C6    C16   1.479115 S    
O5    C7    1.311206 A    
O7    V1    1.857691 S    
C17   F3    1.358599 S    
O8    V2    1.857690 S    
O3    V1    1.991973 S    
O14   V4    1.699098 S    
C47   F1    1.356055 S    
C15   C21   1.408629 A    
C24   C26   1.420777 A    
C8    C10   1.505062 S    
C2    O12   1.294727 A    
C17   C19   1.391688 A    
C18   C20   1.391689 A    
C17   C25   1.407678 A    
N1    O22   1.301602 A    
O11   V3    1.998709 S    
C30   C32   1.387915 A    
C40   N1    1.439308 S    
C29   C31   1.387917 A    
O17   V3    1.858527 S    
C22   C24   1.429679 A    
C50   F6    1.358499 S    
C51   C53   1.247178 T    
C27   C28   1.439011 A    
C4    C52   1.505059 S    
C40   C42   1.433807 A    
O8    C4    1.316872 A    
C44   C50   1.400927 A    
C47   C49   1.389744 A    
C46   C47   1.412269 A    
C43   C49   1.400895 A    
C15   C19   1.394460 A    
C1    O11   1.294677 A    
C25   C31   1.396491 A    
O15   V3    2.001300 S    
C26   C32   1.396489 A    
C35   C37   1.389091 A    
C48   F2    1.356129 S    
C13   C14   1.247215 T    
C1    C33   1.472668 S    
C16   C20   1.394459 A    
O10   V2    1.993326 S    
O1    V3    1.838378 S    
C36   C44   1.406559 A    
C38   H9    1.084047 S    
C18   C26   1.407678 A    
C48   C50   1.389668 A    
C54   C56   1.479194 S    
O18   V4    1.858528 S    
C31   H1    1.083776 S    
O16   C6    1.298520 A    
O1    C3    1.311934 A    
C41   C43   1.420254 A    
C12   C14   1.479161 S    
C28   C29   1.409744 A    
C39   C41   1.433846 A    
N2    O24   1.301340 A    
V2    O20   1.705036 S    
C45   C48   1.412204 A    
O16   V4    2.001302 S    
C18   F4    1.358600 S    
C36   F8    1.357982 S    
C23   C27   1.440845 A    
O5    V1    1.837495 S    
C20   H5    1.083764 S    
O17   C7    1.316352 A    
O6    V2    1.837493 S    
C39   N2    1.439461 S    
O10   C6    1.300586 A    
O18   C8    1.316352 A    
O2    V4    1.838377 S    
C27   C30   1.409745 A    
O15   C5    1.298521 A    
V3    O19   2.140732 S    
C37   H10   1.083993 S    
C33   C39   1.416718 A    
V4    O20   2.140733 S    
C29   H7    1.076198 S    
C9    C11   1.247187 T    
C34   C38   1.395327 A    
C30   H8    1.076198 S    
C33   C37   1.395366 A    
O9    C5    1.300586 A    
N2    O23   1.301533 A    
O13   V1    2.149299 S    
C10   C12   1.247187 T    
C32   H2    1.083779 S    
O14   V2    2.149298 S    
O2    C4    1.311934 A    
O4    V2    1.991973 S    
C24   C28   1.440845 A    
C35   C43   1.406526 A    
C36   C38   1.389107 A    
C42   C46   1.437635 A    
C3    C51   1.505056 S    
C53   C55   1.479193 S    
C41   C45   1.437618 A    
C55   C56   1.247245 T    
C5    C15   1.479115 S    
C19   H6    1.083764 S    
