data_mof_unit_pretest_841.cif
_audit_creation_date              2013-03-05T15:47:24-0500
_audit_creation_method            fapswitch 2.2
_symmetry_space_group_name_H-M    P1
_symmetry_Int_Tables_number       1
_space_group_crystal_system       triclinic
_cell_length_a                    8.499573
_cell_length_b                    19.114416
_cell_length_c                    19.24176
_cell_angle_alpha                 96.708123
_cell_angle_beta                  94.623621
_cell_angle_gamma                 93.869701
_cell_volume                      3085.24355414

loop_
_atom_site_label
_atom_site_type_symbol
_atom_site_description
_atom_site_fract_x
_atom_site_fract_y
_atom_site_fract_z
_atom_type_partial_charge
P1    P     P_3+3 0.954930 0.659850 0.559700 0.454689
O1    O     O_2   0.126770 0.670950 0.539180 -0.340484
O2    O     O_3   0.874330 0.583580 0.538020 -0.387455
O3    O     O_3   0.360240 0.629040 0.412110 -0.379861
O4    O     O_2   0.240862 0.750340 0.457086 -0.387130
O5    O     O_3   0.994799 0.674200 0.650842 -0.598906
O6    O     O_3   0.380907 0.751889 0.344317 -0.529055
H1    H     H_    0.403581 0.662519 0.275938 0.106959
C1    C     C_3   0.525524 0.754637 0.244351 -1.084698
H2    H     H_    0.420621 0.766814 0.210968 0.276019
H3    H     H_    0.590477 0.804943 0.268973 0.269119
P2    P     P_3+3 0.352180 0.446150 0.339620 0.467264
P3    P     P_3+3 0.906978 0.588366 0.284039 0.441025
O7    O     O_2   0.179370 0.467330 0.329490 -0.360816
O8    O     O_3   0.943350 0.594040 0.376060 -0.384296
O9    O     O_2   0.006138 0.529746 0.253214 -0.366671
O10   O     O_3   0.350178 0.354456 0.318787 -0.595751
O11   O     O_3   0.990787 0.663669 0.253216 -0.542238
C2    C     C_3   0.959904 0.723512 0.298154 0.329041
H4    H     H_    0.016925 0.721206 0.351813 0.132810
H5    H     H_    0.830876 0.726479 0.301020 0.030530
C3    C     C_3   0.028570 0.790512 0.270795 0.136713
H6    H     H_    0.157088 0.786462 0.266700 0.217167
C4    C     C_3   0.777129 0.369700 0.308087 0.262060
H7    H     H_    0.673364 0.392744 0.330121 0.090760
H8    H     H_    0.876182 0.411442 0.312650 0.088831
C5    C     C_3   0.732302 0.338921 0.227894 0.276106
Ba1   Ba    Ba6+2 0.154050 0.534420 0.467300 1.522028
C6    C     C_3   0.855507 0.691692 0.680042 0.292550
H9    H     H_    0.767523 0.646681 0.665122 0.148047
H10   H     H_    0.810909 0.739653 0.660209 0.012261
C7    C     C_3   0.883095 0.705722 0.760541 0.141501
H11   H     H_    0.766081 0.708640 0.782066 0.166431
C8    C     C_3   0.263238 0.315025 0.361231 0.484802
H12   H     H_    0.213534 0.347912 0.404196 0.026283
C9    C     C_3   0.130921 0.272350 0.313802 -0.396986
H13   H     H_    0.061020 0.312752 0.293496 0.235698
H14   H     H_    0.057945 0.239005 0.344267 0.183711
P4    P     P_3+3 0.855360 0.340140 0.440240 0.469527
O12   O     O_2   0.683530 0.329010 0.460790 -0.327351
O13   O     O_3   0.935970 0.416420 0.461920 -0.410226
O14   O     O_3   0.450050 0.370950 0.587830 -0.389383
O15   O     O_3   0.822728 0.316106 0.347810 -0.606440
P5    P     P_3+3 0.897223 0.410832 0.716868 0.425586
O16   O     O_3   0.375780 0.535040 0.584090 -0.386108
O17   O     O_3   0.866950 0.405950 0.623880 -0.384564
O18   O     O_2   0.768911 0.456317 0.746362 -0.395254
O19   O     O_3   0.843746 0.328792 0.744239 -0.553110
Ba2   Ba    Ba6+2 0.656120 0.465570 0.532650 1.519268
P6    P     P_3+3 0.390871 0.722350 0.426745 0.444139
C10   C     C_3   0.474375 0.711295 0.300954 0.477053
H15   H     H_    0.583171 0.696331 0.329856 0.017926
H16   H     H_    0.605052 0.724553 0.211379 0.237624
O20   O     O_3   0.434510 0.464950 0.415850 -0.383466
C11   C     C_3   0.404551 0.697144 0.684376 0.609881
H17   H     H_    0.282505 0.674722 0.685712 0.102435
C12   C     C_3   0.432167 0.763042 0.739469 -0.378347
H18   H     H_    0.553364 0.788437 0.737951 0.197357
H19   H     H_    0.346680 0.802258 0.727033 0.174260
P7    P     P_3+3 0.459689 0.560467 0.673231 0.423572
O21   O     O_2   0.630930 0.532620 0.670490 -0.337753
O22   O     O_3   0.517119 0.650173 0.700373 -0.611110
C13   C     C_3   0.953092 0.278671 0.727042 0.392251
H20   H     H_    0.074133 0.303327 0.723358 -0.015012
C14   C     C_3   0.959024 0.226661 0.782984 -0.363265
H21   H     H_    0.846491 0.192526 0.777474 0.147217
P8    P     P_3+3 0.422607 0.278045 0.582615 0.467758
C15   C     C_3   0.451510 0.318340 0.714906 0.496968
H22   H     H_    0.352236 0.351156 0.702769 -0.044350
O23   O     O_2   0.563295 0.246883 0.546884 -0.359043
O24   O     O_3   0.443437 0.255687 0.668180 -0.543994
H23   H     H_    0.564528 0.349644 0.712444 0.173189
H24   H     H_    0.313463 0.282867 0.794074 0.201064
C16   C     C_3   0.437083 0.302299 0.789520 -0.440221
H25   H     H_    0.463644 0.352756 0.824574 0.179711
N1    N     N_R   0.893681 0.029968 0.432468 -0.078843
N2    N     N_R   0.840363 0.962876 0.434611 -0.079372
C17   C     C_2   0.710846 0.711601 0.482961 -0.448352
C18   C     C_3   0.579659 0.760925 0.482942 0.142014
C19   C     C_2   0.644434 0.835546 0.474353 0.127588
C20   C     C_2   0.800417 0.855710 0.497007 -0.042207
C21   C     C_2   0.899785 0.801419 0.529174 0.119405
C22   C     C_1   0.848530 0.731901 0.520317 0.230731
N3    N     N_R   0.957686 0.968329 0.548890 -0.079568
N4    N     N_R   0.011405 0.035321 0.546713 -0.078414
C23   C     C_R   0.979329 0.068205 0.488725 0.173039
C24   C     C_R   0.869981 0.930366 0.493102 0.174193
C25   C     C_R   0.932244 0.195226 0.461377 0.089523
C26   C     C_R   0.971550 0.269885 0.479650 0.248454
C27   C     C_R   0.224366 0.243251 0.538344 0.267734
C28   C     C_R   0.179843 0.170816 0.525176 -0.366454
C29   C     C_R   0.031484 0.145508 0.489655 0.026305
C30   C     C_R   0.114363 0.291462 0.521869 -0.212054
H26   H     H_    0.260308 0.134037 0.543705 0.175214
C31   C     C_R   0.611924 0.523069 0.295777 -0.498691
C32   C     C_R   0.457784 0.494804 0.275876 0.263750
C33   C     C_R   0.395941 0.496232 0.205478 -0.144618
C34   C     C_R   0.484513 0.532390 0.158795 0.051290
C35   C     C_R   0.633662 0.567225 0.184256 -0.284163
C36   C     C_R   0.698307 0.561105 0.252586 0.235049
C37   C     C_R   0.389454 0.580731 0.044598 0.256297
C38   C     C_R   0.338594 0.567813 0.971008 0.266116
C39   C     C_R   0.333438 0.497943 0.934258 0.012912
C40   C     C_R   0.368273 0.442284 0.974216 0.007539
C41   C     C_R   0.422905 0.456166 0.045174 -0.280302
C42   C     C_R   0.434162 0.524154 0.081298 0.053946
C43   C     C_R   0.147183 0.450689 0.826527 -0.322354
C44   C     C_R   0.092149 0.454304 0.756083 0.237854
C45   C     C_R   0.340715 0.518126 0.737580 0.180397
C46   C     C_R   0.396438 0.514420 0.808619 -0.153522
C47   C     C_R   0.294841 0.484831 0.855093 0.025655
C48   C     C_R   0.181142 0.495498 0.715398 -0.166358
H27   H     H_    0.453084 0.412493 0.073814 0.152800
H28   H     H_    0.070831 0.425316 0.860062 0.170289
H29   H     H_    0.705552 0.592720 0.149085 0.157556
H30   H     H_    0.672037 0.509672 0.342913 0.153730
C49   C     C_3   0.556972 0.312597 0.214647 -0.891743
H31   H     H_    0.526545 0.275714 0.252879 0.283259
H32   H     H_    0.482330 0.357650 0.217424 0.236811
H33   H     H_    0.527564 0.284176 0.160873 0.231341
C50   C     C_1   0.761165 0.394011 0.181894 0.072509
N5    N     N_1   0.784948 0.435483 0.144023 -0.057935
C51   C     C_3   0.826794 0.276694 0.200896 -0.866525
H34   H     H_    0.947868 0.295324 0.190396 0.231501
H35   H     H_    0.828409 0.235845 0.237408 0.271793
H36   H     H_    0.773460 0.250015 0.149070 0.234555
C52   C     C_3   0.964450 0.645588 0.791185 -0.855623
H37   H     H_    0.084776 0.641500 0.773528 0.247868
H38   H     H_    0.973434 0.654729 0.849476 0.241008
H39   H     H_    0.894554 0.594581 0.773874 0.255088
C53   C     C_3   0.977138 0.776984 0.783638 -0.930889
H40   H     H_    0.089676 0.779453 0.758495 0.272546
H41   H     H_    0.907184 0.820561 0.767981 0.224488
H42   H     H_    0.003303 0.785366 0.841649 0.257486
C54   C     C_1   0.363081 0.264453 0.390514 0.066028
N6    N     N_1   0.437304 0.221606 0.411162 -0.059557
C55   C     C_3   0.186244 0.225192 0.251411 -0.886622
H43   H     H_    0.276160 0.189980 0.268867 0.254691
H44   H     H_    0.084453 0.190798 0.223861 0.251459
H45   H     H_    0.235511 0.258112 0.213292 0.276878
C56   C     C_3   0.432343 0.719445 0.612937 -0.915043
H46   H     H_    0.554303 0.744224 0.614534 0.182582
H47   H     H_    0.419234 0.672690 0.572441 0.279097
H48   H     H_    0.349763 0.758837 0.598619 0.235434
C57   C     C_3   0.415242 0.745508 0.814003 -0.933104
H49   H     H_    0.435990 0.794649 0.851509 0.261838
H50   H     H_    0.294691 0.721776 0.818367 0.265472
H51   H     H_    0.503009 0.708175 0.828819 0.275366
C58   C     C_3   0.952812 0.798601 0.197340 -0.895043
H52   H     H_    0.825086 0.806593 0.198604 0.256067
H53   H     H_    0.011776 0.844968 0.177413 0.246486
H54   H     H_    0.966824 0.751099 0.159886 0.258888
C59   C     C_1   0.894187 0.237715 0.659776 0.114648
N7    N     N_1   0.844828 0.203747 0.608106 -0.046462
C60   C     C_1   0.087597 0.179451 0.774405 0.065827
N8    N     N_1   0.188233 0.142036 0.767441 -0.059726
C61   C     C_1   0.974875 0.263929 0.854683 0.155027
N9    N     N_1   0.982681 0.293071 0.911192 -0.087766
C62   C     C_3   0.548354 0.248531 0.812954 -0.748476
H55   H     H_    0.668358 0.274764 0.825388 0.266458
H56   H     H_    0.510872 0.228890 0.861517 0.234047
H57   H     H_    0.549229 0.202281 0.772392 0.271237
C63   C     C_3   0.529609 0.887634 0.452035 -0.856296
H58   H     H_    0.563539 0.942067 0.477986 0.227531
H59   H     H_    0.523086 0.887065 0.394137 0.258723
H60   H     H_    0.409845 0.873760 0.467717 0.253947
C64   C     C_3   0.039451 0.829543 0.581023 -0.896599
H61   H     H_    0.096539 0.788947 0.607916 0.262454
H62   H     H_    0.130706 0.857118 0.553678 0.252200
H63   H     H_    0.998805 0.866724 0.623350 0.227809
C65   C     C_3   0.786318 0.167546 0.413785 -0.855586
H64   H     H_    0.721530 0.209113 0.392508 0.281287
H65   H     H_    0.820735 0.133730 0.367453 0.224685
H66   H     H_    0.703844 0.136766 0.442769 0.251108
C66   C     C_1   0.667980 0.639024 0.459609 0.249610
N10   N     N_1   0.632117 0.580030 0.443666 0.002937
C67   C     C_3   0.150638 0.365969 0.553063 -0.709054
H67   H     H_    0.188827 0.369612 0.609736 0.186337
H68   H     H_    0.227509 0.395841 0.521050 0.259228
H69   H     H_    0.048237 0.391798 0.556666 0.265599
C68   C     C_1   0.550576 0.546651 0.836168 0.196476
N11   N     N_1   0.673301 0.572600 0.859387 -0.088824
C69   C     C_3   0.284934 0.628467 0.933340 -1.022891
H70   H     H_    0.182350 0.650640 0.957864 0.257439
H71   H     H_    0.383757 0.670040 0.936565 0.262020
H72   H     H_    0.245033 0.613200 0.877314 0.257273
C70   C     C_3   0.396032 0.653711 0.085244 -0.994575
H73   H     H_    0.340525 0.693652 0.056310 0.263726
H74   H     H_    0.333616 0.651386 0.133545 0.264559
H75   H     H_    0.521618 0.672960 0.099480 0.247312
C71   C     C_1   0.251245 0.454236 0.178995 0.189086
N12   N     N_1   0.136894 0.419773 0.157235 -0.076334
C72   C     C_1   0.341061 0.368820 0.947538 0.068727
N13   N     N_1   0.319538 0.308841 0.929832 -0.091163
C73   C     C_3   0.095935 0.526370 0.655668 -0.628495
H76   H     H_    0.150812 0.578133 0.649937 0.222727
H77   H     H_    0.100700 0.494590 0.605171 0.241717
H78   H     H_    0.971570 0.535328 0.664941 0.251114
C74   C     C_3   0.007897 0.855893 0.322345 -0.968581
H79   H     H_    0.068138 0.851112 0.374834 0.260035
H80   H     H_    0.060972 0.904138 0.303492 0.271091
H81   H     H_    0.880158 0.861794 0.327719 0.258421

loop_
_geom_bond_atom_site_label_1
_geom_bond_atom_site_label_2
_geom_bond_distance
_ccdc_geom_bond_type
P5    O19   1.754525 S    
C65   H64   1.095833 S    
C13   C14   1.548409 S    
O16   P7    1.802254 S    
C61   N9    1.157088 T    
C11   C56   1.517473 S    
C12   C57   1.526071 S    
H24   C16   1.104281 S    
C41   C42   1.393764 A    
C31   C32   1.389313 A    
C1    C10   1.516606 S    
N3    C24   1.360348 A    
C11   H17   1.098768 S    
C53   H42   1.111081 S    
P6    C18   1.913648 S    
C20   C21   1.535371 S    
C5    C50   1.473211 S    
C51   H34   1.107923 S    
C64   H62   1.109817 S    
N4    C23   1.361001 A    
C48   C73   1.508501 S    
C55   H44   1.108891 S    
O17   Ba2   2.797715 S    
C37   C38   1.434617 A    
Ba2   O20   2.811996 S    
P3    O11   1.749311 S    
P2    Ba1   3.435199 S    
C38   C69   1.513902 S    
C7    C52   1.531951 S    
P7    O22   1.757217 S    
C9    H13   1.094091 S    
C63   H59   1.109709 S    
C4    H8    1.110936 S    
C8    H12   1.108089 S    
C6    C7    1.536892 S    
C49   H32   1.102464 S    
C35   H29   1.082756 S    
Ba1   O20   2.987708 S    
C12   H19   1.111082 S    
C15   C16   1.515404 S    
O12   Ba2   2.840857 S    
C11   O22   1.396181 S    
Ba1   O13   2.807844 S    
C39   C47   1.519839 S    
P1    O1    1.550770 D    
C46   C47   1.428983 A    
C70   H75   1.107305 S    
P7    C45   1.880490 S    
O3    Ba1   2.791253 S    
C56   H46   1.106801 S    
C17   C22   1.332164 D    
C2    H4    1.111622 S    
C46   C68   1.442128 S    
C15   H22   1.110785 S    
C67   H68   1.108639 S    
P2    O10   1.750310 S    
P1    Ba1   3.436634 S    
C40   C72   1.434380 S    
C62   H56   1.108779 S    
C9    C55   1.539550 S    
C8    C9    1.516530 S    
C72   N13   1.155122 T    
P5    O18   1.542676 D    
C73   H78   1.107348 S    
C67   H69   1.032391 S    
C5    C49   1.531836 S    
C3    C58   1.534277 S    
C74   H79   1.111350 S    
C64   H61   1.099770 S    
C25   C65   1.507324 S    
O13   Ba2   2.986206 S    
C40   C41   1.395263 A    
C57   H50   1.105769 S    
P5    O17   1.777600 S    
C33   C34   1.426579 A    
C64   H63   1.109521 S    
C12   H18   1.112789 S    
C21   C64   1.513660 S    
P5    C44   1.863040 S    
O2    Ba2   2.808676 S    
C65   H66   1.110221 S    
Ba1   O16   2.812468 S    
C60   N8    1.157461 T    
Ba2   O21   2.838564 S    
C16   H25   1.109120 S    
C10   H15   1.111820 S    
C25   C29   1.437247 A    
C3    C74   1.531244 S    
C54   N6    1.154107 T    
C63   H60   1.108767 S    
C4    H7    1.104855 S    
C13   C59   1.464479 S    
C14   C61   1.468483 S    
C49   H33   1.112159 S    
C28   C29   1.411636 A    
C5    C51   1.543216 S    
C31   C36   1.387742 A    
O11   C2    1.403945 S    
O19   C13   1.409540 S    
P4    O15   1.778622 S    
C73   H76   1.086348 S    
C53   H41   1.111151 S    
C68   N11   1.156273 T    
P8    C27   1.868703 S    
C71   N12   1.156477 T    
O3    P6    1.770974 S    
P7    O21   1.585841 D    
P1    O2    1.563882 S    
C56   H47   1.108225 S    
C69   H70   1.109963 S    
C52   H38   1.110406 S    
C43   H28   1.082082 S    
C6    H9    1.096686 S    
C74   H81   1.110906 S    
C69   H71   1.109412 S    
C65   H65   1.109550 S    
Ba1   Ba2   4.660189 S    
C62   H55   1.101199 S    
O16   Ba2   2.986769 S    
C31   H30   1.070709 S    
C15   H23   1.104274 S    
C4    C5    1.592226 S    
C32   C33   1.416934 A    
C2    C3    1.537544 S    
C62   H57   1.109676 S    
C11   C12   1.540618 S    
N1    N2    1.337390 A    
C1    H3    1.110669 S    
H1    C10   1.111639 S    
C50   N5    1.156436 T    
C20   C24   1.519851 S    
C67   H67   1.105232 S    
C58   H54   1.110640 S    
P4    Ba2   3.437320 S    
P2    O7    1.553009 D    
C21   C22   1.357033 D    
P3    O8    1.762074 S    
O14   P8    1.765428 S    
O4    P6    1.546552 D    
C45   C48   1.411790 A    
C1    H16   1.107458 S    
C16   C62   1.524712 S    
C43   C44   1.408852 A    
O8    Ba1   2.797154 S    
C53   H40   1.106827 S    
N1    C23   1.360955 A    
C57   H49   1.110403 S    
P4    O12   1.550949 D    
C57   H51   1.109987 S    
C18   C19   1.525967 S    
C27   C30   1.400235 A    
C1    H2    1.110136 S    
C41   H27   1.086250 S    
C37   C42   1.415339 A    
O2    Ba1   2.985228 S    
C30   C67   1.481465 S    
P1    O5    1.744959 S    
C2    H5    1.107420 S    
C17   C18   1.508002 S    
C43   C47   1.413352 A    
N3    N4    1.336657 A    
O6    P6    1.742288 S    
C19   C20   1.376554 D    
C51   H36   1.112258 S    
C19   C63   1.513841 S    
C56   H48   1.106398 S    
P1    C22   1.894797 S    
P4    O13   1.564079 S    
C55   H43   1.109404 S    
C34   C42   1.504915 S    
C35   C36   1.404417 A    
C69   H72   1.102968 S    
P8    O23   1.546093 D    
C7    H11   1.110104 S    
P3    C36   1.847176 S    
C58   H53   1.110886 S    
C52   H39   1.108391 S    
O6    C10   1.402936 S    
C70   H73   1.104971 S    
C6    H10   1.111335 S    
C66   N10   1.147285 T    
C23   C29   1.511383 S    
C58   H52   1.108273 S    
C28   H26   1.083157 S    
C27   C28   1.398651 A    
C17   C66   1.420901 S    
C8    C54   1.460452 S    
C15   O24   1.405242 S    
C55   H45   1.109526 S    
C9    H14   1.107766 S    
P8    O24   1.747079 S    
C14   H21   1.111329 S    
C26   C30   1.413734 A    
C38   C39   1.432493 A    
C70   H74   1.110475 S    
C63   H58   1.109026 S    
C51   H35   1.109717 S    
O14   Ba2   2.790528 S    
C13   H20   1.113402 S    
C44   C48   1.401462 A    
C33   C71   1.444554 S    
O5    C6    1.394980 S    
C25   C26   1.439184 A    
N2    C24   1.361987 A    
C14   C60   1.470776 S    
C34   C35   1.414269 A    
O10   C8    1.395365 S    
P3    O9    1.539617 D    
C45   C46   1.421462 A    
C39   C40   1.416900 A    
C74   H80   1.110813 S    
C4    O15   1.404493 S    
C3    H6    1.108740 S    
P2    C32   1.872512 S    
O1    Ba1   2.840307 S    
O7    Ba1   2.838519 S    
C59   N7    1.153779 T    
C49   H31   1.110093 S    
P4    C26   1.910455 S    
C7    C53   1.531727 S    
P2    O20   1.564528 S    
C37   C70   1.512720 S    
C52   H37   1.108199 S    
C73   H77   1.089278 S    
