data_mof_unit_pretest_1757.cif
_audit_creation_date              2012-12-10T17:50:13-0500
_audit_creation_method            fapswitch 2.2
_symmetry_space_group_name_H-M    P1
_symmetry_Int_Tables_number       1
_space_group_crystal_system       triclinic
_cell_length_a                    27.788818
_cell_length_b                    36.22489
_cell_length_c                    27.787861
_cell_angle_alpha                 90.000348
_cell_angle_beta                  90.000072
_cell_angle_gamma                 89.993246
_cell_volume                      27972.5632515

loop_
_atom_site_label
_atom_site_type_symbol
_atom_type_description
_atom_site_fract_x
_atom_site_fract_y
_atom_site_fract_z
_atom_type_partial_charge
C1    C     C_R   0.500027 0.650354 0.250004 0.830695
C2    C     C_R   0.000027 0.650354 0.249997 0.830425
C3    C     C_1   0.499975 0.249999 0.431107 -0.132528
C4    C     C_1   0.499977 0.250005 0.931108 -0.133505
C5    C     C_1   0.499977 0.250005 0.068892 -0.133600
C6    C     C_1   0.499975 0.749998 0.068892 -0.132181
C7    C     C_1   0.499975 0.749999 0.931107 -0.132295
C8    C     C_1   0.999977 0.750005 0.931108 -0.133515
C9    C     C_1   0.999977 0.750005 0.068892 -0.133500
C10   C     C_1   0.999974 0.249999 0.068892 -0.132684
C11   C     C_1   0.999975 0.249999 0.931107 -0.132725
C12   C     C_1   0.999977 0.250005 0.431108 -0.133416
C13   C     C_R   0.000016 0.349643 0.249998 0.827692
C14   C     C_1   0.999977 0.250005 0.568892 -0.133438
C15   C     C_1   0.999974 0.749999 0.568892 -0.132547
C16   C     C_1   0.999974 0.749999 0.431107 -0.132622
C17   C     C_1   0.499972 0.750007 0.474550 0.013376
C18   C     C_1   0.499972 0.750007 0.525450 0.013301
C19   C     C_1   0.499970 0.249997 0.525451 0.013523
C20   C     C_1   0.499971 0.249997 0.474549 0.013615
C21   C     C_1   0.499972 0.250008 0.974550 0.013083
C22   C     C_1   0.499972 0.250008 0.025450 0.012986
C23   C     C_1   0.499970 0.749997 0.025451 0.014125
C24   C     C_R   0.000016 0.349643 0.750002 0.827935
C25   C     C_1   0.499970 0.749997 0.974549 0.014004
C26   C     C_1   0.999973 0.750008 0.974550 0.013143
C27   C     C_1   0.999973 0.750008 0.025450 0.013163
C28   C     C_1   0.999970 0.249998 0.025451 0.013487
C29   C     C_1   0.999970 0.249998 0.974549 0.013469
C30   C     C_1   0.999973 0.250008 0.474550 0.013248
C31   C     C_1   0.999972 0.250008 0.525450 0.013228
C32   C     C_1   0.999970 0.749998 0.525451 0.013621
C33   C     C_1   0.999970 0.749998 0.474549 0.013603
C34   C     C_R   0.499985 0.750003 0.120632 0.826014
C35   C     C_R   0.000027 0.150354 0.250003 0.830249
C36   C     C_R   0.499985 0.750003 0.879368 0.825277
C37   C     C_R   0.499986 0.249998 0.879370 0.826425
C38   C     C_R   0.499986 0.249998 0.120630 0.825754
C39   C     C_R   0.499985 0.250003 0.620632 0.825191
C40   C     C_R   0.499985 0.250003 0.379368 0.825578
C41   C     C_R   0.499985 0.749998 0.379370 0.826896
C42   C     C_R   0.499986 0.749998 0.620630 0.826534
C43   C     C_R   0.999985 0.750003 0.620632 0.825166
C44   C     C_R   0.999985 0.750003 0.379368 0.825244
C45   C     C_R   0.999986 0.249998 0.379370 0.826620
C46   C     C_R   0.000027 0.150354 0.749999 0.829680
C47   C     C_R   0.999986 0.249998 0.620630 0.826438
C48   C     C_R   0.999985 0.250003 0.120632 0.825175
C49   C     C_R   0.999985 0.250003 0.879368 0.825122
C50   C     C_R   0.999986 0.749998 0.879370 0.826470
C51   C     C_R   0.999986 0.749998 0.120630 0.826619
C52   C     C_R   0.370626 0.750001 0.250001 0.830173
C53   C     C_R   0.370626 0.750001 0.749999 0.829383
C54   C     C_R   0.370626 0.250001 0.750001 0.829338
C55   C     C_R   0.370626 0.250001 0.249999 0.828580
C56   C     C_R   0.870626 0.750001 0.750001 0.829325
C57   C     C_R   0.000015 0.849643 0.749997 0.826845
C58   C     C_R   0.870626 0.750001 0.249999 0.829357
C59   C     C_R   0.870626 0.250001 0.250001 0.829445
C60   C     C_R   0.870626 0.250001 0.749999 0.829364
C61   C     C_R   0.629367 0.749999 0.250001 0.831199
C62   C     C_R   0.629367 0.749999 0.749999 0.831421
C63   C     C_R   0.629367 0.249999 0.750001 0.831511
C64   C     C_R   0.629367 0.249999 0.249999 0.831941
C65   C     C_R   0.129367 0.749999 0.750001 0.831418
C66   C     C_R   0.129367 0.750000 0.249998 0.831525
C67   C     C_R   0.129367 0.249999 0.250001 0.831399
C68   C     C_R   0.000017 0.849643 0.250002 0.827527
C69   C     C_R   0.129367 0.249999 0.749999 0.831464
C70   C     C_1   0.681106 0.749998 0.250003 -0.124133
C71   C     C_1   0.681106 0.749998 0.749997 -0.123353
C72   C     C_1   0.681106 0.249998 0.750003 -0.123319
C73   C     C_1   0.681106 0.249998 0.249997 -0.122969
C74   C     C_1   0.181106 0.749998 0.750003 -0.123319
C75   C     C_1   0.181106 0.749999 0.249997 -0.123545
C76   C     C_1   0.181106 0.249998 0.250003 -0.123629
C77   C     C_1   0.181106 0.249998 0.749997 -0.123367
C78   C     C_1   0.724547 0.749999 0.250001 0.023136
C79   C     C_3   0.476989 0.978365 0.297759 -0.003845
C80   C     C_1   0.724547 0.750000 0.749999 0.023765
C81   C     C_1   0.724547 0.249999 0.750001 0.023842
C82   C     C_1   0.724547 0.249999 0.249999 0.024105
C83   C     C_1   0.224547 0.750000 0.750001 0.023810
C84   C     C_1   0.224547 0.750000 0.249998 0.023633
C85   C     C_1   0.224547 0.250000 0.250001 0.023429
C86   C     C_1   0.224547 0.249999 0.749999 0.023764
C87   C     C_1   0.775447 0.750001 0.249998 0.022836
C88   C     C_1   0.775447 0.750001 0.750001 0.023283
C89   C     C_1   0.775447 0.250001 0.749998 0.023366
C90   C     C_3   0.483036 0.978580 0.700095 -0.002002
C91   C     C_1   0.775447 0.250001 0.250001 0.023458
C92   C     C_1   0.275447 0.750001 0.749999 0.023334
C93   C     C_1   0.275447 0.750002 0.250001 0.023181
C94   C     C_1   0.275447 0.250002 0.249999 0.022815
C95   C     C_1   0.275447 0.250001 0.750001 0.023268
C96   C     C_1   0.818888 0.750002 0.249997 -0.124407
C97   C     C_1   0.818888 0.750002 0.750003 -0.124064
C98   C     C_1   0.818888 0.250002 0.749997 -0.123978
C99   C     C_1   0.818888 0.250002 0.250003 -0.123997
C100  C     C_1   0.318888 0.750002 0.749997 -0.124008
C101  C     C_3   0.478012 0.021880 0.702603 -0.018587
C102  C     C_1   0.318888 0.750003 0.250003 -0.124278
C103  C     C_1   0.318888 0.250003 0.249997 -0.124511
C104  C     C_1   0.318888 0.250002 0.750003 -0.124085
C105  C     C_3   0.551247 0.978309 0.246324 0.096364
C106  C     C_3   0.551252 0.978590 0.758474 0.095187
C107  C     C_3   0.551238 0.021807 0.756835 0.105287
C108  C     C_3   0.551069 0.021483 0.241837 0.108325
C109  C     C_3   0.551627 0.478591 0.744488 0.095194
C110  C     C_3   0.551655 0.478592 0.255195 0.095222
C111  C     C_3   0.551535 0.521808 0.253555 0.105274
C112  C     C_R   0.500027 0.650354 0.749996 0.830706
C113  C     C_3   0.479645 0.021765 0.297711 -0.008881
C114  C     C_3   0.551517 0.521807 0.746130 0.105236
C115  C     C_3   0.051197 0.978585 0.741236 0.095140
C116  C     C_3   0.051524 0.978591 0.256473 0.095215
C117  C     C_3   0.051444 0.021808 0.254832 0.105311
C118  C     C_3   0.051191 0.021803 0.742845 0.105326
C119  C     C_3   0.051518 0.478589 0.243479 0.095133
C120  C     C_3   0.051601 0.478591 0.755771 0.095182
C121  C     C_3   0.051499 0.521807 0.754131 0.105238
C122  C     C_3   0.051441 0.521806 0.245111 0.105219
C123  C     C_3   0.427247 0.936102 0.348172 -0.714637
C124  C     C_3   0.480180 0.478579 0.798861 -0.001987
C125  C     C_3   0.451674 0.935151 0.638206 -0.734313
C126  C     C_3   0.420020 0.045670 0.642429 -0.746375
C127  C     C_3   0.431738 0.044612 0.366790 -0.751592
C128  C     C_3   0.445333 0.435137 0.858842 -0.734134
C129  C     C_3   0.444665 0.435132 0.141497 -0.734036
C130  C     C_3   0.413320 0.545669 0.147710 -0.745920
C131  C     C_3   0.413949 0.545668 0.852814 -0.746104
C132  C     C_3   0.952286 0.935084 0.861996 -0.734555
C133  C     C_3   0.947378 0.935143 0.140151 -0.735061
C134  C     C_3   0.915893 0.045668 0.145597 -0.746026
C135  C     C_3   0.479877 0.478578 0.201259 -0.002027
C136  C     C_3   0.920739 0.045652 0.858126 -0.746263
C137  C     C_3   0.947454 0.435141 0.359880 -0.734513
C138  C     C_3   0.945880 0.435136 0.640886 -0.734484
C139  C     C_3   0.914472 0.545669 0.646753 -0.746509
C140  C     C_3   0.916013 0.545660 0.354502 -0.746615
C141  C     C_3   0.529800 0.963434 0.135844 -0.833874
C142  C     C_3   0.515537 0.952705 0.863043 -0.841681
C143  C     C_3   0.465132 0.032303 0.887000 -0.603162
C144  C     C_3   0.459234 0.034358 0.114071 -0.584177
C145  C     C_3   0.521962 0.452702 0.638045 -0.841526
C146  C     C_3   0.475017 0.521877 0.204079 -0.018538
C147  C     C_3   0.522641 0.452704 0.361817 -0.841360
C148  C     C_3   0.473860 0.532305 0.388920 -0.603155
C149  C     C_3   0.473021 0.532303 0.611239 -0.602875
C150  C     C_3   0.014875 0.952757 0.636858 -0.842221
C151  C     C_3   0.019880 0.952704 0.362344 -0.841738
C152  C     C_3   0.970442 0.032303 0.388233 -0.603868
C153  C     C_3   0.964244 0.032323 0.613239 -0.601720
C154  C     C_3   0.019786 0.452721 0.137628 -0.841925
C155  C     C_3   0.021402 0.452704 0.862063 -0.841661
C156  C     C_3   0.972322 0.532304 0.888623 -0.603244
C157  C     C_3   0.475302 0.521878 0.796071 -0.018493
C158  C     C_3   0.970298 0.532310 0.111795 -0.602527
C159  C     C_3   0.983323 0.978574 0.800012 -0.001933
C160  C     C_3   0.981103 0.978579 0.200777 -0.001898
C161  C     C_3   0.976175 0.021878 0.203476 -0.018624
C162  C     C_3   0.978316 0.021877 0.797547 -0.018666
C163  C     C_3   0.981145 0.478577 0.299235 -0.001916
C164  C     C_R   0.500016 0.349643 0.749998 0.828055
C165  C     C_3   0.980428 0.478579 0.701040 -0.001963
C166  C     C_3   0.975537 0.521878 0.703805 -0.018469
C167  C     C_3   0.976226 0.521877 0.296546 -0.018438
C168  C     C_1   0.999630 0.610828 0.249530 -0.080829
C169  C     C_1   0.999630 0.610828 0.750474 -0.080867
C170  C     C_1   0.999792 0.389161 0.750215 -0.109426
C171  C     C_1   0.999791 0.389161 0.249785 -0.109350
C172  C     C_1   0.999625 0.110828 0.749541 -0.080641
C173  C     C_1   0.999628 0.110828 0.250471 -0.080793
C174  C     C_1   0.999793 0.889161 0.250211 -0.109456
C175  C     C_R   0.500016 0.349643 0.250002 0.828193
C176  C     C_1   0.999788 0.889161 0.749787 -0.109127
C177  C     C_1   0.499632 0.610828 0.749525 -0.080831
C178  C     C_1   0.499631 0.610828 0.250476 -0.080803
C179  C     C_1   0.499791 0.389161 0.250217 -0.109436
C180  C     C_1   0.499792 0.389161 0.749784 -0.109417
C181  C     C_1   0.499647 0.110840 0.249514 -0.080104
C182  C     C_1   0.499622 0.110829 0.750467 -0.080696
C183  C     C_1   0.499793 0.889161 0.750209 -0.109003
C184  C     C_1   0.499684 0.889153 0.249731 -0.110513
C185  C     C_3   0.498158 0.963160 0.248921 -0.067846
C186  C     C_R   0.500026 0.150354 0.750003 0.829708
C187  C     C_3   0.498758 0.963210 0.750884 -0.059803
C188  C     C_3   0.498279 0.036713 0.752086 -0.115891
C189  C     C_3   0.498444 0.036704 0.247697 -0.117328
C190  C     C_3   0.498786 0.463210 0.749056 -0.059538
C191  C     C_3   0.498788 0.463210 0.250949 -0.059558
C192  C     C_3   0.498382 0.536713 0.252175 -0.115835
C193  C     C_3   0.498374 0.536713 0.747833 -0.115793
C194  C     C_3   0.998747 0.963209 0.749129 -0.059706
C195  C     C_3   0.998777 0.963210 0.250920 -0.059429
C196  C     C_3   0.998342 0.036713 0.252137 -0.115751
C197  C     C_R   0.500029 0.150358 0.249996 0.828730
C198  C     C_3   0.998267 0.036713 0.747935 -0.115803
C199  C     C_3   0.998776 0.463210 0.249076 -0.059557
C200  C     C_3   0.998784 0.463210 0.750937 -0.059511
C201  C     C_3   0.998365 0.536713 0.752159 -0.115783
C202  C     C_3   0.998343 0.536713 0.247862 -0.115761
C203  C     C_3   0.969650 0.522153 0.201766 0.437319
C204  C     C_3   0.970351 0.522151 0.798670 0.437404
C205  C     C_3   0.965668 0.477864 0.794167 0.417386
C206  C     C_3   0.965037 0.477865 0.206331 0.417420
C207  C     C_3   0.967570 0.022158 0.703149 0.437062
C208  C     C_R   0.500019 0.849640 0.250005 0.830105
C209  C     C_3   0.969696 0.022151 0.298262 0.437421
C210  C     C_3   0.965075 0.977863 0.293695 0.417410
C211  C     C_3   0.963171 0.977868 0.707901 0.417429
C212  C     C_3   0.470595 0.522151 0.701181 0.437359
C213  C     C_3   0.470887 0.522151 0.298995 0.437367
C214  C     C_3   0.466155 0.477864 0.294545 0.417336
C215  C     C_3   0.465888 0.477864 0.705661 0.417363
C216  C     C_3   0.467415 0.022226 0.203083 0.433045
C217  C     C_3   0.467869 0.022151 0.797067 0.437260
C218  C     C_3   0.463427 0.977863 0.792325 0.417338
C219  C     C_R   0.500016 0.849643 0.750002 0.826985
C220  C     C_3   0.467306 0.977623 0.204083 0.423374
C221  C     C_1   0.999155 0.577586 0.248876 0.125444
C222  C     C_1   0.999162 0.577586 0.751135 0.125427
C223  C     C_1   0.999457 0.422403 0.750459 0.134439
C224  C     C_1   0.999454 0.422403 0.249543 0.134445
C225  C     C_1   0.999126 0.077586 0.748911 0.125482
C226  C     C_1   0.999153 0.077586 0.251125 0.125435
C227  C     C_1   0.999456 0.922403 0.250451 0.134477
C228  C     C_1   0.999444 0.922402 0.749560 0.134435
C229  C     C_1   0.499166 0.577586 0.748862 0.125425
C230  C     C_R   0.000027 0.650354 0.750004 0.830634
C231  C     C_1   0.499168 0.577586 0.251141 0.125422
C232  C     C_1   0.499457 0.422403 0.250465 0.134393
C233  C     C_1   0.499457 0.422403 0.749537 0.134416
C234  C     C_1   0.499224 0.077600 0.248809 0.130571
C235  C     C_1   0.499128 0.077586 0.751106 0.125411
C236  C     C_1   0.499452 0.922403 0.750439 0.134531
C237  C     C_1   0.499130 0.922388 0.249466 0.114784
C238  C     C_1   0.499976 0.750004 0.431108 -0.133259
C239  C     C_1   0.499976 0.750004 0.568892 -0.133404
C240  C     C_1   0.499974 0.249999 0.568892 -0.132695
Cl1   Cl    Cl    0.089101 0.541031 0.291785 -0.506811
Cl2   Cl    Cl    0.587971 0.541026 0.205915 -0.506715
Cl3   Cl    Cl    0.592417 0.457301 0.212756 -0.506985
Cl4   Cl    Cl    0.592647 0.457300 0.786676 -0.507057
Cl5   Cl    Cl    0.593629 0.044147 0.281103 -0.498935
Cl6   Cl    Cl    0.590626 0.041028 0.711607 -0.506291
Cl7   Cl    Cl    0.594622 0.957301 0.718701 -0.506335
Cl8   Cl    Cl    0.588432 0.960963 0.294685 -0.513748
Cl9   Cl    Cl    0.405893 0.960897 0.209907 -0.549586
Cl10  Cl    Cl    0.402226 0.965736 0.775465 -0.572253
Cl11  Cl    Cl    0.409875 0.045863 0.797910 -0.544528
Cl12  Cl    Cl    0.088464 0.541027 0.706901 -0.506965
Cl13  Cl    Cl    0.407665 0.042641 0.207138 -0.560722
Cl14  Cl    Cl    0.403823 0.465737 0.718987 -0.573246
Cl15  Cl    Cl    0.404010 0.465736 0.281598 -0.573084
Cl16  Cl    Cl    0.413064 0.545863 0.303515 -0.545059
Cl17  Cl    Cl    0.412746 0.545863 0.697013 -0.545080
Cl18  Cl    Cl    0.902072 0.965730 0.725111 -0.572123
Cl19  Cl    Cl    0.903269 0.965735 0.279214 -0.573859
Cl20  Cl    Cl    0.911779 0.045862 0.301349 -0.544818
Cl21  Cl    Cl    0.909569 0.045865 0.702692 -0.544255
Cl22  Cl    Cl    0.903244 0.465734 0.220860 -0.573255
Cl23  Cl    Cl    0.092832 0.457301 0.713788 -0.507221
Cl24  Cl    Cl    0.903670 0.465736 0.780529 -0.573344
Cl25  Cl    Cl    0.912481 0.545863 0.802546 -0.545171
Cl26  Cl    Cl    0.911728 0.545864 0.198744 -0.545024
Cl27  Cl    Cl    0.093350 0.457303 0.284868 -0.507097
Cl28  Cl    Cl    0.090883 0.041044 0.787792 -0.506355
Cl29  Cl    Cl    0.089049 0.041027 0.208110 -0.507750
Cl30  Cl    Cl    0.093324 0.957301 0.215055 -0.507580
Cl31  Cl    Cl    0.094785 0.957312 0.780784 -0.506499
Cl32  Cl    Cl    0.588243 0.541026 0.793547 -0.506794
H1    H     H_    0.501683 0.969519 0.327109 0.206259
H2    H     H_    0.010935 0.973982 0.174693 0.215751
H3    H     H_    0.525240 0.962185 0.096197 0.264098
H4    H     H_    0.448354 0.935380 0.843125 0.276915
H5    H     H_    0.508345 0.944300 0.900792 0.259180
H6    H     H_    0.537399 0.978133 0.864968 0.261979
H7    H     H_    0.535849 0.929847 0.845862 0.248425
H8    H     H_    0.513074 0.056185 0.840324 0.213206
H9    H     H_    0.446846 0.059266 0.892416 0.252303
H10   H     H_    0.490305 0.027831 0.917457 0.211400
H11   H     H_    0.437538 0.010198 0.887556 0.288993
H12   H     H_    0.507156 0.060383 0.159647 0.214844
H13   H     H_    0.999490 0.033072 0.174269 0.207787
H14   H     H_    0.483522 0.033109 0.082405 0.208624
H15   H     H_    0.436587 0.059512 0.110895 0.252665
H16   H     H_    0.435507 0.009729 0.113568 0.287713
H17   H     H_    0.453746 0.435382 0.654077 0.276855
H18   H     H_    0.541256 0.429844 0.656364 0.248629
H19   H     H_    0.543898 0.478130 0.637370 0.261904
H20   H     H_    0.516941 0.444294 0.599948 0.258940
H21   H     H_    0.454329 0.435383 0.346202 0.276833
H22   H     H_    0.517854 0.444297 0.399944 0.258913
H23   H     H_    0.544581 0.478132 0.362357 0.261930
H24   H     H_    0.002946 0.033054 0.825666 0.207936
H25   H     H_    0.541823 0.429846 0.343381 0.248664
H26   H     H_    0.518747 0.556185 0.339298 0.213503
H27   H     H_    0.455955 0.559268 0.395485 0.252649
H28   H     H_    0.500913 0.527833 0.417720 0.211476
H29   H     H_    0.446357 0.510200 0.391228 0.288663
H30   H     H_    0.518208 0.556184 0.660588 0.213436
H31   H     H_    0.499898 0.527830 0.582276 0.211441
H32   H     H_    0.455078 0.559267 0.604783 0.252665
H33   H     H_    0.445504 0.510199 0.609100 0.288720
H34   H     H_    0.947832 0.935383 0.657182 0.276788
H35   H     H_    0.010996 0.473973 0.325295 0.215916
H36   H     H_    0.035292 0.929881 0.653874 0.248399
H37   H     H_    0.036722 0.978189 0.634858 0.261964
H38   H     H_    0.007461 0.944397 0.599135 0.259024
H39   H     H_    0.951975 0.935382 0.345043 0.276631
H40   H     H_    0.014152 0.944296 0.400342 0.258826
H41   H     H_    0.041800 0.978131 0.363426 0.262068
H42   H     H_    0.039513 0.929846 0.344389 0.248572
H43   H     H_    0.016543 0.056184 0.339737 0.213457
H44   H     H_    0.952381 0.059266 0.394353 0.252511
H45   H     H_    0.996774 0.027830 0.417693 0.211586
H46   H     H_    0.009901 0.473981 0.674551 0.215858
H47   H     H_    0.942890 0.010198 0.389858 0.288567
H48   H     H_    0.012483 0.056210 0.659609 0.213116
H49   H     H_    0.989219 0.027856 0.582619 0.211441
H50   H     H_    0.945917 0.059283 0.607945 0.252561
H51   H     H_    0.936653 0.010214 0.612860 0.288941
H52   H     H_    0.951905 0.435382 0.154994 0.276851
H53   H     H_    0.039437 0.429858 0.155550 0.248535
H54   H     H_    0.041702 0.478150 0.136543 0.261888
H55   H     H_    0.014023 0.444328 0.099630 0.258958
H56   H     H_    0.953268 0.435382 0.845689 0.276814
H57   H     H_    0.998453 0.533071 0.674283 0.207948
H58   H     H_    0.016191 0.444297 0.900135 0.258890
H59   H     H_    0.043335 0.478132 0.862847 0.261935
H60   H     H_    0.040788 0.429846 0.843843 0.248615
H61   H     H_    0.017758 0.556185 0.839503 0.213428
H62   H     H_    0.954346 0.559268 0.894988 0.252623
H63   H     H_    0.999053 0.527832 0.917721 0.211442
H64   H     H_    0.944795 0.510200 0.890623 0.288693
H65   H     H_    0.016449 0.556193 0.160245 0.213303
H66   H     H_    0.996600 0.527841 0.082307 0.211382
H67   H     H_    0.952227 0.559273 0.105696 0.252645
H68   H     H_    0.999579 0.533065 0.325727 0.208004
H69   H     H_    0.942748 0.510204 0.110198 0.288819
H70   H     H_    0.570437 0.966832 0.215212 0.153247
H71   H     H_    0.565852 0.970406 0.793443 0.142355
H72   H     H_    0.567462 0.031759 0.790949 0.126213
H73   H     H_    0.513855 0.973982 0.675184 0.215891
H74   H     H_    0.564686 0.028768 0.205574 0.116475
H75   H     H_    0.568203 0.470410 0.710410 0.142247
H76   H     H_    0.568440 0.470410 0.289171 0.142301
H77   H     H_    0.569889 0.531764 0.286569 0.126148
H78   H     H_    0.569670 0.531763 0.713005 0.126067
H79   H     H_    0.065602 0.970381 0.706194 0.142372
H80   H     H_    0.067463 0.970409 0.290853 0.142281
H81   H     H_    0.068977 0.031763 0.288291 0.126193
H82   H     H_    0.067184 0.031740 0.708615 0.126082
H83   H     H_    0.067430 0.470401 0.209088 0.142210
H84   H     H_    0.502444 0.033072 0.674321 0.207888
H85   H     H_    0.068007 0.470409 0.789931 0.142244
H86   H     H_    0.069485 0.531763 0.787348 0.126052
H87   H     H_    0.068935 0.531756 0.211629 0.125957
H88   H     H_    0.399065 0.977961 0.304305 0.293683
H89   H     H_    0.391228 0.922841 0.348306 0.255550
H90   H     H_    0.433037 0.950047 0.383259 0.223576
H91   H     H_    0.454799 0.914216 0.343286 0.252094
H92   H     H_    0.408604 0.970663 0.678318 0.286988
H93   H     H_    0.419445 0.918103 0.630216 0.252704
H94   H     H_    0.482219 0.916279 0.645954 0.257128
H95   H     H_    0.508707 0.028879 0.323769 0.217161
H96   H     H_    0.460261 0.952328 0.606230 0.232485
H97   H     H_    0.401390 0.024140 0.709558 0.316879
H98   H     H_    0.383073 0.057131 0.639515 0.257764
H99   H     H_    0.422805 0.020895 0.619074 0.236546
H100  H     H_    0.445726 0.067066 0.629818 0.253450
H101  H     H_    0.404473 0.035946 0.297964 0.300975
H102  H     H_    0.399238 0.061265 0.375125 0.253310
H103  H     H_    0.463495 0.059179 0.381907 0.255268
H104  H     H_    0.428047 0.017153 0.384039 0.241417
H105  H     H_    0.404627 0.470659 0.816349 0.286993
H106  H     H_    0.509521 0.473982 0.825496 0.215905
H107  H     H_    0.412701 0.418086 0.864968 0.252674
H108  H     H_    0.452074 0.452308 0.891262 0.232268
H109  H     H_    0.476272 0.416268 0.852847 0.257638
H110  H     H_    0.404219 0.470660 0.184230 0.287062
H111  H     H_    0.411996 0.418080 0.135572 0.252739
H112  H     H_    0.475639 0.416263 0.147306 0.257658
H113  H     H_    0.451208 0.452300 0.109034 0.232188
H114  H     H_    0.398991 0.524131 0.215882 0.316958
H115  H     H_    0.376261 0.557126 0.147149 0.257818
H116  H     H_    0.414622 0.520897 0.124221 0.236543
H117  H     H_    0.509055 0.473981 0.174445 0.215863
H118  H     H_    0.438169 0.567069 0.133497 0.253687
H119  H     H_    0.399206 0.524131 0.784730 0.316896
H120  H     H_    0.376896 0.557131 0.853598 0.257708
H121  H     H_    0.438888 0.567063 0.866882 0.253733
H122  H     H_    0.415383 0.520894 0.876291 0.236567
H123  H     H_    0.909016 0.970691 0.822242 0.286916
H124  H     H_    0.920093 0.918033 0.870121 0.252728
H125  H     H_    0.961063 0.952205 0.893970 0.232380
H126  H     H_    0.982774 0.916214 0.854023 0.257014
H127  H     H_    0.905887 0.970659 0.181888 0.286983
H128  H     H_    0.497602 0.533071 0.174303 0.207970
H129  H     H_    0.914866 0.918092 0.133415 0.252725
H130  H     H_    0.978200 0.916273 0.146717 0.257444
H131  H     H_    0.954721 0.952317 0.107865 0.232036
H132  H     H_    0.899880 0.024133 0.213394 0.316960
H133  H     H_    0.878859 0.057126 0.144118 0.258085
H134  H     H_    0.917774 0.020896 0.122148 0.236406
H135  H     H_    0.941087 0.067068 0.132002 0.253435
H136  H     H_    0.901656 0.024180 0.791093 0.316789
H137  H     H_    0.883829 0.057145 0.861293 0.257737
H138  H     H_    0.946558 0.067014 0.870609 0.253505
H139  H     H_    0.498068 0.533071 0.825708 0.208000
H140  H     H_    0.923633 0.020855 0.881425 0.236555
H141  H     H_    0.905941 0.470664 0.318176 0.286900
H142  H     H_    0.914942 0.418094 0.366636 0.252608
H143  H     H_    0.954824 0.452311 0.392164 0.232305
H144  H     H_    0.978266 0.416267 0.353289 0.257509
H145  H     H_    0.904963 0.470660 0.683173 0.286968
H146  H     H_    0.913279 0.418085 0.634597 0.252687
H147  H     H_    0.976788 0.416266 0.647036 0.257596
H148  H     H_    0.952784 0.452306 0.608499 0.232156
H149  H     H_    0.899384 0.524132 0.714761 0.316869
H150  H     H_    0.014273 0.973957 0.824753 0.215830
H151  H     H_    0.877422 0.557127 0.645779 0.257670
H152  H     H_    0.916035 0.520897 0.623280 0.236536
H153  H     H_    0.939478 0.567069 0.632817 0.253697
H154  H     H_    0.899923 0.524149 0.286711 0.316775
H155  H     H_    0.878994 0.557142 0.356023 0.257553
H156  H     H_    0.941243 0.567036 0.368096 0.253727
H157  H     H_    0.917885 0.520875 0.377928 0.236579
H158  H     H_    0.467900 0.934889 0.151355 0.270792
H159  H     H_    0.552533 0.939535 0.146330 0.243916
H160  H     H_    0.548406 0.989544 0.144043 0.250049
N1    N     N_2   0.429819 0.962742 0.309401 -0.248427
N2    N     N_2   0.939346 0.958659 0.181518 -0.257442
N3    N     N_2   0.927747 0.036067 0.194773 -0.255485
N4    N     N_2   0.930346 0.036089 0.808448 -0.255546
N5    N     N_2   0.939399 0.458662 0.318522 -0.257547
N6    N     N_2   0.938412 0.458658 0.682353 -0.257538
N7    N     N_2   0.926995 0.536067 0.695763 -0.255580
N8    N     N_2   0.927813 0.536074 0.305308 -0.255598
N9    N     N_2   0.482800 0.960457 0.158259 -0.298567
N10   N     N_2   0.469953 0.958314 0.838679 -0.291942
N11   N     N_2   0.492124 0.032741 0.842128 -0.350513
N12   N     N_2   0.442053 0.958663 0.679237 -0.257446
N13   N     N_2   0.487953 0.036086 0.157741 -0.341364
N14   N     N_2   0.475057 0.458314 0.659757 -0.292040
N15   N     N_2   0.475605 0.458315 0.340393 -0.292101
N16   N     N_2   0.497952 0.532742 0.342427 -0.350442
N17   N     N_2   0.497395 0.532741 0.657586 -0.350516
N18   N     N_2   0.969435 0.958330 0.661504 -0.291947
N19   N     N_2   0.973388 0.958314 0.339762 -0.292143
N20   N     N_2   0.995678 0.032741 0.342350 -0.350299
N21   N     N_2   0.991526 0.032764 0.657935 -0.350777
N22   N     N_2   0.973313 0.458319 0.160255 -0.291946
N23   N     N_2   0.429959 0.036071 0.692030 -0.255461
N24   N     N_2   0.974607 0.458315 0.840117 -0.292045
N25   N     N_2   0.996930 0.532742 0.842400 -0.350434
N26   N     N_2   0.995582 0.532749 0.157652 -0.350597
N27   N     N_2   0.436524 0.040666 0.315161 -0.269786
N28   N     N_2   0.438073 0.458658 0.817337 -0.257614
N29   N     N_2   0.437657 0.458657 0.183042 -0.257594
N30   N     N_2   0.426388 0.536066 0.196578 -0.255642
N31   N     N_2   0.426720 0.536066 0.803868 -0.255646
N32   N     N_2   0.942442 0.958666 0.821087 -0.257316
O1    O     O_3   0.499990 0.750000 0.250000 -0.490940
O2    O     O_R   0.527870 0.668020 0.722120 -0.635000
O3    O     O_R   0.972140 0.331980 0.722150 -0.629041
O4    O     O_R   0.972140 0.168020 0.222150 -0.625475
O5    O     O_R   0.972140 0.168020 0.777850 -0.625180
O6    O     O_R   0.972140 0.831980 0.777850 -0.628709
O7    O     O_R   0.972140 0.831980 0.222150 -0.629050
O8    O     O_R   0.527870 0.331980 0.722120 -0.632590
O9    O     O_R   0.527870 0.331980 0.277880 -0.632676
O10   O     O_R   0.527870 0.168020 0.777880 -0.634607
O11   O     O_R   0.527870 0.168020 0.222120 -0.633998
O12   O     O_R   0.527870 0.831980 0.222120 -0.632682
O13   O     O_R   0.527870 0.831980 0.777880 -0.631946
O14   O     O_R   0.027870 0.668020 0.777880 -0.634960
O15   O     O_R   0.027870 0.668020 0.222120 -0.634904
O16   O     O_R   0.027870 0.331980 0.222120 -0.632408
O17   O     O_3   0.499990 0.750000 0.750000 -0.491324
O18   O     O_R   0.027870 0.331980 0.777880 -0.632548
O19   O     O_R   0.027870 0.168020 0.277880 -0.634893
O20   O     O_R   0.027870 0.168020 0.722120 -0.634568
O21   O     O_R   0.027870 0.831980 0.722120 -0.631914
O22   O     O_R   0.027870 0.831980 0.277880 -0.632427
O23   O     O_R   0.472130 0.728510 0.143730 -0.631543
O24   O     O_R   0.472130 0.728510 0.856270 -0.631641
O25   O     O_R   0.472130 0.271490 0.856270 -0.632383
O26   O     O_R   0.472130 0.271490 0.143730 -0.632425
O27   O     O_R   0.472130 0.228510 0.643730 -0.631560
O28   O     O_3   0.499990 0.250000 0.750000 -0.491251
O29   O     O_R   0.472130 0.228510 0.356270 -0.630925
O30   O     O_R   0.472130 0.771490 0.356270 -0.632431
O31   O     O_R   0.472130 0.771490 0.643730 -0.632212
O32   O     O_R   0.972130 0.728510 0.643730 -0.631682
O33   O     O_R   0.972130 0.728510 0.356270 -0.631645
O34   O     O_R   0.972130 0.271490 0.356270 -0.632345
O35   O     O_R   0.972130 0.271490 0.643730 -0.632370
O36   O     O_R   0.972130 0.228510 0.143730 -0.631556
O37   O     O_R   0.972130 0.228510 0.856270 -0.631534
O38   O     O_R   0.972130 0.771490 0.856270 -0.632254
O39   O     O_3   0.499990 0.250000 0.250000 -0.491375
O40   O     O_R   0.972130 0.771490 0.143730 -0.632308
O41   O     O_R   0.393720 0.728520 0.222140 -0.629198
O42   O     O_R   0.393720 0.728520 0.777860 -0.629416
O43   O     O_R   0.393720 0.271480 0.777860 -0.630319
O44   O     O_R   0.393720 0.271480 0.222140 -0.630274
O45   O     O_R   0.393720 0.228520 0.722140 -0.628824
O46   O     O_R   0.393720 0.228520 0.277860 -0.629378
O47   O     O_R   0.393720 0.771480 0.277860 -0.630147
O48   O     O_R   0.393720 0.771480 0.722140 -0.629667
O49   O     O_R   0.893720 0.728520 0.722140 -0.629434
O50   O     O_3   0.999990 0.750000 0.750000 -0.491299
O51   O     O_R   0.893720 0.728520 0.277860 -0.629214
O52   O     O_R   0.893720 0.271480 0.277860 -0.630145
O53   O     O_R   0.893720 0.271480 0.722140 -0.630277
O54   O     O_R   0.893720 0.228520 0.222140 -0.628973
O55   O     O_R   0.893720 0.228520 0.777860 -0.628785
O56   O     O_R   0.893720 0.771480 0.777860 -0.629651
O57   O     O_R   0.893720 0.771480 0.222140 -0.630097
O58   O     O_R   0.606280 0.728500 0.277860 -0.629386
O59   O     O_R   0.606280 0.728500 0.722140 -0.629687
O60   O     O_R   0.606280 0.271500 0.722140 -0.628773
O61   O     O_3   0.999990 0.750000 0.250000 -0.491161
O62   O     O_R   0.606280 0.271500 0.277860 -0.628895
O63   O     O_R   0.606280 0.228500 0.777860 -0.628949
O64   O     O_R   0.606280 0.228500 0.222140 -0.628271
O65   O     O_R   0.606280 0.771500 0.222140 -0.629215
O66   O     O_R   0.606280 0.771500 0.777860 -0.628105
O67   O     O_R   0.106280 0.728500 0.777860 -0.629650
O68   O     O_R   0.106280 0.728500 0.222140 -0.629421
O69   O     O_R   0.106280 0.271500 0.222140 -0.628606
O70   O     O_R   0.106280 0.271500 0.777860 -0.628771
O71   O     O_R   0.106280 0.228500 0.277860 -0.629317
O72   O     O_3   0.999990 0.250000 0.250000 -0.491215
O73   O     O_R   0.106280 0.228500 0.722140 -0.628965
O74   O     O_R   0.106280 0.771500 0.722140 -0.628093
O75   O     O_R   0.106280 0.771500 0.277860 -0.628503
O76   O     O_R   0.527850 0.771500 0.143710 -0.632704
O77   O     O_R   0.527850 0.771500 0.856290 -0.632718
O78   O     O_R   0.527850 0.228500 0.856290 -0.632076
O79   O     O_R   0.527850 0.228500 0.143710 -0.632357
O80   O     O_R   0.527850 0.271500 0.643710 -0.632920
O81   O     O_R   0.527850 0.271500 0.356290 -0.632983
O82   O     O_R   0.527850 0.728500 0.356290 -0.632189
O83   O     O_3   0.999990 0.250000 0.750000 -0.491276
O84   O     O_R   0.527850 0.728500 0.643710 -0.632203
O85   O     O_R   0.027850 0.771500 0.643710 -0.632753
O86   O     O_R   0.027850 0.771500 0.356290 -0.632850
O87   O     O_R   0.027850 0.228500 0.356290 -0.632054
O88   O     O_R   0.027850 0.228500 0.643710 -0.632077
O89   O     O_R   0.027850 0.271500 0.143710 -0.632957
O90   O     O_R   0.027850 0.271500 0.856290 -0.632952
O91   O     O_R   0.027850 0.728500 0.856290 -0.632174
O92   O     O_R   0.027850 0.728500 0.143710 -0.632155
O93   O     O_R   0.472140 0.668020 0.222150 -0.625737
O94   O     O_R   0.527870 0.668020 0.277880 -0.635019
O95   O     O_R   0.472140 0.668020 0.777850 -0.625612
O96   O     O_R   0.472140 0.331980 0.777850 -0.629055
O97   O     O_R   0.472140 0.331980 0.222150 -0.629008
O98   O     O_R   0.472140 0.168020 0.722150 -0.625267
O99   O     O_R   0.472140 0.168020 0.277850 -0.624749
O100  O     O_R   0.472140 0.831980 0.277850 -0.631421
O101  O     O_R   0.472140 0.831980 0.722150 -0.628709
O102  O     O_R   0.972140 0.668020 0.722150 -0.625593
O103  O     O_R   0.972140 0.668020 0.277850 -0.625484
O104  O     O_R   0.972140 0.331980 0.277850 -0.628972
Zn1   Zn    Zn3+2 0.539790 0.780710 0.210180 1.001727
Zn2   Zn    Zn3+2 0.039790 0.780710 0.289820 1.001911
Zn3   Zn    Zn3+2 0.039790 0.219290 0.289820 1.003276
Zn4   Zn    Zn3+2 0.039790 0.219290 0.710180 1.003574
Zn5   Zn    Zn3+2 0.039790 0.280710 0.210180 1.001795
Zn6   Zn    Zn3+2 0.039790 0.280710 0.789820 1.001691
Zn7   Zn    Zn3+2 0.039790 0.719290 0.789820 1.003015
Zn8   Zn    Zn3+2 0.039790 0.719290 0.210180 1.003213
Zn9   Zn    Zn3+2 0.460190 0.719300 0.210200 1.006728
Zn10  Zn    Zn3+2 0.460190 0.719300 0.789800 1.006108
Zn11  Zn    Zn3+2 0.460190 0.280700 0.789800 1.001290
Zn12  Zn    Zn3+2 0.539790 0.780710 0.789820 1.002513
Zn13  Zn    Zn3+2 0.460190 0.280700 0.210200 1.000738
Zn14  Zn    Zn3+2 0.460190 0.219300 0.710200 1.006452
Zn15  Zn    Zn3+2 0.460190 0.219300 0.289800 1.006555
Zn16  Zn    Zn3+2 0.460190 0.780700 0.289800 1.000916
Zn17  Zn    Zn3+2 0.460190 0.780700 0.710200 1.001939
Zn18  Zn    Zn3+2 0.960190 0.719300 0.710200 1.005986
Zn19  Zn    Zn3+2 0.960190 0.719300 0.289800 1.006158
Zn20  Zn    Zn3+2 0.960190 0.280700 0.289800 1.001532
Zn21  Zn    Zn3+2 0.960190 0.280700 0.710200 1.001331
Zn22  Zn    Zn3+2 0.960190 0.219300 0.210200 1.006364
Zn23  Zn    Zn3+2 0.539790 0.219290 0.789820 1.003569
Zn24  Zn    Zn3+2 0.960190 0.219300 0.789800 1.006551
Zn25  Zn    Zn3+2 0.960190 0.780700 0.789800 1.001833
Zn26  Zn    Zn3+2 0.960190 0.780700 0.210200 1.001386
Zn27  Zn    Zn3+2 0.539790 0.219290 0.210180 1.004002
Zn28  Zn    Zn3+2 0.539790 0.280710 0.710180 1.001755
Zn29  Zn    Zn3+2 0.539790 0.280710 0.289820 1.002028
Zn30  Zn    Zn3+2 0.539790 0.719290 0.289820 1.003094
Zn31  Zn    Zn3+2 0.539790 0.719290 0.710180 1.002996
Zn32  Zn    Zn3+2 0.039790 0.780710 0.710180 1.002417

loop_
_geom_bond_atom_site_label_1
_geom_bond_atom_site_label_2
_ccdc_geom_bond_type
C61   C70   S    
C159  C194  S    
H39   N19   S    
C50   O91   A    
C131  H121  S    
C62   O59   A    
C8    C26   T    
C73   C82   T    
O85   Zn32  S    
C130  H116  S    
C167  N8    S    
C74   C83   T    
C46   O5    A    
C108  H74   S    
O1    Zn16  S    
C15   C32   T    
C188  C217  S    
O92   Zn8   S    
C216  Cl13  S    
C157  C193  S    
C60   C98   S    
H158  N9    S    
C219  O13   A    
C106  C107  S    
C212  Cl17  S    
C110  C111  S    
C39   C240  S    
O102  Zn18  S    
C116  C195  S    
C166  N7    S    
C19   C20   S    
O67   Zn7   S    
C116  H80   S    
C151  H42   S    
C42   O31   A    
C152  H45   S    
C193  C229  S    
C132  H124  S    
C101  C188  S    
C16   C44   S    
O69   Zn5   S    
C88   C97   T    
C153  H51   S    
C183  C236  T    
C53   O42   A    
C149  N17   S    
O37   Zn24  S    
C149  H33   S    
C51   O40   A    
O97   Zn13  S    
C21   C22   S    
C80   C88   S    
C144  H15   S    
C122  H87   S    
C218  Cl10  S    
O99   Zn15  S    
C123  H91   S    
C142  H5    S    
C196  C226  S    
C41   C238  S    
O28   Zn14  S    
C139  H152  S    
O80   Zn28  S    
C202  C203  S    
O30   Zn16  S    
O2    Zn31  S    
C61   O65   A    
C55   O44   A    
O72   Zn20  S    
C133  H130  S    
C210  Cl19  S    
C197  O11   A    
C127  N27   S    
O61   Zn26  S    
O64   Zn27  S    
O36   Zn22  S    
C82   C91   S    
C161  C196  S    
H17   N14   S    
O16   Zn5   S    
C208  O12   A    
C174  C227  T    
C105  Cl8   S    
C11   C49   S    
C189  C216  S    
H56   N24   S    
O77   Zn12  S    
C172  C225  T    
C56   O49   A    
C54   O43   A    
C115  C118  S    
O87   Zn3   S    
C146  H128  S    
C209  N20   S    
C154  H55   S    
C208  O100  A    
H21   N15   S    
C164  O96   A    
C219  O101  A    
C8    C50   S    
H30   N17   S    
C63   O60   A    
C151  N19   S    
O25   Zn11  S    
C183  C219  S    
C65   C74   S    
H105  N28   S    
O17   Zn17  S    
O75   Zn2   S    
C7    C25   T    
C117  Cl29  S    
C109  H75   S    
C205  Cl24  S    
H43   N20   S    
C52   O41   A    
C162  C198  S    
C143  H11   S    
C195  C227  S    
C135  N29   S    
C121  C201  S    
C140  H156  S    
C158  H69   S    
H34   N18   S    
C214  N15   S    
O28   Zn23  S    
C24   O18   A    
C46   C172  S    
C44   O33   A    
C152  H47   S    
C84   C93   S    
C132  H126  S    
C145  H18   S    
C137  H143  S    
C125  H93   S    
O11   Zn27  S    
O24   Zn10  S    
C105  H70   S    
C123  H89   S    
C76   C85   T    
C107  H72   S    
O55   Zn24  S    
C213  N16   S    
C112  O2    A    
C78   C87   S    
C192  C231  S    
C148  N16   S    
O88   Zn4   S    
C136  H138  S    
O83   Zn24  S    
C69   C77   S    
O32   Zn18  S    
C14   C31   T    
C157  H139  S    
C181  C197  S    
C180  C233  T    
C64   O62   A    
O49   Zn18  S    
O20   Zn4   S    
C132  N32   S    
O35   Zn21  S    
C191  C214  S    
C216  N13   S    
C158  N26   S    
C115  Cl31  S    
C1    O94   A    
O54   Zn22  S    
C141  N9    S    
C156  N25   S    
C67   O71   A    
C139  N7    S    
H52   N22   S    
O82   Zn30  S    
H127  N2    S    
H145  N6    S    
C154  H53   S    
O81   Zn29  S    
C220  N9    S    
O28   Zn28  S    
C14   C47   S    
C181  C234  T    
O63   Zn23  S    
O61   Zn19  S    
C149  H31   S    
C38   O26   A    
C64   C73   S    
O50   Zn32  S    
C106  Cl7   S    
C24   C170  S    
C190  C215  S    
O90   Zn6   S    
O39   Zn27  S    
O50   Zn18  S    
C40   O29   A    
C212  N17   S    
C165  H46   S    
C163  C199  S    
C150  H38   S    
O39   Zn13  S    
C47   O35   A    
C202  C221  S    
C117  H81   S    
C56   C97   S    
C101  H84   S    
C154  H54   S    
C69   O70   A    
C58   O57   A    
C2    O15   A    
C167  H68   S    
C209  C210  S    
C122  Cl1   S    
O84   Zn31  S    
C49   O90   A    
C176  C228  T    
C143  H9    S    
C144  H14   S    
O10   Zn23  S    
C35   C173  S    
C5    C38   S    
C86   C95   S    
C165  C200  S    
C158  H67   S    
C141  H159  S    
C156  H63   S    
C46   O20   A    
C138  H148  S    
C109  Cl4   S    
C217  C218  S    
C107  C188  S    
C155  N24   S    
O17   Zn10  S    
H136  N4    S    
C145  H20   S    
C34   O76   A    
O27   Zn14  S    
C110  H76   S    
C1    C178  S    
C59   O54   A    
C169  C222  T    
C212  C215  S    
C109  C190  S    
C146  N30   S    
C120  Cl23  S    
O47   Zn16  S    
O19   Zn3   S    
C17   C18   S    
H97   N23   S    
C159  N32   S    
C190  C233  S    
C63   C72   S    
O22   Zn2   S    
C188  C235  S    
C109  C114  S    
C124  N28   S    
C125  N12   S    
C35   O19   A    
C111  Cl2   S    
C56   O56   A    
C115  C194  S    
C79   C113  S    
C136  H140  S    
O7    Zn26  S    
O39   Zn15  S    
O29   Zn15  S    
C160  H2    S    
C141  H3    S    
C134  H134  S    
C2    C168  S    
C192  C213  S    
C120  C121  S    
C62   O66   A    
O14   Zn7   S    
O58   Zn30  S    
C127  H104  S    
C64   O64   A    
H154  N8    S    
C198  C207  S    
C200  C223  S    
H92   N12   S    
C72   C81   T    
O62   Zn29  S    
C213  Cl16  S    
C203  Cl26  S    
C114  Cl32  S    
C55   O46   A    
H65   N26   S    
C199  C224  S    
C147  H22   S    
C67   O69   A    
O57   Zn26  S    
C89   C98   T    
C15   C43   S    
C114  H78   S    
C45   O87   A    
O43   Zn11  S    
C130  H118  S    
O72   Zn3   S    
C206  Cl22  S    
C62   C71   S    
C128  H109  S    
C129  H113  S    
O40   Zn26  S    
C142  N10   S    
H123  N32   S    
H4    N10   S    
C155  H60   S    
H26   N16   S    
C13   C171  S    
C153  N21   S    
C204  C205  S    
C150  H36   S    
O17   Zn31  S    
C151  H41   S    
C90   H73   S    
C217  Cl11  S    
C91   C99   T    
H101  N27   S    
O44   Zn13  S    
C153  H50   S    
O94   Zn30  S    
C187  C218  S    
C118  C198  S    
O46   Zn15  S    
O104  Zn20  S    
C200  C205  S    
C185  C220  S    
C144  H16   S    
C7    C36   S    
C107  Cl6   S    
C9    C51   S    
O89   Zn5   S    
C36   O24   A    
C142  H6    S    
C124  C190  S    
O91   Zn7   S    
C138  H146  S    
C204  Cl25  S    
C95   C104  T    
O28   Zn11  S    
C139  H151  S    
C47   O88   A    
C52   C102  S    
C26   C27   S    
H141  N5    S    
C119  C199  S    
O17   Zn12  S    
C54   C104  S    
C28   C29   S    
C203  N26   S    
C106  C187  S    
C43   O85   A    
C30   C31   S    
C54   O45   A    
C59   O52   A    
C128  H107  S    
C133  H129  S    
C90   C187  S    
O21   Zn32  S    
C110  C191  S    
C57   O21   A    
C169  C230  S    
O60   Zn28  S    
C182  C186  S    
C194  C228  S    
O86   Zn2   S    
C143  N11   S    
C110  Cl3   S    
C147  H25   S    
O73   Zn4   S    
C165  N6    S    
C136  N4    S    
O95   Zn10  S    
C187  C236  S    
C164  C180  S    
C129  H112  S    
C58   O51   A    
C13   O104  A    
C81   C89   S    
C17   C238  T    
C130  H115  S    
C111  C192  S    
C79   H1    S    
C127  H102  S    
C220  Cl9   S    
C39   O27   A    
C106  H71   S    
C90   N12   S    
C215  N14   S    
C116  Cl30  S    
O1    Zn1   S    
C49   O37   A    
C139  H153  S    
C53   C100  S    
C66   O75   A    
C138  N6    S    
C203  C206  S    
H149  N7    S    
C216  C220  S    
C57   O6    A    
C230  O14   A    
C195  C210  S    
C43   O32   A    
O12   Zn1   S    
C12   C45   S    
C121  Cl12  S    
O23   Zn9   S    
C50   O38   A    
C108  Cl5   S    
O83   Zn21  S    
C199  C206  S    
O56   Zn25  S    
C166  C201  S    
C230  O102  A    
O1    Zn30  S    
C158  H66   S    
O100  Zn16  S    
C163  N5    S    
C155  H58   S    
C156  H62   S    
C66   O68   A    
H88   N1    S    
C157  N31   S    
O6    Zn25  S    
C213  C214  S    
C129  N29   S    
C131  N31   S    
C124  C157  S    
O31   Zn17  S    
C211  N18   S    
C159  C162  S    
C3    C20   T    
C41   O82   A    
C135  C191  S    
O45   Zn14  S    
C65   O74   A    
C137  H142  S    
C160  C195  S    
C118  Cl28  S    
C196  C209  S    
O72   Zn22  S    
C52   O47   A    
C94   C103  T    
H132  N3    S    
H8    N11   S    
C10   C48   S    
O34   Zn20  S    
C133  N2    S    
O13   Zn12  S    
C144  N13   S    
O53   Zn21  S    
C184  C237  T    
C9    C27   T    
H119  N31   S    
C10   C28   T    
C68   O7    A    
C150  N18   S    
C206  N22   S    
C201  C204  S    
C12   C30   T    
C69   O73   A    
C147  N15   S    
C193  C212  S    
C93   C102  T    
C42   C239  S    
C133  H131  S    
C53   O48   A    
C134  N3    S    
C113  C189  S    
C184  C208  S    
C2    O103  A    
C32   C33   S    
C122  C202  S    
C131  H122  S    
O98   Zn14  S    
C178  C231  T    
C197  O99   A    
C175  O9    A    
C1    O93   A    
O61   Zn8   S    
C147  H23   S    
C66   C75   S    
C120  C200  S    
C24   O3    A    
C68   O22   A    
C135  H117  S    
C41   O30   A    
C215  Cl14  S    
O96   Zn11  S    
C126  H100  S    
O50   Zn7   S    
C75   C84   T    
C42   O84   A    
C170  C223  T    
C6    C34   S    
C148  H27   S    
C4    C37   S    
C211  Cl18  S    
O74   Zn32  S    
C131  H120  S    
C117  C196  S    
C168  C221  T    
O83   Zn4   S    
O50   Zn25  S    
C124  H106  S    
C121  H86   S    
H110  N29   S    
C179  C232  T    
O65   Zn1   S    
C112  C177  S    
C126  N23   S    
C35   O4    A    
C165  C166  S    
C130  N30   S    
C114  C193  S    
C70   C78   T    
C59   C99   S    
C113  H95   S    
H12   N13   S    
C171  C224  T    
C40   O81   A    
C186  O98   A    
O76   Zn1   S    
C153  H49   S    
O71   Zn3   S    
C83   C92   S    
C217  N11   S    
C160  N2    S    
O15   Zn8   S    
O38   Zn25  S    
O39   Zn29  S    
C140  H155  S    
C173  C226  T    
C177  C229  T    
C156  H64   S    
C167  C202  S    
C65   O67   A    
C13   O16   A    
O66   Zn12  S    
C48   O89   A    
C55   C103  S    
C126  H99   S    
O79   Zn27  S    
C116  C117  S    
C105  C185  S    
C132  H125  S    
C207  C211  S    
C58   C96   S    
C204  N25   S    
C218  N10   S    
C137  H144  S    
C194  C211  S    
C60   O53   A    
C5    C22   T    
C34   O23   A    
O59   Zn31  S    
C191  C232  S    
C166  H57   S    
C37   O78   A    
C38   O79   A    
C101  N23   S    
C37   O25   A    
C39   O80   A    
C123  H90   S    
C145  H19   S    
C198  C225  S    
C48   O36   A    
O103  Zn19  S    
C135  C146  S    
C23   C25   S    
C151  H40   S    
O3    Zn21  S    
H48   N21   S    
C118  H82   S    
C136  H137  S    
C146  C192  S    
C210  N19   S    
C201  C222  S    
O42   Zn10  S    
C162  H24   S    
C134  H135  S    
O41   Zn9   S    
C71   C80   T    
C161  H13   S    
O48   Zn17  S    
C113  N27   S    
C207  Cl21  S    
C105  C108  S    
C185  C237  S    
C61   O58   A    
C127  H103  S    
C125  H94   S    
C68   C174  S    
C209  Cl20  S    
C175  C179  S    
O61   Zn2   S    
C45   O34   A    
O5    Zn24  S    
C123  N1    S    
C120  H85   S    
O68   Zn8   S    
C163  C167  S    
C90   C101  S    
H114  N30   S    
O4    Zn22  S    
C145  N14   S    
O70   Zn6   S    
C57   C176  S    
C85   C94   S    
C148  H29   S    
O18   Zn6   S    
C149  H32   S    
C119  Cl27  S    
C87   C96   T    
C164  O8    A    
C189  C234  S    
C186  O10   A    
C140  N8    S    
O26   Zn13  S    
C155  H59   S    
O78   Zn23  S    
C182  C235  T    
C77   C86   T    
C150  H37   S    
O93   Zn9   S    
C154  N22   S    
C205  N24   S    
C108  C189  S    
C137  N5    S    
C112  O95   A    
O51   Zn19  S    
C18   C239  T    
C92   C100  T    
O9    Zn29  S    
C128  N28   S    
C119  C122  S    
O8    Zn28  S    
C63   O63   A    
C143  H10   S    
C79   C185  S    
C148  H28   S    
C214  Cl15  S    
O101  Zn17  S    
C140  H157  S    
H61   N25   S    
C142  H7    S    
C3    C40   S    
C141  H160  S    
C79   N1    S    
C138  H147  S    
C207  N21   S    
C161  N3    S    
C162  N4    S    
C152  H44   S    
C160  C161  S    
C119  H83   S    
C175  O97   A    
C16   C33   T    
C44   O86   A    
C19   C240  T    
C4    C21   T    
C60   O55   A    
C128  H108  S    
C125  H96   S    
C36   O77   A    
C6    C23   T    
C115  H79   S    
C51   O92   A    
O83   Zn6   S    
O33   Zn19  S    
C163  H35   S    
O52   Zn20  S    
C152  N20   S    
O1    Zn9   S    
C159  H150  S    
C126  H98   S    
C11   C29   T    
C111  H77   S    
C67   C76   S    
C134  H133  S    
O72   Zn5   S    
C129  H111  S    
