data_mof_unit_pretest_144.cif
_audit_creation_date              2012-12-11T16:52:30-0500
_audit_creation_method            fapswitch 2.2
_symmetry_space_group_name_H-M    P1
_symmetry_Int_Tables_number       1
_space_group_crystal_system       monoclinic
_cell_length_a                    7.17792
_cell_length_b                    26.063364
_cell_length_c                    28.719847
_cell_angle_alpha                 90.0
_cell_angle_beta                  89.999974
_cell_angle_gamma                 90.0
_cell_volume                      5372.93027893

loop_
_atom_site_label
_atom_site_type_symbol
_atom_type_description
_atom_site_fract_x
_atom_site_fract_y
_atom_site_fract_z
_atom_type_partial_charge
O1    O     O_R   0.601030 0.796770 0.202460 -0.532770
O2    O     O_R   0.398970 0.203230 0.797540 -0.532612
O3    O     O_R   0.398970 0.203230 0.702460 -0.532770
O4    O     O_R   0.601030 0.796770 0.297540 -0.532612
O5    O     O_R   0.101030 0.703230 0.297540 -0.532770
O6    O     O_R   0.898970 0.296770 0.702460 -0.532612
O7    O     O_R   0.898970 0.296770 0.797540 -0.532770
O8    O     O_R   0.101030 0.703230 0.202460 -0.532612
O9    O     O_R   0.271290 0.802910 0.297210 -0.546996
O10   O     O_R   0.728710 0.197090 0.702790 -0.513958
O11   O     O_R   0.728710 0.197090 0.797210 -0.546996
O12   O     O_R   0.271290 0.802910 0.202790 -0.513958
O13   O     O_R   0.771290 0.697090 0.202790 -0.546996
O14   O     O_R   0.228710 0.302910 0.797210 -0.513958
O15   O     O_R   0.228710 0.302910 0.702790 -0.546996
O16   O     O_R   0.771290 0.697090 0.297210 -0.513958
C1    C     C_R   0.440055 0.816343 0.311869 0.683884
C2    C     C_R   0.560299 0.184131 0.687617 0.699707
C3    C     C_R   0.559945 0.183657 0.811869 0.683885
C4    C     C_R   0.439701 0.815869 0.187617 0.699708
C5    C     C_R   0.940055 0.683657 0.188131 0.683885
C6    C     C_R   0.060299 0.315869 0.812383 0.699707
C7    C     C_R   0.059945 0.316343 0.688131 0.683885
C8    C     C_R   0.939701 0.684131 0.312383 0.699707
O17   O     O_3   0.434520 0.717290 0.250000 -0.360832
O18   O     O_3   0.565480 0.282710 0.750000 -0.360832
O19   O     O_3   0.934520 0.782710 0.250000 -0.360832
O20   O     O_3   0.065480 0.217290 0.750000 -0.360832
V1    V     V_3+5 0.159680 0.756060 0.250000 1.555034
V2    V     V_3+5 0.840320 0.243940 0.750000 1.555034
V3    V     V_3+5 0.659680 0.743940 0.250000 1.555034
V4    V     V_3+5 0.340320 0.256060 0.750000 1.555034
C9    C     C_R   0.900184 0.353449 0.618758 -0.145982
C10   C     C_R   0.104010 0.647382 0.381341 -0.170977
C11   C     C_R   0.099816 0.646551 0.118758 -0.145982
C12   C     C_R   0.895989 0.352618 0.881341 -0.170978
C13   C     C_R   0.400184 0.146551 0.881242 -0.145983
C14   C     C_R   0.604011 0.852618 0.118659 -0.170978
C15   C     C_R   0.599816 0.853449 0.381242 -0.145983
C16   C     C_R   0.395990 0.147382 0.618659 -0.170978
H1    H     H_    0.796536 0.323529 0.622457 0.178867
H2    H     H_    0.207006 0.677376 0.377115 0.196786
H3    H     H_    0.203465 0.676471 0.122457 0.178867
H4    H     H_    0.792992 0.322624 0.877115 0.196787
H5    H     H_    0.296536 0.176471 0.877543 0.178867
H6    H     H_    0.707007 0.822624 0.122885 0.196787
H7    H     H_    0.703464 0.823529 0.377543 0.178867
H8    H     H_    0.292993 0.177376 0.622885 0.196787
C17   C     C_R   0.882910 0.388455 0.581867 0.419426
C18   C     C_R   0.127228 0.611598 0.417463 0.479505
C19   C     C_R   0.117090 0.611545 0.081867 0.419427
C20   C     C_R   0.872771 0.388402 0.917463 0.479504
C21   C     C_R   0.382911 0.111545 0.918133 0.419427
C22   C     C_R   0.627229 0.888402 0.082537 0.479506
C23   C     C_R   0.617089 0.888455 0.418133 0.419427
C24   C     C_R   0.372771 0.111598 0.582537 0.479506
C25   C     C_R   0.020701 0.426473 0.575521 -0.096894
C26   C     C_R   0.992406 0.572777 0.423939 -0.078228
C27   C     C_R   0.979299 0.573527 0.075521 -0.096894
C28   C     C_R   0.007593 0.427223 0.923939 -0.078228
C29   C     C_R   0.520701 0.073526 0.924479 -0.096893
C30   C     C_R   0.492407 0.927223 0.076061 -0.078229
C31   C     C_R   0.479299 0.926473 0.424479 -0.096893
C32   C     C_R   0.507594 0.072777 0.576061 -0.078229
C33   C     C_R   0.167503 0.429976 0.607556 -0.090303
C34   C     C_R   0.841742 0.569623 0.393048 -0.171935
C35   C     C_R   0.832496 0.570024 0.107556 -0.090302
C36   C     C_R   0.158258 0.430377 0.893048 -0.171935
C37   C     C_R   0.667503 0.070024 0.892443 -0.090306
C38   C     C_R   0.341742 0.930377 0.106952 -0.171936
C39   C     C_R   0.332497 0.929976 0.392443 -0.090306
C40   C     C_R   0.658259 0.069623 0.606952 -0.171936
H9    H     H_    0.269271 0.460336 0.603258 0.166408
H10   H     H_    0.739600 0.539364 0.397697 0.174311
H11   H     H_    0.730728 0.539664 0.103258 0.166408
H12   H     H_    0.260401 0.460635 0.897697 0.174313
H13   H     H_    0.769271 0.039664 0.896741 0.166408
H14   H     H_    0.239599 0.960635 0.102303 0.174313
H15   H     H_    0.230728 0.960336 0.396742 0.166408
H16   H     H_    0.760401 0.039364 0.602303 0.174313
C41   C     C_R   0.182575 0.395935 0.645464 0.002824
C42   C     C_R   0.817696 0.605402 0.357000 0.016708
C43   C     C_R   0.817425 0.604066 0.145464 0.002823
C44   C     C_R   0.182305 0.394598 0.857000 0.016708
C45   C     C_R   0.682574 0.104065 0.854536 0.002823
C46   C     C_R   0.317696 0.894598 0.143000 0.016707
C47   C     C_R   0.317425 0.895934 0.354536 0.002823
C48   C     C_R   0.682305 0.105402 0.643000 0.016707
C49   C     C_R   0.049005 0.356047 0.650655 -0.193750
C50   C     C_R   0.950552 0.645331 0.350744 -0.157896
C51   C     C_R   0.950995 0.643953 0.150655 -0.193750
C52   C     C_R   0.049447 0.354669 0.850744 -0.157897
C53   C     C_R   0.549005 0.143953 0.849345 -0.193749
C54   C     C_R   0.450552 0.854669 0.149255 -0.157896
C55   C     C_R   0.450995 0.856047 0.349345 -0.193750
C56   C     C_R   0.549448 0.145331 0.649255 -0.157896
C57   C     C_R   0.041165 0.447675 0.490415 0.037065
C58   C     C_R   0.975229 0.551461 0.508939 -0.001369
C59   C     C_R   0.958837 0.552325 0.990415 0.037065
C60   C     C_R   0.024767 0.448539 0.008939 -0.001372
C61   C     C_R   0.541168 0.052325 0.009584 0.037063
C62   C     C_R   0.475227 0.948539 0.991061 -0.001370
C63   C     C_R   0.458831 0.947675 0.509584 0.037063
C64   C     C_R   0.524775 0.051461 0.491061 -0.001369
H17   H     H_    0.068209 0.407665 0.482843 0.164506
H18   H     H_    0.946560 0.591383 0.516502 0.163625
H19   H     H_    0.931796 0.592336 0.982843 0.164506
H20   H     H_    0.053435 0.408616 0.016502 0.163626
H21   H     H_    0.568214 0.092335 0.017156 0.164506
H22   H     H_    0.446555 0.908617 0.983498 0.163625
H23   H     H_    0.431783 0.907665 0.517156 0.164506
H24   H     H_    0.553448 0.091383 0.483498 0.163625
C65   C     C_R   0.034602 0.483130 0.453782 -0.108545
C66   C     C_R   0.982252 0.516058 0.545561 -0.166428
C67   C     C_R   0.965400 0.516870 0.953782 -0.108544
C68   C     C_R   0.017745 0.483942 0.045561 -0.166431
C69   C     C_R   0.534605 0.016870 0.046218 -0.108543
C70   C     C_R   0.482250 0.983942 0.954439 -0.166428
C71   C     C_R   0.465394 0.983130 0.546218 -0.108543
C72   C     C_R   0.517752 0.016057 0.454439 -0.166428
H25   H     H_    0.055358 0.469951 0.418397 0.127885
H26   H     H_    0.960657 0.529230 0.580918 0.131929
H27   H     H_    0.944647 0.530049 0.918397 0.127884
H28   H     H_    0.039338 0.470770 0.080918 0.131929
H29   H     H_    0.555363 0.030048 0.081603 0.127885
H30   H     H_    0.460652 0.970770 0.919082 0.131929
H31   H     H_    0.444635 0.969952 0.581603 0.127886
H32   H     H_    0.539350 0.029230 0.419082 0.131929
C73   C     C_R   0.002936 0.535356 0.462810 0.140859
C74   C     C_R   0.013713 0.463828 0.536553 0.108516
C75   C     C_R   0.997062 0.464644 0.962810 0.140860
C76   C     C_R   0.986286 0.536172 0.036553 0.108516
C77   C     C_R   0.502937 0.964644 0.037190 0.140859
C78   C     C_R   0.513714 0.036172 0.963447 0.108516
C79   C     C_R   0.497063 0.035356 0.537190 0.140859
C80   C     C_R   0.486286 0.963828 0.463447 0.108516
S1    S     S_3+6 0.684575 0.384295 0.545257 0.043934
O21   O     O_2   0.738235 0.357147 0.501111 -0.287189
O22   O     O_2   0.531786 0.354502 0.568738 -0.316440
O23   O     O_3   0.604929 0.443141 0.531789 -0.473586
H33   H     H_    0.584964 0.460268 0.562166 0.335228
S2    S     S_3+6 0.329294 0.615503 0.452809 0.008421
O24   O     O_2   0.408987 0.562773 0.460167 -0.337747
O25   O     O_2   0.473845 0.648996 0.430209 -0.308162
O26   O     O_3   0.271278 0.640917 0.504607 -0.498014
H34   H     H_    0.385121 0.637810 0.523896 0.375941
S3    S     S_3+6 0.315425 0.615705 0.045257 0.043933
O27   O     O_2   0.261766 0.642853 0.001112 -0.287189
O28   O     O_2   0.468215 0.645497 0.068739 -0.316440
O29   O     O_3   0.395070 0.556859 0.031788 -0.473586
H35   H     H_    0.415036 0.539732 0.062165 0.335228
S4    S     S_3+6 0.670702 0.384498 0.952808 0.008422
O30   O     O_2   0.591007 0.437229 0.960163 -0.337750
O31   O     O_2   0.526154 0.351003 0.930209 -0.308160
O32   O     O_3   0.728716 0.359087 0.004608 -0.498015
H36   H     H_    0.614875 0.362196 0.023897 0.375939
S5    S     S_3+6 0.184577 0.115706 0.954743 0.043934
O33   O     O_2   0.238239 0.142852 0.998889 -0.287188
O34   O     O_2   0.031788 0.145499 0.931262 -0.316440
O35   O     O_3   0.104929 0.056859 0.968211 -0.473587
H37   H     H_    0.084962 0.039733 0.937834 0.335228
S6    S     S_3+6 0.829295 0.884498 0.047191 0.008421
O36   O     O_2   0.908991 0.937228 0.039835 -0.337748
O37   O     O_2   0.973844 0.851003 0.069790 -0.308162
O38   O     O_3   0.771279 0.859086 0.995392 -0.498015
H38   H     H_    0.885123 0.862193 0.976103 0.375941
S7    S     S_3+6 0.815423 0.884294 0.454743 0.043935
O39   O     O_2   0.761762 0.857148 0.498889 -0.287188
O40   O     O_2   0.968213 0.854502 0.431262 -0.316440
O41   O     O_3   0.895071 0.943141 0.468211 -0.473587
H39   H     H_    0.915037 0.960267 0.437834 0.335228
S8    S     S_3+6 0.170705 0.115502 0.547191 0.008422
O42   O     O_2   0.091009 0.062772 0.539835 -0.337748
O43   O     O_2   0.026157 0.148997 0.569790 -0.308161
O44   O     O_3   0.228722 0.140913 0.495392 -0.498015
H40   H     H_    0.114878 0.137807 0.476103 0.375941
C81   C     C_2   0.332358 0.404973 0.680210 0.417652
H41   H     H_    0.319398 0.390782 0.715521 0.037768
O45   O     O_2   0.471652 0.429414 0.669964 -0.529648
C82   C     C_2   0.656106 0.597467 0.326000 0.431285
H42   H     H_    0.643440 0.561794 0.306788 0.015150
O46   O     O_2   0.529620 0.628692 0.324360 -0.492960
C83   C     C_2   0.667642 0.595027 0.180210 0.417652
H43   H     H_    0.680602 0.609218 0.215521 0.037768
O47   O     O_2   0.528347 0.570586 0.169964 -0.529648
C84   C     C_2   0.343896 0.402533 0.826001 0.431288
H44   H     H_    0.356562 0.438206 0.806788 0.015149
O48   O     O_2   0.470380 0.371307 0.824360 -0.492960
C85   C     C_2   0.832357 0.095027 0.819790 0.417651
H45   H     H_    0.819396 0.109218 0.784478 0.037768
O49   O     O_2   0.971651 0.070586 0.830036 -0.529649
C86   C     C_2   0.156104 0.902532 0.173999 0.431287
H46   H     H_    0.143438 0.938206 0.193212 0.015150
O50   O     O_2   0.029620 0.871307 0.175640 -0.492960
C87   C     C_2   0.167642 0.904973 0.319790 0.417651
H47   H     H_    0.180602 0.890782 0.284479 0.037768
O51   O     O_2   0.028348 0.929414 0.330036 -0.529648
C88   C     C_2   0.843896 0.097467 0.673999 0.431286
H48   H     H_    0.856562 0.061794 0.693212 0.015150
O52   O     O_2   0.970381 0.128693 0.675639 -0.492960

loop_
_geom_bond_atom_site_label_1
_geom_bond_atom_site_label_2
_ccdc_geom_bond_type
O17   V3    S    
C48   C56   A    
O18   V4    S    
O38   H38   S    
C64   C79   A    
C17   S1    S    
O12   V1    S    
O19   V1    S    
C2    C56   S    
O16   C8    A    
C37   H13   S    
S3    O27   D    
C10   H2    S    
C23   S7    S    
C63   C80   A    
C69   C77   A    
C39   H15   S    
O26   H34   S    
C60   C75   A    
C17   C25   A    
O15   V4    S    
S7    O40   D    
S4    O31   D    
C67   C75   A    
C61   C78   A    
S8    O42   D    
O16   V3    S    
C35   C43   A    
S1    O22   D    
O11   C3    A    
S5    O33   D    
C41   C81   S    
C65   C73   A    
C59   C76   A    
O8    V1    S    
C30   C77   S    
C63   H23   S    
S3    O28   D    
C57   C74   A    
C83   O47   D    
C59   C67   A    
C58   C66   A    
C38   H14   S    
O41   H39   S    
C26   C73   S    
C9    C17   A    
C34   H10   S    
O1    V3    S    
C33   H9    S    
C30   C38   A    
O3    C2    A    
O2    V4    S    
C3    C53   S    
C58   H18   S    
C48   C88   S    
C85   O49   D    
C61   C69   A    
C46   C54   A    
C27   C35   A    
C44   C84   S    
C26   C34   A    
C15   C23   A    
O11   V2    S    
C82   O46   D    
C81   O45   D    
C23   C31   A    
C7    C49   S    
C88   H48   S    
C1    C55   S    
C11   H3    S    
O5    V1    S    
C12   C20   A    
S8    O44   S    
O9    V1    S    
C13   C21   A    
C12   C52   A    
O15   C7    A    
C32   C79   S    
C14   C22   A    
S5    O34   D    
O7    V2    S    
C24   S8    S    
C66   C74   A    
S2    O26   S    
C14   C54   A    
C62   C70   A    
C85   H45   S    
C21   C29   A    
C16   C56   A    
C28   C75   S    
C40   C48   A    
S8    O43   D    
C29   C78   S    
S7    O41   S    
S6    O37   D    
C19   C27   A    
S1    O23   S    
C27   C76   S    
C10   C18   A    
C67   H27   S    
C13   C53   A    
C36   C44   A    
C25   C74   S    
S3    O29   S    
O23   H33   S    
O14   V4    S    
S7    O39   D    
C64   H24   S    
C22   C30   A    
C16   C24   A    
C71   C79   A    
C47   C55   A    
C72   C80   A    
C86   O50   D    
C83   H43   S    
C10   C50   A    
C9    C49   A    
C34   C42   A    
S6    O38   S    
C13   H5    S    
O10   V2    S    
C33   C41   A    
O44   H40   S    
C68   C76   A    
S4    O32   S    
C19   S3    S    
C20   S4    S    
O12   C4    A    
C24   C32   A    
O8    C5    A    
C18   C26   A    
O13   C5    A    
C22   S6    S    
C15   C55   A    
C45   C85   S    
C39   C47   A    
O4    C1    A    
O9    C1    A    
O6    V2    S    
C31   C39   A    
S5    O35   S    
C11   C19   A    
S2    O25   D    
C62   H22   S    
C35   H11   S    
C84   O48   D    
C43   C51   A    
C38   C46   A    
C37   C45   A    
C82   H42   S    
C15   H7    S    
S6    O36   D    
C5    C51   S    
C29   C37   A    
C16   H8    S    
C4    C54   S    
C43   C83   S    
O1    C4    A    
C68   H28   S    
O2    C3    A    
O29   H35   S    
C46   C86   S    
C57   H17   S    
O13   V3    S    
C63   C71   A    
C25   C33   A    
C70   C78   A    
C72   H32   S    
C70   H30   S    
C36   H12   S    
O7    C6    A    
C59   H19   S    
S1    O21   D    
C21   S5    S    
C42   C50   A    
C8    C50   S    
C9    H1    S    
C60   C68   A    
O14   C6    A    
O20   V2    S    
C62   C77   A    
C41   C49   A    
C40   H16   S    
C86   H46   S    
O5    C8    A    
C69   H29   S    
C57   C65   A    
O10   C2    A    
O6    C7    A    
C58   C73   A    
C32   C40   A    
O3    V4    S    
O35   H37   S    
C14   H6    S    
O4    V3    S    
C12   H4    S    
C47   C87   S    
C87   H47   S    
C66   H26   S    
C60   H20   S    
C45   C53   A    
C65   H25   S    
S4    O30   D    
C28   C36   A    
C20   C28   A    
C81   H41   S    
C42   C82   S    
O32   H36   S    
C6    C52   S    
S2    O24   D    
C31   C80   S    
C88   O52   D    
C44   C52   A    
C87   O51   D    
C84   H44   S    
C61   H21   S    
C18   S2    S    
C11   C51   A    
C64   C72   A    
C71   H31   S    
