data_mof_unit_pretest_261.cif
_audit_creation_date              2012-12-10T17:24:13-0500
_audit_creation_method            fapswitch 2.2
_symmetry_space_group_name_H-M    P1
_symmetry_Int_Tables_number       1
_space_group_crystal_system       triclinic
_cell_length_a                    19.370289
_cell_length_b                    10.848113
_cell_length_c                    9.60392
_cell_angle_alpha                 90.447216
_cell_angle_beta                  89.803836
_cell_angle_gamma                 94.472692
_cell_volume                      2011.86697485

loop_
_atom_site_label
_atom_site_type_symbol
_atom_type_description
_atom_site_fract_x
_atom_site_fract_y
_atom_site_fract_z
_atom_type_partial_charge
C1    C     C_R   0.504426 0.262995 0.500240 0.790772
C2    C     C_R   0.291515 0.497437 0.500069 -0.027559
C3    C     C_R   0.929615 0.487154 0.493135 0.434810
C4    C     C_R   0.069886 0.489824 0.497125 0.399259
C5    C     C_R   0.816493 0.476975 0.618172 -0.239604
C6    C     C_R   0.744695 0.478654 0.621208 -0.213231
C7    C     C_R   0.707916 0.491914 0.497653 -0.095602
C8    C     C_R   0.743904 0.500099 0.370883 -0.279425
C9    C     C_R   0.815904 0.495399 0.366021 0.475666
C10   C     C_R   0.853158 0.486702 0.491543 -0.039149
C11   C     C_R   0.544581 0.122866 0.751960 -0.156764
C12   C     C_R   0.367534 0.499095 0.500188 0.774065
C13   C     C_R   0.538653 0.063846 0.880236 -0.157990
C14   C     C_R   0.504035 0.947246 0.889276 -0.149240
C15   C     C_R   0.481380 0.884977 0.768385 -0.102378
C16   C     C_R   0.494058 0.938333 0.635318 0.100744
C17   C     C_R   0.515936 0.065112 0.629943 0.081528
C18   C     C_R   0.508299 0.128775 0.502845 -0.118152
C19   C     C_R   0.494674 0.061827 0.379516 -0.206737
C20   C     C_R   0.487612 0.934109 0.381126 -0.219510
C21   C     C_R   0.487947 0.870576 0.507449 -0.133713
C22   C     C_R   0.600200 0.646635 0.151699 -0.153423
C23   C     C_R   0.493768 0.736519 0.501623 0.828890
C24   C     C_R   0.661550 0.689693 0.092637 -0.290193
C25   C     C_R   0.669216 0.682376 0.951797 -0.319079
C26   C     C_R   0.611509 0.647230 0.865198 0.485715
C27   C     C_R   0.552705 0.572698 0.926664 0.097684
C28   C     C_R   0.550259 0.572626 0.076826 0.158689
C29   C     C_R   0.452065 0.430682 0.073333 -0.063170
C30   C     C_R   0.451790 0.431278 0.925692 -0.072788
C31   C     C_R   0.632258 0.496937 0.499592 0.820653
C32   C     C_R   0.254521 0.500984 0.625837 -0.191068
C33   C     C_R   0.182439 0.498585 0.625097 -0.155640
C34   C     C_R   0.146079 0.492347 0.498578 0.062250
C35   C     C_R   0.183218 0.488841 0.372928 -0.157616
C36   C     C_R   0.255188 0.491469 0.373665 -0.186644
Cu1   Cu    Cu3+1 0.500000 0.499990 0.640660 0.963831
Cu2   Cu    Cu3+1 0.500000 0.500010 0.359340 0.929845
H1    H     H_    0.281180 0.505592 0.724910 0.148248
H2    H     H_    0.573328 0.212275 0.749603 0.157834
H3    H     H_    0.559311 0.110062 0.973170 0.137139
H4    H     H_    0.495904 0.903829 0.989769 0.129533
H5    H     H_    0.452263 0.796997 0.782142 0.153594
H6    H     H_    0.481643 0.885039 0.282682 0.164546
H7    H     H_    0.412766 0.373454 0.128092 0.132315
H8    H     H_    0.595895 0.670133 0.258077 0.210857
H9    H     H_    0.702584 0.733962 0.156241 0.185254
H10   H     H_    0.718714 0.720395 0.913213 0.147362
H11   H     H_    0.155304 0.501381 0.723691 0.153224
H12   H     H_    0.412287 0.374634 0.870337 0.139474
H13   H     H_    0.156796 0.484196 0.273633 0.153529
H14   H     H_    0.282274 0.488460 0.274993 0.149290
H15   H     H_    0.843393 0.467981 0.715609 0.174718
H16   H     H_    0.718145 0.471011 0.720582 0.162581
H17   H     H_    0.716347 0.510963 0.274670 0.178635
H18   H     H_    0.489891 0.108091 0.280838 0.163911
N1    N     N_R   0.034783 0.479029 0.375120 -0.244153
N2    N     N_R   0.966120 0.477640 0.373271 -0.184012
N3    N     N_R   0.964784 0.497439 0.615305 -0.246509
N4    N     N_R   0.033508 0.498762 0.617306 -0.240367
N5    N     N_R   0.500660 0.501210 0.147910 -0.187290
N6    N     N_R   0.500680 0.501290 0.852040 -0.194507
O1    O     O_R   0.499990 0.319640 0.618810 -0.590313
O2    O     O_R   0.500000 0.319660 0.381240 -0.579154
O3    O     O_R   0.400140 0.499970 0.618820 -0.592762
O4    O     O_R   0.400150 0.500000 0.381250 -0.584170
O5    O     O_R   0.500000 0.680340 0.618760 -0.523161
O6    O     O_R   0.500010 0.680360 0.381190 -0.613217
O7    O     O_R   0.599850 0.500000 0.618750 -0.542287
O8    O     O_R   0.599860 0.500030 0.381180 -0.608595
O9    O     O_3   0.608438 0.698292 0.732143 -0.529154
C37   C     C_3   0.668338 0.773304 0.689293 0.059676
H19   H     H_    0.714177 0.717817 0.685969 0.147529
H20   H     H_    0.677669 0.854841 0.759807 0.151650
C38   C     C_3   0.660289 0.823108 0.543176 -0.794080
H21   H     H_    0.625567 0.899265 0.544412 0.240392
H22   H     H_    0.711498 0.861149 0.503794 0.201633
H23   H     H_    0.640150 0.748882 0.471337 0.234126
O10   O     O_3   0.850117 0.510260 0.239713 -0.571070
C39   C     C_3   0.834875 0.405786 0.152343 0.093604
H24   H     H_    0.800508 0.329783 0.199858 0.113879
H25   H     H_    0.884398 0.365816 0.126024 0.181897
C40   C     C_3   0.802225 0.445745 0.017671 -0.828499
H26   H     H_    0.835585 0.521474 0.968897 0.263877
H27   H     H_    0.796157 0.366164 0.944146 0.201187
H28   H     H_    0.750403 0.478554 0.038799 0.246080

loop_
_geom_bond_atom_site_label_1
_geom_bond_atom_site_label_2
_ccdc_geom_bond_type
C19   H18   S    
C8    C9    A    
Cu2   O8    S    
C16   C21   A    
Cu1   O7    S    
C35   C36   A    
C2    C12   S    
C13   H3    S    
Cu1   N6    S    
C7    C8    A    
C1    C18   S    
Cu1   Cu2   S    
C5    H15   S    
C18   C19   A    
C39   C40   S    
C5    C6    A    
C33   H11   S    
C15   C16   A    
C2    C32   A    
C34   C35   A    
C9    O10   S    
C32   H1    S    
C23   O5    A    
C20   H6    S    
C31   O8    A    
Cu2   O4    S    
C16   C17   A    
Cu1   O3    S    
C4    N1    A    
C9    C10   A    
C36   H14   S    
C14   H4    S    
Cu2   N5    S    
C28   N5    A    
C30   H12   S    
N3    N4    A    
C22   C28   A    
C13   C14   A    
C26   O9    S    
C6    H16   S    
C37   C38   S    
C1    O1    A    
C8    H17   S    
Cu1   O1    S    
C33   C34   A    
Cu2   O2    S    
C29   N5    A    
C7    C31   S    
C24   C25   A    
C37   H20   S    
C37   H19   S    
C25   C26   A    
C12   O4    A    
C29   H7    S    
C23   O6    A    
C38   H21   S    
C29   C30   A    
C27   N6    A    
C40   H26   S    
C4    N4    A    
C17   C18   A    
C26   C27   A    
C38   H22   S    
C25   H10   S    
C39   H25   S    
C40   H27   S    
Cu2   O6    S    
C30   N6    A    
C35   H13   S    
C22   C24   A    
C1    O2    A    
C2    C36   A    
C11   C17   A    
C22   H8    S    
C24   H9    S    
C39   H24   S    
C6    C7    A    
C12   O3    A    
C32   C33   A    
C19   C20   A    
C21   C23   S    
C15   H5    S    
C5    C10   A    
C3    C10   S    
C11   C13   A    
N1    N2    A    
Cu1   O5    S    
C4    C34   S    
C11   H2    S    
C38   H23   S    
O10   C39   S    
C3    N2    A    
C31   O7    A    
C40   H28   S    
O9    C37   S    
C20   C21   A    
C27   C28   A    
C14   C15   A    
C3    N3    A    
