data_mof_unit_pretest_174.cif
_audit_creation_date              2012-10-26T20:31:25-0400
_audit_creation_method            fapswitch 2.2
_symmetry_space_group_name_H-M    P1
_symmetry_Int_Tables_number       1
_space_group_crystal_system       triclinic
_cell_length_a                    11.68231
_cell_length_b                    10.872444
_cell_length_c                    9.586462
_cell_angle_alpha                 88.71031
_cell_angle_beta                  89.393458
_cell_angle_gamma                 90.829294
_cell_volume                      1217.11849575

loop_
_atom_site_label
_atom_site_type_symbol
_atom_type_description
_atom_site_fract_x
_atom_site_fract_y
_atom_site_fract_z
_atom_type_partial_charge
C1    C     C_R   0.498540 0.262866 0.501340 0.541350
C2    C     C_R   0.409145 0.455662 0.077689 -0.021694
C3    C     C_R   0.407915 0.456195 0.928753 0.311896
C4    C     C_R   0.284122 0.500058 0.500595 0.535722
C5    C     C_R   0.596354 0.531753 0.923571 0.097035
C6    C     C_3   0.660573 0.649436 0.906218 -0.264685
C7    C     C_3   0.656350 0.657660 0.064340 -0.141950
C8    C     C_R   0.501673 0.737242 0.498777 0.565898
C9    C     C_R   0.715884 0.500204 0.499452 0.539902
C10   C     C_1   0.162434 0.500505 0.501512 -0.038595
C11   C     C_1   0.059913 0.500846 0.500856 -0.061375
C12   C     C_R   0.500127 0.130347 0.501650 -0.043011
C13   C     C_1   0.940137 0.500936 0.499375 -0.059677
C14   C     C_1   0.837605 0.500676 0.498647 -0.042704
C15   C     C_R   0.455746 0.057671 0.610823 -0.008595
C16   C     C_3   0.774787 0.659217 0.133480 -0.228106
C17   C     C_3   0.847893 0.771634 0.086720 -0.306967
C18   C     C_3   0.956610 0.781430 0.172988 -0.451096
C19   C     C_3   0.289607 0.837912 0.744160 -0.251689
C20   C     C_3   0.269723 0.766327 0.882331 -0.292512
C21   C     C_3   0.159139 0.690020 0.879882 -0.436746
C22   C     C_3   0.281050 0.123279 0.739571 -0.229545
C23   C     C_R   0.548277 0.070089 0.387201 -0.154902
C24   C     C_3   0.209601 0.117978 0.875282 -0.302475
C25   C     C_3   0.090913 0.171308 0.852366 -0.457841
C26   C     C_3   0.476198 0.116371 0.866819 -0.230355
C27   C     C_3   0.605548 0.090744 0.853683 -0.296762
C28   C     C_3   0.673659 0.162581 0.960503 -0.452416
C29   C     C_R   0.551183 0.940361 0.384277 0.213537
C30   C     C_R   0.502720 0.870216 0.496695 0.036937
C31   C     C_R   0.456201 0.933598 0.607418 -0.063738
C32   C     C_3   0.402171 0.915160 0.748508 -0.090215
C33   C     C_3   0.398970 0.059753 0.752266 0.028582
C34   C     C_R   0.596350 0.533922 0.070665 0.134590
Cu1   Cu    Cu3+1 0.499990 0.499980 0.640670 0.963267
Cu2   Cu    Cu3+1 0.500010 0.500020 0.359330 0.941474
H1    H     H_    0.586255 0.123739 0.301862 0.117063
H2    H     H_    0.872882 0.764306 0.975189 0.149840
H3    H     H_    0.798304 0.857201 0.098404 0.174798
H4    H     H_    0.761527 0.663619 0.247811 0.207123
H5    H     H_    0.821697 0.573574 0.110211 0.140788
H6    H     H_    0.631692 0.944139 0.205992 0.301859
H7    H     H_    0.084310 0.751075 0.867822 0.139857
H8    H     H_    0.161240 0.624742 0.792474 0.189051
H9    H     H_    0.149467 0.636294 0.979261 0.140151
H10   H     H_    0.342434 0.703580 0.900831 0.184670
H11   H     H_    0.265913 0.830404 0.970734 0.148480
H12   H     H_    0.610737 0.722202 0.852522 0.131020
H13   H     H_    0.213592 0.893244 0.719612 0.142603
H14   H     H_    0.295854 0.769566 0.660088 0.168509
H15   H     H_    0.097901 0.267847 0.812333 0.171937
H16   H     H_    0.042738 0.115456 0.776386 0.148575
H17   H     H_    0.042496 0.169959 0.952730 0.135566
H18   H     H_    0.199025 0.022071 0.914594 0.163243
H19   H     H_    0.253458 0.171089 0.957173 0.157572
H20   H     H_    0.296171 0.221416 0.709567 0.204362
H21   H     H_    0.231187 0.084601 0.652317 0.125482
H22   H     H_    0.664084 0.263089 0.941746 0.164351
H23   H     H_    0.599072 0.731594 0.098611 0.197995
H24   H     H_    0.643378 0.138216 0.067573 0.137446
H25   H     H_    0.765803 0.139904 0.951479 0.136247
H26   H     H_    0.621863 0.991188 0.870324 0.141580
H27   H     H_    0.638522 0.119045 0.748622 0.180695
H28   H     H_    0.465019 0.217438 0.865013 0.194320
H29   H     H_    0.445360 0.081167 0.970531 0.128623
H30   H     H_    0.251007 0.394597 0.929768 0.283103
H31   H     H_    0.465219 0.873942 0.821012 0.128943
H32   H     H_    0.335704 0.420599 0.136340 0.112523
H33   H     H_    0.746760 0.634042 0.860250 0.134512
H34   H     H_    0.934582 0.796694 0.284206 0.161989
H35   H     H_    0.006940 0.695933 0.165418 0.153791
H36   H     H_    0.010131 0.860168 0.133310 0.139811
N1    N     N_R   0.500710 0.500930 0.147930 -0.256064
N2    N     N_R   0.500710 0.500890 0.852020 -0.206623
O1    O     O_R   0.500000 0.319640 0.618810 -0.490043
O2    O     O_3   0.312934 0.413164 0.860682 -0.701242
O3    O     O_R   0.500010 0.319680 0.381230 -0.506487
O4    O     O_R   0.337190 0.499990 0.618790 -0.432891
O5    O     O_R   0.337200 0.500030 0.381210 -0.516479
O6    O     O_R   0.499990 0.680320 0.618770 -0.530629
O7    O     O_R   0.500000 0.680360 0.381190 -0.449052
O8    O     O_R   0.662800 0.499970 0.618790 -0.498651
O9    O     O_R   0.662810 0.500010 0.381210 -0.504598
O10   O     O_3   0.604829 0.881878 0.276455 -0.728261

loop_
_geom_bond_atom_site_label_1
_geom_bond_atom_site_label_2
_ccdc_geom_bond_type
C4    O5    A    
C18   H34   S    
C6    H33   S    
Cu1   N2    S    
C1    O3    A    
C19   C20   S    
C22   H21   S    
C24   H19   S    
C12   C23   A    
Cu1   O1    S    
C26   C27   S    
C6    H12   S    
C23   C29   A    
C25   H17   S    
C2    H32   S    
Cu2   O3    S    
C5    C6    S    
Cu2   O9    S    
C24   H18   S    
Cu1   O6    S    
C17   H3    S    
C5    N2    A    
C3    N2    A    
C26   H28   S    
C21   H7    S    
Cu1   Cu2   S    
C16   C17   S    
C9    O8    A    
C28   H25   S    
C13   C14   T    
C1    C12   S    
C19   C32   S    
C7    H23   S    
Cu1   O8    S    
C21   H9    S    
C28   H24   S    
C18   H36   S    
C8    O7    A    
C1    O1    A    
H6    O10   S    
C24   C25   S    
C29   O10   S    
C10   C11   T    
C22   H20   S    
C23   H1    S    
C9    C14   S    
C25   H15   S    
C4    O4    A    
C29   C30   A    
C27   H26   S    
C21   H8    S    
C19   H13   S    
C26   C33   S    
C31   C32   S    
C12   C15   A    
Cu2   O7    S    
H30   O2    S    
C5    C34   A    
C17   C18   S    
C3    O2    S    
C2    N1    A    
C27   H27   S    
C16   H4    S    
C32   H31   S    
C7    C16   S    
C9    O9    A    
C7    C34   S    
C22   C24   S    
C4    C10   S    
C18   H35   S    
C22   C33   S    
C26   H29   S    
Cu2   O5    S    
C15   C31   A    
C6    C7    S    
C28   H22   S    
Cu1   O4    S    
C8    C30   S    
C32   C33   S    
C2    C3    A    
C25   H16   S    
C11   C13   S    
C19   H14   S    
C30   C31   A    
C17   H2    S    
C20   H11   S    
Cu2   N1    S    
C34   N1    A    
C20   C21   S    
C27   C28   S    
C8    O6    A    
C16   H5    S    
C15   C33   S    
C20   H10   S    
