data_mof_unit_pretest_1194.cif
_audit_creation_date              2012-12-10T20:25:40-0500
_audit_creation_method            fapswitch 2.2
_symmetry_space_group_name_H-M    P1
_symmetry_Int_Tables_number       1
_space_group_crystal_system       triclinic
_cell_length_a                    8.593188
_cell_length_b                    10.672593
_cell_length_c                    9.886532
_cell_angle_alpha                 89.994875
_cell_angle_beta                  98.231398
_cell_angle_gamma                 90.255726
_cell_volume                      897.359579255

loop_
_atom_site_label
_atom_site_type_symbol
_atom_type_description
_atom_site_fract_x
_atom_site_fract_y
_atom_site_fract_z
_atom_type_partial_charge
C1    C     C_R   0.505554 0.259991 0.500809 0.894539
C2    C     C_R   0.566993 0.935382 0.388907 -0.205847
C3    C     C_R   0.532030 0.871362 0.504849 -0.102527
C4    C     C_R   0.528810 0.935919 0.626632 0.130608
C5    C     C_3   0.414495 0.927900 0.726922 -0.435880
C6    C     C_3   0.414868 0.069872 0.727504 -0.490634
C7    C     C_R   0.363323 0.482976 0.053892 0.128323
C8    C     C_R   0.632712 0.527373 0.088326 -0.141417
C9    C     C_R   0.632808 0.527094 0.944648 -0.143563
C10   C     C_R   0.362972 0.484424 0.911597 0.290742
C11   C     C_3   0.253506 0.375033 0.890443 -0.564483
C12   C     C_R   0.201440 0.501913 0.464674 1.016718
C13   C     C_3   0.253370 0.372978 0.044343 -0.272163
C14   C     C_R   0.505473 0.739983 0.500666 0.880192
C15   C     C_R   0.798252 0.504435 0.535361 0.846555
C16   C     C_2   0.036595 0.498562 0.446748 -0.527055
C17   C     C_2   0.961791 0.520669 0.553332 0.425369
C18   C     C_R   0.529003 0.063690 0.626906 0.126767
C19   C     C_R   0.532276 0.128681 0.505202 -0.093635
C20   C     C_R   0.567608 0.065076 0.389274 -0.171114
H1    H     H_    0.976690 0.470602 0.346755 0.146319
H2    H     H_    0.740779 0.547121 0.904408 0.179850
H3    H     H_    0.137066 0.399874 0.833716 0.263352
H4    H     H_    0.308739 0.292754 0.848256 0.188867
H5    H     H_    0.137292 0.397305 0.074501 0.188398
H6    H     H_    0.584708 0.114319 0.296775 0.167611
H7    H     H_    0.582900 0.886414 0.295921 0.175174
H8    H     H_    0.299583 0.886421 0.682224 0.219163
H9    H     H_    0.468067 0.886600 0.825878 0.210211
H10   H     H_    0.300015 0.111002 0.683426 0.208850
H11   H     H_    0.469191 0.110187 0.826903 0.198695
H12   H     H_    0.740576 0.547871 0.155311 0.158687
N1    N     N_R   0.498950 0.499140 0.142680 -0.119698
N2    N     N_R   0.498950 0.499180 0.857030 -0.116917
O1    O     O_R   0.500020 0.316790 0.614690 -0.630751
O2    O     O_R   0.500000 0.316760 0.385350 -0.611588
O3    O     O_R   0.271760 0.500010 0.587850 -0.547258
O4    O     O_R   0.271740 0.499970 0.358500 -0.623451
O5    O     O_R   0.500000 0.683240 0.614650 -0.611548
O6    O     O_R   0.499980 0.683210 0.385310 -0.621245
O7    O     O_R   0.728260 0.500030 0.641500 -0.598225
O8    O     O_R   0.728240 0.499990 0.412150 -0.665331
Zn1   Zn    Zn3+2 0.500010 0.500020 0.653130 0.982706
Zn2   Zn    Zn3+2 0.499990 0.499980 0.346870 0.952406
C21   C     C_2   0.324685 0.255632 0.109817 0.535734
H13   H     H_    0.440530 0.225743 0.091641 0.030961
O9    O     O_2   0.252008 0.192634 0.182875 -0.578234
F1    F     F_    0.033615 0.565229 0.675855 -0.674231

loop_
_geom_bond_atom_site_label_1
_geom_bond_atom_site_label_2
_ccdc_geom_bond_type
O3    Zn1   S    
C7    C10   A    
O4    Zn2   S    
C16   H1    S    
C5    H8    S    
O7    Zn1   S    
C15   O8    A    
C19   C20   A    
C17   F1    S    
C7    C13   S    
C4    C18   A    
C2    C3    A    
C10   N2    A    
C21   H13   S    
C13   C21   S    
C11   C13   S    
C1    O1    A    
C2    H7    S    
C3    C14   S    
O8    Zn2   S    
C5    C6    S    
C11   H3    S    
C6    H10   S    
C6    H11   S    
C5    H9    S    
C8    N1    A    
C21   O9    D    
C12   O4    A    
C9    N2    A    
C6    C18   S    
C9    H2    S    
O2    Zn2   S    
C1    C19   S    
C10   C11   S    
C7    N1    A    
C14   O6    A    
C3    C4    A    
C8    H12   S    
C16   C17   D    
C11   H4    S    
O6    Zn2   S    
O1    Zn1   S    
C15   O7    A    
C13   H5    S    
C18   C19   A    
C12   O3    A    
C15   C17   S    
C8    C9    A    
O5    Zn1   S    
C14   O5    A    
N1    Zn2   S    
C2    C20   A    
N2    Zn1   S    
C12   C16   S    
C1    O2    A    
C4    C5    S    
C20   H6    S    
