data_mof_unit_pretest_1837.cif
_audit_creation_date              2012-12-10T17:48:19-0500
_audit_creation_method            fapswitch 2.2
_symmetry_space_group_name_H-M    P1
_symmetry_Int_Tables_number       1
_space_group_crystal_system       triclinic
_cell_length_a                    26.030409
_cell_length_b                    27.684941
_cell_length_c                    27.685098
_cell_angle_alpha                 89.976941
_cell_angle_beta                  90.017468
_cell_angle_gamma                 90.063057
_cell_volume                      19951.2605909

loop_
_atom_site_label
_atom_site_type_symbol
_atom_type_description
_atom_site_fract_x
_atom_site_fract_y
_atom_site_fract_z
_atom_type_partial_charge
C1    C     C_R   0.391576 0.000595 0.249846 0.546227
C2    C     C_R   0.891391 0.997226 0.246784 0.522754
C3    C     C_R   0.749978 0.999985 0.620803 0.505205
C4    C     C_R   0.749999 0.499990 0.379208 0.500016
C5    C     C_R   0.749988 0.500002 0.620789 0.504330
C6    C     C_R   0.250008 0.499984 0.379195 0.499635
C7    C     C_R   0.249983 0.499990 0.620803 0.503466
C8    C     C_R   0.750006 0.999985 0.879209 0.499727
C9    C     C_R   0.750029 0.999973 0.120792 0.494562
C10   C     C_R   0.250006 0.999983 0.879195 0.499636
C11   C     C_R   0.249973 0.999985 0.120803 0.504833
C12   C     C_R   0.249996 0.499991 0.879208 0.501417
C13   C     C_R   0.108507 0.999989 0.750387 0.533954
C14   C     C_R   0.249990 0.499999 0.120789 0.505320
C15   C     C_R   0.750006 0.499982 0.879195 0.496822
C16   C     C_R   0.749982 0.499988 0.120802 0.504956
C17   C     C_R   0.250043 0.129202 0.249981 0.497386
C18   C     C_R   0.249977 0.129200 0.749959 0.495623
C19   C     C_R   0.749974 0.129199 0.249953 0.502420
C20   C     C_R   0.750051 0.129203 0.749977 0.498188
C21   C     C_R   0.750047 0.629202 0.249980 0.498240
C22   C     C_R   0.749990 0.629201 0.749968 0.502016
C23   C     C_R   0.249981 0.629199 0.249962 0.495700
C24   C     C_R   0.108556 0.998656 0.248525 0.521955
C25   C     C_R   0.250057 0.629203 0.749972 0.495074
C26   C     C_R   0.249962 0.870769 0.249999 0.497583
C27   C     C_R   0.250040 0.870766 0.749960 0.497980
C28   C     C_R   0.750017 0.870765 0.249975 0.499041
C29   C     C_R   0.749949 0.870770 0.749991 0.495470
C30   C     C_R   0.749946 0.370770 0.249988 0.495469
C31   C     C_R   0.750037 0.370767 0.749963 0.497242
C32   C     C_R   0.250036 0.370766 0.249963 0.497812
C33   C     C_R   0.249944 0.370770 0.749988 0.496429
C34   C     C_1   0.249883 0.818980 0.249989 0.002447
C35   C     C_R   0.391621 0.501518 0.749229 0.533341
C36   C     C_1   0.250136 0.818981 0.749899 -0.003824
C37   C     C_1   0.750065 0.818978 0.249933 0.002584
C38   C     C_1   0.749854 0.818984 0.749980 -0.002618
C39   C     C_1   0.749837 0.318982 0.249963 -0.003251
C40   C     C_1   0.750123 0.318982 0.749908 -0.004093
C41   C     C_1   0.250113 0.318981 0.249912 -0.004715
C42   C     C_1   0.249833 0.318983 0.749965 -0.002826
C43   C     C_1   0.249859 0.775460 0.249958 -0.044287
C44   C     C_1   0.250214 0.775462 0.749885 -0.047988
C45   C     C_1   0.750121 0.775459 0.249926 -0.044758
C46   C     C_R   0.391580 0.499372 0.249844 0.546264
C47   C     C_1   0.749832 0.775465 0.749953 -0.046772
C48   C     C_1   0.749803 0.275462 0.249925 -0.047669
C49   C     C_1   0.750193 0.275463 0.749900 -0.048403
C50   C     C_1   0.250173 0.275461 0.249904 -0.049414
C51   C     C_1   0.249795 0.275463 0.749933 -0.047088
C52   C     C_1   0.249885 0.724503 0.249921 -0.046122
C53   C     C_1   0.250235 0.724506 0.749899 -0.047941
C54   C     C_1   0.750154 0.724503 0.249941 -0.047028
C55   C     C_1   0.749879 0.724509 0.749921 -0.045811
C56   C     C_1   0.749841 0.224505 0.249887 -0.047789
C57   C     C_R   0.608593 0.499384 0.750533 0.535757
C58   C     C_1   0.750211 0.224507 0.749916 -0.048421
C59   C     C_1   0.250184 0.224505 0.249921 -0.050010
C60   C     C_1   0.249833 0.224506 0.749898 -0.047196
C61   C     C_1   0.249937 0.680984 0.249913 -0.002406
C62   C     C_1   0.250177 0.680987 0.749928 -0.004237
C63   C     C_1   0.750128 0.680985 0.249959 -0.003430
C64   C     C_1   0.749946 0.680989 0.749917 0.000830
C65   C     C_1   0.749912 0.180986 0.249887 -0.002998
C66   C     C_1   0.750159 0.180988 0.749942 -0.004167
C67   C     C_1   0.250137 0.180986 0.249947 -0.005725
C68   C     C_R   0.608502 0.499941 0.250413 0.534002
C69   C     C_1   0.249909 0.180986 0.749897 -0.003003
C70   C     C_3   0.032138 0.942107 0.226881 0.026440
C71   C     C_3   0.030637 0.986578 0.806522 0.033650
C72   C     C_3   0.969900 0.939919 0.233107 0.031097
C73   C     C_3   0.968771 0.979811 0.803433 0.025363
C74   C     C_3   0.530664 0.513317 0.306529 0.033043
C75   C     C_3   0.530552 0.477120 0.802007 0.035977
C76   C     C_3   0.468821 0.520126 0.303422 0.024802
C77   C     C_3   0.469311 0.487221 0.804806 0.026925
C78   C     C_3   0.530664 0.013295 0.806535 0.033244
C79   C     C_3   0.027589 0.004014 0.295619 -0.314687
C80   C     C_3   0.530637 0.986621 0.306526 0.033313
C81   C     C_3   0.468822 0.020111 0.803430 0.024928
C82   C     C_3   0.468773 0.979843 0.303443 0.024858
C83   C     C_3   0.030664 0.513144 0.806578 0.033249
C84   C     C_3   0.030637 0.486607 0.306526 0.033343
C85   C     C_3   0.968827 0.519993 0.803489 0.025065
C86   C     C_3   0.968773 0.479828 0.303441 0.024873
C87   C     C_3   0.059999 0.900753 0.256084 -0.362312
C88   C     C_3   0.059009 0.939890 0.824971 -0.383167
C89   C     C_3   0.954386 0.905754 0.276459 -0.367890
C90   C     C_3   0.028406 0.961600 0.717153 -0.314847
C91   C     C_3   0.952619 0.925130 0.807419 -0.392233
C92   C     C_3   0.559167 0.559973 0.324991 -0.383364
C93   C     C_3   0.543342 0.421427 0.804037 -0.398182
C94   C     C_3   0.452831 0.574815 0.307387 -0.392309
C95   C     C_3   0.438604 0.441732 0.822635 -0.381442
C96   C     C_3   0.559171 0.059941 0.825016 -0.383381
C97   C     C_3   0.559014 0.939951 0.325013 -0.383463
C98   C     C_3   0.452837 0.074800 0.807411 -0.392337
C99   C     C_3   0.452628 0.925162 0.307461 -0.392266
C100  C     C_3   0.059186 0.559726 0.825196 -0.383211
C101  C     C_3   0.969576 0.011557 0.292104 -0.301137
C102  C     C_3   0.059016 0.439935 0.325007 -0.383423
C103  C     C_3   0.952864 0.574680 0.807592 -0.392383
C104  C     C_3   0.952630 0.425146 0.307449 -0.392234
C105  C     C_3   0.049623 0.929497 0.174073 -0.344676
C106  C     C_3   0.045290 0.024090 0.847249 -0.324710
C107  C     C_3   0.941879 0.915345 0.189614 -0.384045
C108  C     C_3   0.939713 0.002547 0.847714 -0.351253
C109  C     C_3   0.545199 0.475755 0.347246 -0.324013
C110  C     C_3   0.560267 0.495761 0.848012 -0.334789
C111  C     C_3   0.439694 0.497390 0.347712 -0.350174
C112  C     C_R   0.391580 0.999374 0.749846 0.546254
C113  C     C_3   0.970287 0.967398 0.711687 -0.301610
C114  C     C_3   0.456300 0.525812 0.844707 -0.337091
C115  C     C_3   0.545193 0.975713 0.847236 -0.324170
C116  C     C_3   0.545281 0.024168 0.347224 -0.323995
C117  C     C_3   0.439692 0.997365 0.847715 -0.350264
C118  C     C_3   0.439713 0.002601 0.347711 -0.350409
C119  C     C_3   0.045165 0.475437 0.847174 -0.324317
C120  C     C_3   0.045279 0.524149 0.347229 -0.323991
C121  C     C_3   0.939689 0.497165 0.847727 -0.350321
C122  C     C_3   0.939710 0.502578 0.347712 -0.350401
C123  C     C_3   0.052705 0.104264 0.262992 -0.131397
C124  C     C_3   0.528501 0.538368 0.217160 -0.314505
C125  C     C_3   0.054808 0.043303 0.650684 -0.158096
C126  C     C_3   0.954563 0.115694 0.177239 -0.074358
C127  C     C_3   0.959322 0.115187 0.676461 -0.089223
C128  C     C_3   0.554698 0.456723 0.150686 -0.158883
C129  C     C_3   0.569442 0.558008 0.659886 -0.154279
C130  C     C_3   0.459050 0.384826 0.176470 -0.089895
C131  C     C_3   0.463812 0.609931 0.666585 -0.096037
C132  C     C_3   0.554690 0.956760 0.650668 -0.158694
C133  C     C_3   0.554797 0.043230 0.150642 -0.158560
C134  C     C_3   0.459046 0.884845 0.676446 -0.089757
C135  C     C_3   0.528751 0.466309 0.710776 -0.310352
C136  C     C_3   0.459315 0.115140 0.176389 -0.089910
C137  C     C_3   0.054647 0.457020 0.650542 -0.158601
C138  C     C_3   0.054795 0.543236 0.150648 -0.158741
C139  C     C_3   0.959031 0.384996 0.676220 -0.089490
C140  C     C_3   0.959317 0.615141 0.176402 -0.088999
C141  C     C_3   0.074455 0.060806 0.131949 -0.017531
C142  C     C_3   0.081716 0.124830 0.760506 -0.026400
C143  C     C_3   0.910187 0.021285 0.134566 -0.082987
C144  C     C_3   0.912103 0.117359 0.770851 -0.057631
C145  C     C_3   0.581454 0.375127 0.260507 -0.026256
C146  C     C_3   0.470365 0.532593 0.211673 -0.301726
C147  C     C_3   0.556242 0.628138 0.783003 -0.031894
C148  C     C_3   0.411844 0.382572 0.270861 -0.056749
C149  C     C_3   0.404589 0.616141 0.753476 -0.068768
C150  C     C_3   0.581475 0.875136 0.760457 -0.026484
C151  C     C_3   0.581736 0.124825 0.260402 -0.026271
C152  C     C_3   0.411842 0.882574 0.770838 -0.057045
C153  C     C_3   0.412095 0.117359 0.270778 -0.057011
C154  C     C_3   0.081564 0.375157 0.760106 -0.026609
C155  C     C_3   0.081741 0.624813 0.260421 -0.025315
C156  C     C_3   0.911818 0.382573 0.770610 -0.057184
C157  C     C_3   0.470092 0.466033 0.713348 -0.288868
C158  C     C_3   0.912101 0.617354 0.270794 -0.056778
C159  C     C_3   0.528501 0.038380 0.717174 -0.314528
C160  C     C_3   0.528407 0.961577 0.217175 -0.314689
C161  C     C_3   0.470364 0.032607 0.711685 -0.301726
C162  C     C_3   0.470287 0.967371 0.211706 -0.301581
C163  C     C_3   0.028502 0.538464 0.717281 -0.314570
C164  C     C_R   0.608507 0.999991 0.250385 0.533977
C165  C     C_3   0.028407 0.461575 0.217172 -0.314733
C166  C     C_3   0.970365 0.532706 0.711778 -0.301711
C167  C     C_3   0.970286 0.467370 0.211703 -0.301666
C168  C     C_3   0.031677 0.036839 0.206911 0.569431
C169  C     C_3   0.031768 0.053915 0.737137 0.550400
C170  C     C_3   0.970503 0.032929 0.202152 0.551032
C171  C     C_3   0.970002 0.054828 0.739255 0.544879
C172  C     C_3   0.531635 0.446038 0.237143 0.550350
C173  C     C_3   0.532076 0.554357 0.742274 0.558016
C174  C     C_3   0.469867 0.445145 0.239257 0.544915
C175  C     C_R   0.608502 0.999940 0.750412 0.534013
C176  C     C_3   0.470691 0.555541 0.735293 0.537653
C177  C     C_3   0.531634 0.946043 0.737124 0.550336
C178  C     C_3   0.531767 0.053905 0.237092 0.550426
C179  C     C_3   0.469866 0.945150 0.739244 0.544949
C180  C     C_3   0.470001 0.054818 0.239215 0.544858
C181  C     C_3   0.031635 0.446078 0.736987 0.550290
C182  C     C_3   0.031767 0.553901 0.237100 0.550292
C183  C     C_3   0.969866 0.445181 0.739126 0.544966
C184  C     C_3   0.970001 0.554813 0.239224 0.544694
C185  C     C_3   0.051161 0.995741 0.244320 0.052830
C186  C     C_R   0.891576 0.500592 0.249848 0.546248
C187  C     C_3   0.051001 0.000812 0.752526 0.056942
C188  C     C_3   0.949297 0.994510 0.242120 0.056650
C189  C     C_3   0.949338 0.001237 0.752041 0.069691
C190  C     C_3   0.550997 0.499117 0.252544 0.057089
C191  C     C_3   0.551158 0.499664 0.751298 0.064567
C192  C     C_3   0.449336 0.498739 0.252026 0.069791
C193  C     C_3   0.449508 0.503190 0.751489 0.067061
C194  C     C_3   0.550996 0.999116 0.752543 0.057025
C195  C     C_3   0.551001 0.000815 0.252520 0.057023
C196  C     C_3   0.449336 0.998740 0.752028 0.069773
C197  C     C_R   0.891580 0.499380 0.749853 0.546172
C198  C     C_3   0.449337 0.001236 0.252038 0.069755
C199  C     C_3   0.050998 0.499108 0.752545 0.056889
C200  C     C_3   0.051001 0.500809 0.252522 0.057377
C201  C     C_3   0.949335 0.498741 0.752036 0.069839
C202  C     C_3   0.949338 0.501230 0.252040 0.070060
C203  C     C_1   0.249936 0.999992 0.069006 0.002568
C204  C     C_1   0.249998 0.999966 0.930991 0.000915
C205  C     C_1   0.750074 0.999963 0.069004 -0.004564
C206  C     C_1   0.750038 0.999968 0.931001 -0.000001
C207  C     C_1   0.749960 0.499991 0.069004 0.004033
C208  C     C_R   0.108508 0.499989 0.250387 0.533949
C209  C     C_1   0.750008 0.499965 0.930989 0.001263
C210  C     C_1   0.249979 0.500007 0.068998 0.004112
C211  C     C_1   0.249985 0.499998 0.930997 0.001411
C212  C     C_1   0.749938 0.999976 0.569006 0.005188
C213  C     C_1   0.749964 0.999940 0.430993 0.003845
C214  C     C_1   0.250003 0.999992 0.568999 0.004792
C215  C     C_1   0.250031 0.999971 0.430999 0.002878
C216  C     C_1   0.249965 0.499995 0.569004 0.004630
C217  C     C_1   0.250013 0.499969 0.430989 0.001521
C218  C     C_1   0.749979 0.500009 0.568998 0.004241
C219  C     C_R   0.108503 0.499940 0.750414 0.534265
C220  C     C_1   0.749990 0.499996 0.430996 0.001550
C221  C     C_1   0.249936 0.999986 0.025481 -0.044761
C222  C     C_1   0.249968 0.999971 0.974516 -0.045124
C223  C     C_1   0.750090 0.999962 0.025483 -0.048669
C224  C     C_1   0.750071 0.999963 0.974523 -0.046772
C225  C     C_1   0.749966 0.499981 0.025479 -0.043323
C226  C     C_1   0.749990 0.499968 0.974514 -0.044536
C227  C     C_1   0.249973 0.500008 0.025476 -0.043038
C228  C     C_1   0.249976 0.500004 0.974517 -0.044267
C229  C     C_1   0.749926 0.999959 0.525482 -0.041530
C230  C     C_R   0.891577 0.000596 0.749846 0.546322
C231  C     C_1   0.749939 0.999941 0.474517 -0.042050
C232  C     C_1   0.250017 0.999984 0.525478 -0.042065
C233  C     C_1   0.250031 0.999975 0.474520 -0.042867
C234  C     C_1   0.249972 0.499987 0.525479 -0.042656
C235  C     C_1   0.249997 0.499973 0.474514 -0.044040
C236  C     C_1   0.749977 0.500009 0.525476 -0.042585
C237  C     C_1   0.749982 0.500003 0.474517 -0.043905
C238  C     C_R   0.250018 0.999975 0.379209 0.502014
C239  C     C_R   0.249994 0.999997 0.620790 0.505371
C240  C     C_R   0.749985 0.999966 0.379196 0.503921
H1    H     H_    0.034977 0.972844 0.319438 0.140862
H2    H     H_    0.536513 0.924736 0.230153 0.134479
H3    H     H_    0.456272 0.510319 0.382300 0.103680
H4    H     H_    0.398988 0.509218 0.349461 0.150524
H5    H     H_    0.477746 0.559881 0.841671 0.207439
H6    H     H_    0.415180 0.535163 0.846545 0.176426
H7    H     H_    0.464847 0.511548 0.881314 0.093072
H8    H     H_    0.522008 0.942308 0.846838 0.197250
H9    H     H_    0.586107 0.965466 0.847410 0.185934
H10   H     H_    0.538997 0.991096 0.883822 0.086790
H11   H     H_    0.522205 0.057592 0.346819 0.197435
H12   H     H_    0.539024 0.008766 0.383810 0.086697
H13   H     H_    0.452076 0.068834 0.712154 0.144726
H14   H     H_    0.586228 0.034379 0.347419 0.185662
H15   H     H_    0.439392 0.957556 0.848261 0.183548
H16   H     H_    0.456274 0.010281 0.882306 0.103328
H17   H     H_    0.398989 0.009199 0.849469 0.150475
H18   H     H_    0.439541 0.042410 0.348235 0.183570
H19   H     H_    0.398971 0.990798 0.349469 0.150373
H20   H     H_    0.456248 0.989663 0.382311 0.103419
H21   H     H_    0.021961 0.442046 0.846670 0.197190
H22   H     H_    0.086070 0.465165 0.847335 0.185860
H23   H     H_    0.038972 0.490718 0.883802 0.086525
H24   H     H_    0.451912 0.931145 0.212192 0.144808
H25   H     H_    0.022203 0.557572 0.346828 0.197428
H26   H     H_    0.039022 0.508741 0.383812 0.086802
H27   H     H_    0.086226 0.534360 0.347424 0.185951
H28   H     H_    0.939352 0.457355 0.848175 0.183343
H29   H     H_    0.956289 0.509985 0.882346 0.103228
H30   H     H_    0.898997 0.509030 0.849526 0.150517
H31   H     H_    0.939538 0.542387 0.348242 0.183579
H32   H     H_    0.898969 0.490775 0.349465 0.150587
H33   H     H_    0.956244 0.489635 0.382310 0.103538
H34   H     H_    0.016424 0.102335 0.283257 0.126651
H35   H     H_    0.036704 0.575259 0.730348 0.134537
H36   H     H_    0.060884 0.143452 0.259828 0.132060
H37   H     H_    0.086741 0.089233 0.281678 0.123613
H38   H     H_    0.018213 0.025355 0.642020 0.138935
H39   H     H_    0.088673 0.019219 0.652303 0.142452
H40   H     H_    0.062390 0.067421 0.619499 0.129254
H41   H     H_    0.917513 0.134854 0.172358 0.114917
H42   H     H_    0.966449 0.102610 0.141235 0.130514
H43   H     H_    0.982300 0.143069 0.190432 0.151409
H44   H     H_    0.983785 0.136769 0.701118 0.154499
H45   H     H_    0.922814 0.134971 0.670568 0.091919
H46   H     H_    0.036512 0.424733 0.230145 0.133749
H47   H     H_    0.978401 0.112953 0.640748 0.144699
H48   H     H_    0.518147 0.474679 0.142023 0.138399
H49   H     H_    0.562218 0.432628 0.119501 0.127923
H50   H     H_    0.588623 0.480802 0.152298 0.142332
H51   H     H_    0.534835 0.542700 0.642640 0.143650
H52   H     H_    0.601466 0.531968 0.662072 0.141299
H53   H     H_    0.583008 0.586553 0.634825 0.124010
H54   H     H_    0.422501 0.365035 0.170586 0.091315
H55   H     H_    0.483478 0.363233 0.201123 0.154720
H56   H     H_    0.478123 0.387092 0.140751 0.143833
H57   H     H_    0.952076 0.568931 0.712336 0.144600
H58   H     H_    0.485987 0.634486 0.690328 0.155657
H59   H     H_    0.425982 0.626452 0.658493 0.097789
H60   H     H_    0.483625 0.607737 0.631259 0.121055
H61   H     H_    0.518138 0.974720 0.642013 0.138364
H62   H     H_    0.562208 0.932677 0.619474 0.128215
H63   H     H_    0.588615 0.980838 0.652289 0.142359
H64   H     H_    0.518202 0.025277 0.141993 0.138287
H65   H     H_    0.588663 0.019149 0.152274 0.143072
H66   H     H_    0.562375 0.067327 0.119439 0.128140
H67   H     H_    0.422497 0.865055 0.670562 0.091396
H68   H     H_    0.951912 0.431144 0.212184 0.143913
H69   H     H_    0.483477 0.863248 0.701094 0.154723
H70   H     H_    0.478116 0.887119 0.640727 0.143974
H71   H     H_    0.483781 0.136736 0.201032 0.154758
H72   H     H_    0.422807 0.134921 0.170487 0.091107
H73   H     H_    0.478392 0.112886 0.140675 0.143789
H74   H     H_    0.018094 0.475002 0.641943 0.138380
H75   H     H_    0.062148 0.433014 0.619286 0.128330
H76   H     H_    0.088576 0.481089 0.652205 0.142609
H77   H     H_    0.018199 0.525284 0.141998 0.138146
H78   H     H_    0.088660 0.519154 0.152275 0.142235
H79   H     H_    0.045449 0.032931 0.317166 0.103648
H80   H     H_    0.062371 0.567337 0.119448 0.128380
H81   H     H_    0.922479 0.365218 0.670307 0.091727
H82   H     H_    0.983467 0.363352 0.700826 0.154776
H83   H     H_    0.978095 0.387329 0.640502 0.144122
H84   H     H_    0.983785 0.636733 0.201046 0.155365
H85   H     H_    0.922809 0.634923 0.170503 0.092732
H86   H     H_    0.978391 0.612888 0.140687 0.144233
H87   H     H_    0.109923 0.075959 0.148285 0.184791
H88   H     H_    0.046560 0.089944 0.124753 0.117564
H89   H     H_    0.085346 0.045074 0.096577 0.104701
H90   H     H_    0.046471 0.959597 0.681293 0.131012
H91   H     H_    0.060873 0.151362 0.737796 0.115967
H92   H     H_    0.116720 0.111715 0.741705 0.172219
H93   H     H_    0.094550 0.143942 0.793581 0.115843
H94   H     H_    0.890843 0.055735 0.143102 0.175514
H95   H     H_    0.885788 0.990217 0.145059 0.123349
H96   H     H_    0.913070 0.019957 0.094630 0.108453
H97   H     H_    0.884743 0.105074 0.742705 0.169935
H98   H     H_    0.925088 0.154658 0.762723 0.089080
H99   H     H_    0.890559 0.119200 0.805365 0.147858
H100  H     H_    0.616495 0.388297 0.241745 0.171766
H101  H     H_    0.959171 0.049798 0.298348 0.147911
H102  H     H_    0.560594 0.348613 0.237758 0.115863
H103  H     H_    0.594226 0.355972 0.293578 0.116953
H104  H     H_    0.528512 0.648656 0.760615 0.141060
H105  H     H_    0.595933 0.632396 0.768836 0.167484
H106  H     H_    0.555509 0.644060 0.819745 0.105350
H107  H     H_    0.384497 0.394872 0.242724 0.169674
H108  H     H_    0.390302 0.380672 0.305376 0.148951
H109  H     H_    0.424777 0.345293 0.262722 0.089368
H110  H     H_    0.381532 0.597062 0.725647 0.156060
H111  H     H_    0.413367 0.653359 0.741105 0.079761
H112  H     H_    0.036510 0.924750 0.730104 0.134607
H113  H     H_    0.960228 0.981425 0.675436 0.164241
H114  H     H_    0.380581 0.620143 0.786288 0.169166
H115  H     H_    0.616501 0.888325 0.741683 0.172160
H116  H     H_    0.560618 0.848615 0.737713 0.115970
H117  H     H_    0.594273 0.855985 0.793522 0.116003
H118  H     H_    0.560904 0.151345 0.237668 0.115825
H119  H     H_    0.616735 0.111680 0.241614 0.171527
H120  H     H_    0.594576 0.143962 0.293461 0.116838
H121  H     H_    0.384496 0.894882 0.742706 0.169790
H122  H     H_    0.390303 0.880671 0.805355 0.148842
H123  H     H_    0.424771 0.845295 0.762692 0.089078
H124  H     H_    0.546577 0.540399 0.181303 0.130650
H125  H     H_    0.384735 0.105050 0.242642 0.169482
H126  H     H_    0.425069 0.154656 0.262626 0.089419
H127  H     H_    0.390556 0.119216 0.305294 0.148790
H128  H     H_    0.116572 0.388458 0.741379 0.171765
H129  H     H_    0.060762 0.348675 0.737271 0.116064
H130  H     H_    0.094388 0.355919 0.793111 0.116190
H131  H     H_    0.060909 0.651341 0.237695 0.117274
H132  H     H_    0.116735 0.611669 0.241624 0.171930
H133  H     H_    0.094589 0.643939 0.293483 0.117612
H134  H     H_    0.884476 0.394953 0.742505 0.169951
H135  H     H_    0.541135 0.474628 0.673965 0.121110
H136  H     H_    0.890287 0.380627 0.805129 0.148546
H137  H     H_    0.924701 0.345295 0.762393 0.089109
H138  H     H_    0.884740 0.605053 0.242657 0.169523
H139  H     H_    0.925081 0.654651 0.262647 0.091256
H140  H     H_    0.890561 0.619210 0.305309 0.148967
H141  H     H_    0.460275 0.518589 0.175425 0.163663
H142  H     H_    0.454638 0.474282 0.676779 0.181790
H143  H     H_    0.546577 0.040426 0.681318 0.130783
H144  H     H_    0.546471 0.959549 0.181317 0.130774
H145  H     H_    0.460273 0.018614 0.675434 0.163719
H146  H     H_    0.460226 0.981373 0.175446 0.163797
H147  H     H_    0.046575 0.540602 0.681430 0.130864
H148  H     H_    0.950642 0.992463 0.322619 0.142377
H149  H     H_    0.046471 0.459551 0.181313 0.130086
H150  H     H_    0.960269 0.518805 0.675494 0.163784
H151  H     H_    0.960225 0.481377 0.175445 0.163512
H152  H     H_    0.101463 0.898443 0.247044 0.159959
H153  H     H_    0.057015 0.903628 0.295751 0.133424
H154  H     H_    0.045076 0.864652 0.245686 0.109282
H155  H     H_    0.100745 0.946784 0.829942 0.131123
H156  H     H_    0.044114 0.928606 0.860851 0.124270
H157  H     H_    0.056196 0.908073 0.801209 0.115849
H158  H     H_    0.912491 0.902120 0.281220 0.174692
H159  H     H_    0.951913 0.931172 0.712148 0.144989
H160  H     H_    0.966115 0.867868 0.269789 0.112321
H161  H     H_    0.971185 0.916318 0.311545 0.119754
H162  H     H_    0.959249 0.910818 0.844404 0.125663
H163  H     H_    0.910998 0.920324 0.799980 0.129111
H164  H     H_    0.973374 0.900878 0.782524 0.122762
H165  H     H_    0.600878 0.553051 0.329988 0.131071
H166  H     H_    0.556467 0.591806 0.301220 0.115828
H167  H     H_    0.544282 0.571241 0.360860 0.123787
H168  H     H_    0.584160 0.414753 0.794451 0.130339
H169  H     H_    0.537779 0.406166 0.840809 0.123644
H170  H     H_    0.536699 0.575205 0.230113 0.134475
H171  H     H_    0.519426 0.398845 0.779982 0.123438
H172  H     H_    0.411227 0.579646 0.299928 0.129121
H173  H     H_    0.459484 0.589104 0.344371 0.125611
H174  H     H_    0.473668 0.599071 0.282497 0.122686
H175  H     H_    0.454391 0.428013 0.857287 0.124608
H176  H     H_    0.397711 0.450604 0.829932 0.135260
H177  H     H_    0.437986 0.411710 0.796361 0.118808
H178  H     H_    0.600881 0.053011 0.830014 0.131070
H179  H     H_    0.556477 0.091782 0.801256 0.115823
H180  H     H_    0.544284 0.071196 0.860889 0.123678
H181  H     H_    0.543652 0.428941 0.713103 0.143562
H182  H     H_    0.600748 0.946855 0.329986 0.130431
H183  H     H_    0.544114 0.928690 0.360898 0.123764
H184  H     H_    0.556211 0.908118 0.301272 0.115811
H185  H     H_    0.411234 0.079636 0.799949 0.129082
H186  H     H_    0.459489 0.089077 0.844399 0.125515
H187  H     H_    0.473679 0.099062 0.782529 0.122751
H188  H     H_    0.459255 0.910874 0.344456 0.125590
H189  H     H_    0.411009 0.920347 0.300019 0.129076
H190  H     H_    0.473390 0.900896 0.282585 0.122687
H191  H     H_    0.100889 0.552766 0.830197 0.131365
H192  H     H_    0.452077 0.568820 0.212129 0.144617
H193  H     H_    0.056520 0.591628 0.801514 0.115938
H194  H     H_    0.044286 0.570894 0.861091 0.123842
H195  H     H_    0.100749 0.446840 0.329982 0.130992
H196  H     H_    0.044115 0.428668 0.360889 0.123815
H197  H     H_    0.056215 0.408106 0.301260 0.115290
H198  H     H_    0.911267 0.579550 0.800123 0.128556
H199  H     H_    0.959504 0.588870 0.844616 0.125698
H200  H     H_    0.973727 0.598996 0.782779 0.122746
H201  H     H_    0.959255 0.410852 0.344442 0.125797
H202  H     H_    0.911011 0.420330 0.300004 0.129195
H203  H     H_    0.456709 0.428840 0.721317 0.131669
H204  H     H_    0.973395 0.400884 0.282571 0.122076
H205  H     H_    0.027661 0.947467 0.145191 0.205821
H206  H     H_    0.090987 0.938064 0.168894 0.145631
H207  H     H_    0.044944 0.890346 0.166207 0.094636
H208  H     H_    0.022222 0.057518 0.846874 0.196595
H209  H     H_    0.039031 0.008659 0.883823 0.086292
H210  H     H_    0.086241 0.034291 0.847448 0.185562
H211  H     H_    0.948055 0.932489 0.154352 0.159365
H212  H     H_    0.954827 0.877320 0.185546 0.118290
H213  H     H_    0.899673 0.914328 0.195506 0.113251
H214  H     H_    0.536699 0.075212 0.730142 0.134555
H215  H     H_    0.939553 0.042356 0.848266 0.182804
H216  H     H_    0.898967 0.990755 0.849459 0.150118
H217  H     H_    0.956241 0.989583 0.882308 0.102559
H218  H     H_    0.522020 0.442347 0.346864 0.197503
H219  H     H_    0.586115 0.465514 0.347423 0.185989
H220  H     H_    0.539002 0.491153 0.383825 0.087179
H221  H     H_    0.560003 0.535043 0.854091 0.187977
H222  H     H_    0.543963 0.479259 0.881228 0.097163
H223  H     H_    0.601110 0.484214 0.847770 0.142106
H224  H     H_    0.439401 0.457581 0.348271 0.183699
O1    O     O_3   0.250000 0.999990 0.250000 -0.430538
O2    O     O_R   0.366860 0.972110 0.777870 -0.556930
O3    O     O_R   0.133150 0.027840 0.222150 -0.508254
O4    O     O_R   0.366850 0.527840 0.777850 -0.564312
O5    O     O_R   0.366850 0.527840 0.222150 -0.547540
O6    O     O_R   0.633150 0.527840 0.777850 -0.509134
O7    O     O_R   0.633150 0.527840 0.222150 -0.560591
O8    O     O_3   0.048123 0.086007 0.215939 -0.577229
O9    O     O_3   0.051890 0.072490 0.692019 -0.604947
O10   O     O_3   0.947417 0.079012 0.212449 -0.563141
O11   O     O_3   0.948102 0.067836 0.693235 -0.605561
O12   O     O_3   0.551715 0.427505 0.192023 -0.604744
O13   O     O_R   0.633140 0.972110 0.222130 -0.559948
O14   O     O_3   0.559573 0.580192 0.704781 -0.590537
O15   O     O_3   0.447930 0.432162 0.193243 -0.605687
O16   O     O_3   0.456429 0.562630 0.685492 -0.612231
O17   O     O_3   0.551706 0.927526 0.691993 -0.604650
O18   O     O_3   0.551882 0.072446 0.191957 -0.604742
O19   O     O_3   0.447926 0.932178 0.693229 -0.605699
O20   O     O_3   0.448098 0.067798 0.193190 -0.605679
O21   O     O_3   0.051684 0.427684 0.691796 -0.604709
O22   O     O_3   0.051882 0.572447 0.191967 -0.604605
O23   O     O_3   0.947920 0.432302 0.693088 -0.605565
O24   O     O_R   0.633140 0.972110 0.777870 -0.541184
O25   O     O_3   0.948097 0.567798 0.193200 -0.606075
O26   O     O_3   0.053443 0.023534 0.161028 -0.561288
O27   O     O_3   0.049082 0.086234 0.774407 -0.557465
O28   O     O_3   0.960477 0.016625 0.153573 -0.591958
O29   O     O_3   0.955377 0.087051 0.777733 -0.572771
O30   O     O_3   0.548862 0.413675 0.274406 -0.557403
O31   O     O_3   0.543185 0.578588 0.786685 -0.575296
O32   O     O_3   0.455156 0.412914 0.277751 -0.572542
O33   O     O_3   0.450742 0.592519 0.766755 -0.585978
O34   O     O_3   0.548865 0.913665 0.774372 -0.557584
O35   O     O_R   0.866860 0.472110 0.222130 -0.547576
O36   O     O_3   0.549085 0.086254 0.274334 -0.557318
O37   O     O_3   0.455159 0.912910 0.777731 -0.572735
O38   O     O_3   0.455379 0.087066 0.277673 -0.572585
O39   O     O_3   0.048880 0.413592 0.774136 -0.557549
O40   O     O_3   0.049084 0.586244 0.274347 -0.557696
O41   O     O_3   0.955174 0.412851 0.777543 -0.572745
O42   O     O_3   0.955380 0.587055 0.277687 -0.572830
O43   O     O_R   0.866860 0.472110 0.777870 -0.557073
O44   O     O_R   0.133140 0.472110 0.222130 -0.560892
O45   O     O_R   0.133140 0.472110 0.777870 -0.541279
O46   O     O_R   0.866860 0.972110 0.722130 -0.547178
O47   O     O_R   0.866860 0.972110 0.277870 -0.566539
O48   O     O_R   0.133140 0.972110 0.722130 -0.560526
O49   O     O_3   0.250000 0.999990 0.750000 -0.429039
O50   O     O_R   0.133140 0.972110 0.277870 -0.566273
O51   O     O_R   0.366860 0.472110 0.722130 -0.545531
O52   O     O_R   0.366860 0.472110 0.277870 -0.556893
O53   O     O_R   0.633140 0.472110 0.722130 -0.572013
O54   O     O_R   0.633140 0.472110 0.277870 -0.541170
O55   O     O_R   0.280630 0.027850 0.356260 -0.545310
O56   O     O_R   0.280630 0.027850 0.643740 -0.531154
O57   O     O_R   0.719370 0.027850 0.356260 -0.543372
O58   O     O_R   0.719370 0.027850 0.643740 -0.540580
O59   O     O_R   0.780630 0.527850 0.356260 -0.544370
O60   O     O_3   0.750000 0.999990 0.250000 -0.429334
O61   O     O_R   0.780630 0.527850 0.643740 -0.530851
O62   O     O_R   0.219370 0.527850 0.356260 -0.542797
O63   O     O_R   0.219370 0.527850 0.643740 -0.541166
O64   O     O_R   0.780630 0.027850 0.856260 -0.545383
O65   O     O_R   0.780630 0.027850 0.143740 -0.565824
O66   O     O_R   0.219370 0.027850 0.856260 -0.543493
O67   O     O_R   0.219370 0.027850 0.143740 -0.551281
O68   O     O_R   0.280630 0.527850 0.856260 -0.542284
O69   O     O_R   0.280630 0.527850 0.143740 -0.530955
O70   O     O_R   0.719370 0.527850 0.856260 -0.543623
O71   O     O_3   0.750000 0.999990 0.750000 -0.429000
O72   O     O_R   0.719370 0.527850 0.143740 -0.540431
O73   O     O_R   0.280630 0.106260 0.277850 -0.560535
O74   O     O_R   0.280630 0.106260 0.722150 -0.534960
O75   O     O_R   0.719370 0.106260 0.277850 -0.551756
O76   O     O_R   0.719370 0.106260 0.722150 -0.530872
O77   O     O_R   0.780630 0.606260 0.277850 -0.561064
O78   O     O_R   0.780630 0.606260 0.722150 -0.537663
O79   O     O_R   0.219370 0.606260 0.277850 -0.553043
O80   O     O_R   0.219370 0.606260 0.722150 -0.531229
O81   O     O_R   0.780630 0.106260 0.777850 -0.561725
O82   O     O_3   0.750000 0.499990 0.250000 -0.428957
O83   O     O_R   0.780630 0.106260 0.222150 -0.530363
O84   O     O_R   0.219370 0.106260 0.777850 -0.553673
O85   O     O_R   0.219370 0.106260 0.222150 -0.536639
O86   O     O_R   0.280630 0.606260 0.777850 -0.565184
O87   O     O_R   0.280630 0.606260 0.222150 -0.535293
O88   O     O_R   0.719370 0.606260 0.777850 -0.539632
O89   O     O_R   0.719370 0.606260 0.222150 -0.531322
O90   O     O_R   0.280650 0.893700 0.222130 -0.537544
O91   O     O_R   0.280650 0.893700 0.777870 -0.561371
O92   O     O_R   0.719350 0.893700 0.222130 -0.536029
O93   O     O_3   0.750000 0.499990 0.750000 -0.431543
O94   O     O_R   0.719350 0.893700 0.777870 -0.553681
O95   O     O_R   0.780650 0.393700 0.222130 -0.535763
O96   O     O_R   0.780650 0.393700 0.777870 -0.561704
O97   O     O_R   0.219350 0.393700 0.222130 -0.531941
O98   O     O_R   0.219350 0.393700 0.777870 -0.553597
O99   O     O_R   0.780650 0.893700 0.722130 -0.534809
O100  O     O_R   0.780650 0.893700 0.277870 -0.545291
O101  O     O_R   0.219350 0.893700 0.722130 -0.531185
O102  O     O_R   0.219350 0.893700 0.277870 -0.544727
O103  O     O_R   0.280650 0.393700 0.722130 -0.532886
O104  O     O_3   0.250000 0.499990 0.250000 -0.428957
O105  O     O_R   0.280650 0.393700 0.277870 -0.561168
O106  O     O_R   0.719350 0.393700 0.722130 -0.531995
O107  O     O_R   0.719350 0.393700 0.277870 -0.553115
O108  O     O_R   0.219370 0.972130 0.356260 -0.533807
O109  O     O_R   0.219370 0.972130 0.643740 -0.540173
O110  O     O_R   0.780630 0.972130 0.356260 -0.533164
O111  O     O_R   0.780630 0.972130 0.643740 -0.530631
O112  O     O_R   0.719370 0.472130 0.356260 -0.542630
O113  O     O_R   0.719370 0.472130 0.643740 -0.540560
O114  O     O_R   0.280630 0.472130 0.356260 -0.544403
O115  O     O_3   0.250000 0.499990 0.750000 -0.428548
O116  O     O_R   0.280630 0.472130 0.643740 -0.531791
O117  O     O_R   0.719370 0.972130 0.856260 -0.542472
O118  O     O_R   0.719370 0.972130 0.143740 -0.536061
O119  O     O_R   0.280630 0.972130 0.856260 -0.544175
O120  O     O_R   0.280630 0.972130 0.143740 -0.530155
O121  O     O_R   0.219370 0.472130 0.856260 -0.542929
O122  O     O_R   0.219370 0.472130 0.143740 -0.540790
O123  O     O_R   0.780630 0.472130 0.856260 -0.545485
O124  O     O_R   0.780630 0.472130 0.143740 -0.531509
O125  O     O_R   0.366850 0.027840 0.277850 -0.557228
O126  O     O_R   0.366860 0.972110 0.222130 -0.547172
O127  O     O_R   0.366850 0.027840 0.722150 -0.547512
O128  O     O_R   0.633150 0.027840 0.277850 -0.541470
O129  O     O_R   0.633150 0.027840 0.722150 -0.560540
O130  O     O_R   0.866850 0.527840 0.277850 -0.557163
O131  O     O_R   0.866850 0.527840 0.722150 -0.547762
O132  O     O_R   0.133150 0.527840 0.277850 -0.540969
O133  O     O_R   0.133150 0.527840 0.722150 -0.559998
O134  O     O_R   0.866850 0.027840 0.777850 -0.557171
O135  O     O_R   0.866850 0.027840 0.222150 -0.517364
O136  O     O_R   0.133150 0.027840 0.777850 -0.540937
Zn1   Zn    Zn3+2 0.206230 0.960180 0.289800 0.918358
Zn2   Zn    Zn3+2 0.706230 0.960180 0.210200 0.922929
Zn3   Zn    Zn3+2 0.293770 0.960180 0.789800 0.907439
Zn4   Zn    Zn3+2 0.293770 0.960180 0.210200 0.937270
Zn5   Zn    Zn3+2 0.206230 0.460180 0.789800 0.919071
Zn6   Zn    Zn3+2 0.206230 0.460180 0.210200 0.928912
Zn7   Zn    Zn3+2 0.793770 0.460180 0.789800 0.904899
Zn8   Zn    Zn3+2 0.793770 0.460180 0.210200 0.938851
Zn9   Zn    Zn3+2 0.293770 0.039800 0.289800 0.907681
Zn10  Zn    Zn3+2 0.293770 0.039800 0.710200 0.940098
Zn11  Zn    Zn3+2 0.706230 0.039800 0.289800 0.924329
Zn12  Zn    Zn3+2 0.206230 0.960180 0.710200 0.930320
Zn13  Zn    Zn3+2 0.706230 0.039800 0.710200 0.930072
Zn14  Zn    Zn3+2 0.793770 0.539800 0.289800 0.907642
Zn15  Zn    Zn3+2 0.793770 0.539800 0.710200 0.940856
Zn16  Zn    Zn3+2 0.206230 0.539800 0.289800 0.918247
Zn17  Zn    Zn3+2 0.206230 0.539800 0.710200 0.927095
Zn18  Zn    Zn3+2 0.793770 0.039800 0.789800 0.906274
Zn19  Zn    Zn3+2 0.793770 0.039800 0.210200 0.923684
Zn20  Zn    Zn3+2 0.206230 0.039800 0.789800 0.917298
Zn21  Zn    Zn3+2 0.206230 0.039800 0.210200 0.931539
Zn22  Zn    Zn3+2 0.293770 0.539800 0.789800 0.903405
Zn23  Zn    Zn3+2 0.793770 0.960180 0.289800 0.920672
Zn24  Zn    Zn3+2 0.293770 0.539800 0.210200 0.940011
Zn25  Zn    Zn3+2 0.706230 0.539800 0.789800 0.936646
Zn26  Zn    Zn3+2 0.706230 0.539800 0.210200 0.929710
Zn27  Zn    Zn3+2 0.793770 0.960180 0.710200 0.940561
Zn28  Zn    Zn3+2 0.706230 0.460180 0.289800 0.918402
Zn29  Zn    Zn3+2 0.706230 0.460180 0.710200 0.926851
Zn30  Zn    Zn3+2 0.293770 0.460180 0.289800 0.907431
Zn31  Zn    Zn3+2 0.293770 0.460180 0.710200 0.938655
Zn32  Zn    Zn3+2 0.706230 0.960180 0.789800 0.917947

loop_
_geom_bond_atom_site_label_1
_geom_bond_atom_site_label_2
_ccdc_geom_bond_type
C143  O28   S    
C159  C194  S    
C108  H217  S    
O112  Zn28  S    
C141  H88   S    
C174  O32   S    
C1    C198  S    
C215  C233  T    
C46   O5    A    
C146  C192  S    
C145  O30   S    
C164  C195  S    
C115  H10   S    
C156  H134  S    
C157  C193  S    
C50   C59   S    
C14   O122  A    
C31   O106  A    
C20   C66   S    
C142  O27   S    
C84   C86   S    
C82   C198  S    
C52   C61   T    
O65   Zn19  S    
C92   H166  S    
O136  Zn20  S    
C117  H16   S    
C118  H20   S    
C54   C63   T    
C87   H154  S    
C130  H56   S    
C88   H157  S    
C186  C202  S    
C83   C119  S    
C68   O7    A    
C77   C193  S    
C186  O130  A    
C152  H121  S    
C176  O16   S    
C70   C185  S    
C76   C94   S    
C74   C190  S    
C102  H197  S    
C240  O57   A    
C230  O134  A    
O70   Zn25  S    
C158  O42   S    
C78   C96   S    
C129  O14   S    
C230  O46   A    
C155  H131  S    
O78   Zn15  S    
C159  C161  S    
C85   C121  S    
C197  O131  A    
O64   Zn18  S    
O61   Zn15  S    
C97   H184  S    
C19   O75   A    
C86   C202  S    
C85   C103  S    
C123  H34   S    
O111  Zn27  S    
C136  H72   S    
C108  H215  S    
O49   Zn3   S    
C120  H27   S    
C26   C34   S    
C140  H84   S    
C165  C167  S    
O6    Zn25  S    
C181  C183  S    
C146  H141  S    
C179  O19   S    
C165  H149  S    
C17   C67   S    
C143  H94   S    
O81   Zn18  S    
C177  O17   S    
C183  C201  S    
C127  H47   S    
C154  O39   S    
C169  C187  S    
C94   H172  S    
C161  H145  S    
C71   C73   S    
O115  Zn17  S    
C73   C108  S    
C163  H35   S    
C172  C190  S    
C173  C191  S    
C151  H119  S    
C161  C196  S    
C24   C185  S    
C125  O9    S    
O50   Zn1   S    
C169  O9    S    
C25   O86   A    
C6    C217  S    
C227  C228  S    
C158  H140  S    
C129  H53   S    
O1    Zn1   S    
C126  H43   S    
C154  H130  S    
C2    O135  A    
C17   O85   A    
C155  O40   S    
O54   Zn28  S    
C122  H31   S    
C134  H70   S    
C80   C82   S    
O87   Zn24  S    
C83   C100  S    
C186  O35   A    
C133  H64   S    
C131  H60   S    
C36   C44   T    
C150  H116  S    
C209  C226  T    
C82   C118  S    
C37   C45   T    
C89   H158  S    
C135  H135  S    
C75   C93   S    
C166  H57   S    
C115  H8    S    
C156  H136  S    
C23   C61   S    
C162  C198  S    
C111  H3    S    
C149  H111  S    
C207  C225  T    
C16   O124  A    
O2    Zn3   S    
C71   C187  S    
C141  O26   S    
C137  H75   S    
C70   C105  S    
C142  H92   S    
O60   Zn19  S    
C123  H37   S    
C118  H18   S    
C136  H73   S    
C125  H39   S    
C130  H54   S    
C189  C230  S    
C3    O58   A    
C167  H151  S    
O124  Zn8   S    
C102  H195  S    
C28   O100  A    
C238  O55   A    
C100  H193  S    
C13   O136  A    
O1    Zn21  S    
O77   Zn14  S    
O59   Zn14  S    
O90   Zn4   S    
C25   C62   S    
C79   H1    S    
C46   O52   A    
O91   Zn3   S    
C32   O97   A    
C180  C198  S    
C71   C88   S    
O93   Zn25  S    
C6    O114  A    
O119  Zn3   S    
C137  O21   S    
C81   C98   S    
C71   C106  S    
C152  H123  S    
C140  H86   S    
C160  H2    S    
C145  H103  S    
C13   O48   A    
C170  O28   S    
C138  H80   S    
C113  H159  S    
C160  C162  S    
C112  O2    A    
C33   O103  A    
C15   O123  A    
C183  O41   S    
O72   Zn26  S    
C13   C187  S    
O96   Zn7   S    
C81   C117  S    
C80   C97   S    
C84   C102  S    
C127  H45   S    
C99   H189  S    
O89   Zn26  S    
O48   Zn12  S    
C86   C104  S    
C217  C235  T    
C208  O44   A    
C135  H181  S    
C110  H222  S    
C147  H106  S    
O129  Zn13  S    
C11   O67   A    
C8    O117  A    
C238  O108  A    
C74   C76   S    
C33   C42   S    
C43   C52   S    
C114  H5    S    
C125  H38   S    
O82   Zn28  S    
C40   C49   T    
C126  H41   S    
C236  C237  S    
C168  O26   S    
C167  C202  S    
O56   Zn10  S    
O93   Zn15  S    
C59   C67   T    
C105  H206  S    
C206  C224  T    
C177  C179  S    
C132  H63   S    
C29   C38   S    
C32   C41   S    
C131  H58   S    
C175  O24   A    
C162  H24   S    
C176  C193  S    
C89   H160  S    
C219  O45   A    
C178  O36   S    
C7    C216  S    
C213  C231  T    
C159  H143  S    
O5    Zn24  S    
C10   O119  A    
C18   C69   S    
C128  H50   S    
C163  C199  S    
C8    O64   A    
C105  H205  S    
C132  O17   S    
C2    O47   A    
C169  C171  S    
O118  Zn2   S    
C70   C87   S    
C44   C53   S    
C172  C174  S    
C144  O29   S    
C225  C226  S    
O66   Zn20  S    
O67   Zn21  S    
C120  H26   S    
C127  O11   S    
C80   C116  S    
C150  O34   S    
C199  C219  S    
C78   C115  S    
C149  O33   S    
C165  C200  S    
O71   Zn32  S    
O107  Zn28  S    
C20   O76   A    
O100  Zn23  S    
O126  Zn4   S    
C33   O98   A    
O71   Zn18  S    
C124  C146  S    
C111  H224  S    
C28   O92   A    
O106  Zn29  S    
C143  H95   S    
C95   H176  S    
C112  O127  A    
O53   Zn29  S    
C180  O38   S    
C127  H44   S    
C75   C191  S    
O3    Zn21  S    
C221  C222  S    
C76   C192  S    
C124  H170  S    
O115  Zn22  S    
O62   Zn16  S    
O88   Zn25  S    
C139  H82   S    
C153  H125  S    
C148  H109  S    
C107  H211  S    
C90   H112  S    
C104  H201  S    
C75   C77   S    
C138  H78   S    
O51   Zn31  S    
O68   Zn22  S    
C20   O81   A    
C130  O15   S    
C211  C228  T    
C175  O129  A    
C148  H107  S    
C103  H199  S    
C181  C199  S    
C121  H29   S    
C162  H146  S    
C107  H213  S    
C147  H104  S    
C75   C110  S    
C141  H87   S    
C151  O36   S    
C34   C43   T    
C12   C211  S    
C171  O11   S    
O49   Zn10  S    
O98   Zn5   S    
C131  O16   S    
C115  H9    S    
C125  H40   S    
C85   C201  S    
O82   Zn26  S    
C169  O27   S    
C31   O96   A    
C17   O73   A    
O79   Zn16  S    
C166  H150  S    
C177  O34   S    
C138  O22   S    
C19   O83   A    
C212  C229  T    
C117  H15   S    
C168  O8    S    
C28   C37   S    
C10   O66   A    
C76   C111  S    
C173  O14   S    
C93   H169  S    
C91   H164  S    
C30   C39   S    
C106  H209  S    
C219  O133  A    
C182  C184  S    
C133  H66   S    
C152  H122  S    
O71   Zn27  S    
C27   O91   A    
O35   Zn8   S    
C200  C208  S    
O114  Zn30  S    
C170  C188  S    
O46   Zn27  S    
O115  Zn5   S    
O113  Zn29  S    
C156  O41   S    
C79   C101  S    
C57   O53   A    
C51   C60   S    
C97   H183  S    
O115  Zn31  S    
O60   Zn23  S    
C184  O42   S    
C108  H216  S    
C88   H155  S    
C216  C234  T    
C82   C99   S    
O122  Zn6   S    
O121  Zn5   S    
C145  H100  S    
C214  C232  T    
C160  H144  S    
C100  H191  S    
C124  C190  S    
O123  Zn7   S    
O103  Zn31  S    
O104  Zn6   S    
C149  H114  S    
O75   Zn11  S    
O82   Zn14  S    
O1    Zn9   S    
C135  C157  S    
C98   H187  S    
C144  H97   S    
O44   Zn6   S    
C57   C191  S    
C94   H173  S    
O116  Zn31  S    
C140  O25   S    
O120  Zn4   S    
C119  H22   S    
C90   C187  S    
C153  H127  S    
C1    O125  A    
C31   C40   S    
C78   C194  S    
C112  C196  S    
C10   C204  S    
C148  O32   S    
O76   Zn13  S    
C129  H52   S    
C4    C220  S    
C18   O74   A    
C86   C122  S    
C109  H219  S    
O95   Zn8   S    
C181  O39   S    
C120  H25   S    
O86   Zn22  S    
O85   Zn21  S    
C96   H179  S    
C122  H32   S    
C25   O80   A    
C168  C170  S    
C16   O72   A    
C132  H62   S    
C142  H91   S    
C131  H59   S    
C150  H117  S    
C74   C109  S    
C22   O88   A    
C26   O102  A    
O49   Zn12  S    
C179  C196  S    
O101  Zn12  S    
C184  O25   S    
C178  O18   S    
C149  H110  S    
C101  H148  S    
C30   O95   A    
C163  C166  S    
C182  C200  S    
C57   O6    A    
O104  Zn16  S    
C223  C224  S    
C5    O113  A    
C137  H74   S    
C177  C194  S    
C142  H93   S    
C92   H165  S    
C93   H168  S    
C139  O23   S    
C118  H19   S    
C130  H55   S    
C91   H162  S    
O99   Zn27  S    
C126  O10   S    
C101  H101  S    
C176  O33   S    
C170  O10   S    
C166  C201  S    
C98   H186  S    
C163  H147  S    
C6    O62   A    
C102  H196  S    
C181  O21   S    
C21   O89   A    
C5    C218  S    
C68   C190  S    
C84   C120  S    
C100  H194  S    
C155  H132  S    
C68   O54   A    
C11   C203  S    
C157  H142  S    
C8    C206  S    
C128  H48   S    
O131  Zn15  S    
O104  Zn24  S    
C160  C195  S    
C95   H175  S    
C136  H71   S    
C9    O65   A    
C109  H218  S    
C83   C85   S    
C139  H83   S    
C239  O109  A    
C95   H177  S    
C220  C237  T    
C122  H33   S    
C234  C235  S    
C197  O43   A    
C145  H102  S    
C124  H124  S    
C41   C50   T    
O69   Zn24  S    
C26   O90   A    
C29   O99   A    
C80   C195  S    
C4    O112  A    
C156  H137  S    
O55   Zn9   S    
C204  C222  T    
C98   H185  S    
O104  Zn30  S    
C182  O22   S    
C144  H99   S    
C22   O78   A    
C46   C192  S    
C90   H90   S    
C146  H192  S    
C178  C180  S    
C110  H223  S    
C147  H105  S    
O45   Zn5   S    
C27   C36   S    
C113  C189  S    
C128  O12   S    
O117  Zn32  S    
C151  H120  S    
C172  O12   S    
O83   Zn19  S    
C208  O132  A    
O63   Zn17  S    
C214  C239  S    
C136  O20   S    
C218  C236  T    
C229  C231  S    
C123  O8    S    
C78   C81   S    
C114  H6    S    
C23   O87   A    
C126  H42   S    
C232  C233  S    
C179  O37   S    
C24   O3    A    
C205  C223  T    
C19   C65   S    
C77   C114  S    
C2    C188  S    
C21   C63   S    
C35   C193  S    
C134  H69   S    
C22   C64   S    
C154  H128  S    
C93   H171  S    
O135  Zn19  S    
C15   C209  S    
O13   Zn2   S    
C150  H115  S    
C171  O29   S    
C101  C188  S    
C73   C189  S    
C172  O30   S    
C39   C48   T    
C139  H81   S    
C35   O4    A    
C111  H4    S    
C182  O40   S    
O84   Zn20  S    
C210  C227  T    
O127  Zn10  S    
C116  H14   S    
C137  H76   S    
C153  O38   S    
C92   H167  S    
C161  H13   S    
C154  H129  S    
O108  Zn1   S    
C84   C200  S    
C171  C189  S    
C152  O37   S    
C60   C69   T    
C14   O69   A    
O60   Zn2   S    
O105  Zn30  S    
C87   H153  S    
C239  O56   A    
C56   C65   T    
C103  H198  S    
C183  O23   S    
C203  C221  T    
C164  O128  A    
C90   C113  S    
C72   C188  S    
O60   Zn11  S    
C7    O116  A    
C87   H152  S    
C58   C66   T    
C15   O70   A    
C119  H23   S    
C174  O15   S    
C114  H7    S    
C140  H85   S    
C173  O31   S    
O125  Zn9   S    
C147  O31   S    
O97   Zn6   S    
C104  H202  S    
C175  C194  S    
C5    O61   A    
C42   C51   T    
C134  O19   S    
C7    O63   A    
C74   C92   S    
C12   O121  A    
C30   O107  A    
C1    O126  A    
C148  H108  S    
O52   Zn30  S    
O134  Zn18  S    
C99   H190  S    
C32   O105  A    
O133  Zn17  S    
C121  H28   S    
C96   H178  S    
C110  H221  S    
C109  H220  S    
C151  H118  S    
C184  C202  S    
C14   C210  S    
C240  O110  A    
C157  H203  S    
C9    O118  A    
C73   C91   S    
O102  Zn1   S    
C35   O51   A    
C11   O120  A    
O7    Zn26  S    
C116  H12   S    
O24   Zn32  S    
O1    Zn4   S    
C21   O77   A    
C77   C95   S    
C49   C58   S    
C158  H138  S    
C23   O79   A    
C165  H46   S    
O58   Zn13  S    
O47   Zn23  S    
C134  H67   S    
C117  H17   S    
C53   C62   T    
C105  H207  S    
C72   C107  S    
C106  H208  S    
C135  C191  S    
C55   C64   T    
C12   O68   A    
C91   H163  S    
C167  H68   S    
O130  Zn14  S    
O94   Zn32  S    
C106  H210  S    
C215  C238  S    
C79   H79   S    
C4    O59   A    
C89   H161  S    
C133  H65   S    
C38   C47   T    
C213  C240  S    
O74   Zn10  S    
O73   Zn9   S    
C128  H49   S    
C45   C54   S    
O80   Zn17  S    
C155  H133  S    
O128  Zn11  S    
O132  Zn16  S    
O109  Zn12  S    
C83   C199  S    
C97   H182  S    
O93   Zn7   S    
C24   O50   A    
O92   Zn2   S    
C123  H36   S    
C47   C55   S    
C173  C176  S    
O93   Zn29  S    
C3    C212  S    
C48   C56   S    
C88   H156  S    
C168  C185  S    
C79   C185  S    
C164  O13   A    
C159  H214  S    
O4    Zn22  S    
C27   O101  A    
O110  Zn23  S    
C3    O111  A    
C116  H11   S    
C178  C195  S    
O71   Zn13  S    
C113  H113  S    
C143  H96   S    
C197  C201  S    
C29   O94   A    
C132  H61   S    
C144  H98   S    
C158  H139  S    
C94   H174  S    
C16   C207  S    
C9    C205  S    
C81   C196  S    
C72   C89   S    
C119  H21   S    
C18   O84   A    
C153  H126  S    
O82   Zn8   S    
C107  H212  S    
C141  H89   S    
C104  H204  S    
C138  H77   S    
O49   Zn20  S    
C103  H200  S    
C133  O18   S    
C129  H51   S    
O57   Zn11  S    
C174  C192  S    
C70   C72   S    
C99   H188  S    
O43   Zn7   S    
C121  H30   S    
C180  O20   S    
C96   H180  S    
