data_mof_unit_pretest_1412.cif
_audit_creation_date              2012-12-10T17:19:15-0500
_audit_creation_method            fapswitch 2.2
_symmetry_space_group_name_H-M    P1
_symmetry_Int_Tables_number       1
_space_group_crystal_system       triclinic
_cell_length_a                    18.517996
_cell_length_b                    18.410801
_cell_length_c                    34.221964
_cell_angle_alpha                 90.002157
_cell_angle_beta                  90.000467
_cell_angle_gamma                 89.559197
_cell_volume                      11666.9878767

loop_
_atom_site_label
_atom_site_type_symbol
_atom_type_description
_atom_site_fract_x
_atom_site_fract_y
_atom_site_fract_z
_atom_type_partial_charge
C1    C     C_R   0.624946 0.040405 0.520470 -0.124404
C2    C     C_R   0.892567 0.424354 0.979726 -0.137028
C3    C     C_R   0.459914 0.947231 0.958872 0.008429
C4    C     C_R   0.945352 0.462670 0.041102 0.004762
C5    C     C_R   0.054533 0.537552 0.958942 0.012774
C6    C     C_R   0.460999 0.946432 0.041062 0.003791
C7    C     C_R   0.540074 0.052790 0.958874 0.008434
C8    C     C_R   1.000000 0.500000 0.644494 0.546712
C9    C     C_R   0.000000 0.500001 0.355602 0.526565
C10   C     C_R   0.500000 0.999998 0.644439 0.556085
C11   C     C_R   0.500000 0.000001 0.355632 0.590936
C12   C     C_R   0.500000 0.000002 0.144444 0.543396
C13   C     C_R   0.579384 0.104877 0.020303 -0.137450
C14   C     C_R   0.500000 0.000000 0.855526 0.531674
C15   C     C_R   0.000001 0.499999 0.144399 0.547101
C16   C     C_R   0.000004 0.500001 0.855613 0.549733
C17   C     C_R   0.860182 0.639637 0.750130 0.481866
C18   C     C_R   0.139320 0.359403 0.250692 0.481247
C19   C     C_R   0.360449 0.859591 0.750348 0.481675
C20   C     C_R   0.638247 0.142100 0.249324 0.497115
C21   C     C_R   0.139818 0.360364 0.750129 0.481819
C22   C     C_R   0.860680 0.640597 0.250692 0.481236
C23   C     C_R   0.639552 0.140408 0.750348 0.481660
C24   C     C_R   0.419629 0.895960 0.979692 -0.123521
C25   C     C_R   0.361753 0.857900 0.249323 0.497112
C26   C     C_R   0.859888 0.360120 0.249600 0.483641
C27   C     C_R   0.139622 0.640306 0.749750 0.483142
C28   C     C_R   0.360473 0.140003 0.249815 0.485104
C29   C     C_R   0.639565 0.859537 0.750548 0.482873
C30   C     C_R   0.140112 0.639878 0.249600 0.483636
C31   C     C_R   0.860378 0.359694 0.749748 0.483028
C32   C     C_R   0.639527 0.859997 0.249815 0.485094
C33   C     C_R   0.360435 0.140462 0.750549 0.482859
C34   C     C_R   0.195095 0.700932 0.677184 -0.146791
C35   C     C_R   0.892454 0.424536 0.020331 -0.135524
C36   C     C_R   0.795931 0.305017 0.320813 -0.111663
C37   C     C_R   0.292588 0.187001 0.678446 -0.144582
C38   C     C_R   0.709236 0.819809 0.321221 -0.138099
C39   C     C_R   0.804910 0.299046 0.677183 -0.146793
C40   C     C_R   0.204086 0.694981 0.320813 -0.111665
C41   C     C_R   0.707410 0.812985 0.678446 -0.144589
C42   C     C_R   0.290772 0.180209 0.321223 -0.138105
C43   C     C_R   0.193595 0.295521 0.323868 -0.152505
C44   C     C_R   0.817040 0.709808 0.678818 -0.140600
C45   C     C_R   0.341515 0.751868 0.315774 -0.158776
C46   C     C_R   0.107430 0.575664 0.979731 -0.137038
C47   C     C_R   0.702977 0.189813 0.678075 -0.139077
C48   C     C_R   0.806414 0.704497 0.323868 -0.152506
C49   C     C_R   0.182963 0.290185 0.678817 -0.140601
C50   C     C_R   0.658501 0.248128 0.315779 -0.158794
C51   C     C_R   0.297029 0.810162 0.678073 -0.139081
C52   C     C_R   0.700313 0.194158 0.175717 -0.144014
C53   C     C_R   0.309774 0.793869 0.822959 -0.116475
C54   C     C_R   0.786378 0.678718 0.179535 -0.141685
C55   C     C_R   0.204747 0.314531 0.822140 -0.124751
C56   C     C_R   0.299677 0.805835 0.175716 -0.144022
C57   C     C_R   0.420597 0.895150 0.020297 -0.137430
C58   C     C_R   0.690221 0.206153 0.822959 -0.116347
C59   C     C_R   0.213618 0.321267 0.179534 -0.141689
C60   C     C_R   0.795257 0.685485 0.822141 -0.124823
C61   C     C_R   0.701223 0.803183 0.824146 -0.148017
C62   C     C_R   0.320525 0.214830 0.178997 -0.143567
C63   C     C_R   0.799543 0.308011 0.822156 -0.135976
C64   C     C_R   0.193035 0.701027 0.175775 -0.144453
C65   C     C_R   0.298769 0.196823 0.824147 -0.148019
C66   C     C_R   0.679473 0.785159 0.178997 -0.143569
C67   C     C_R   0.200397 0.692074 0.822162 -0.136837
C68   C     C_R   0.580351 0.104068 0.979697 -0.123592
C69   C     C_R   0.806956 0.298965 0.175775 -0.144456
C70   C     C_R   0.225187 0.724784 0.641988 0.293803
C71   C     C_R   0.754830 0.296639 0.354716 0.324152
C72   C     C_R   0.262676 0.210535 0.642983 0.303131
C73   C     C_R   0.733340 0.794457 0.357274 0.305878
C74   C     C_R   0.774820 0.275183 0.641987 0.293798
C75   C     C_R   0.245197 0.703354 0.354714 0.324128
C76   C     C_R   0.737325 0.789448 0.642983 0.303130
C77   C     C_R   0.266674 0.205571 0.357275 0.305876
C78   C     C_R   0.219969 0.265020 0.359038 0.306715
C79   C     C_R   0.275143 0.779489 0.714235 -0.043506
C80   C     C_R   0.792892 0.738064 0.643170 0.307117
C81   C     C_R   0.317586 0.722719 0.351336 0.259038
C82   C     C_R   0.724317 0.219652 0.642387 0.297448
C83   C     C_R   0.780046 0.735010 0.359038 0.306714
C84   C     C_R   0.207112 0.261922 0.643169 0.307120
C85   C     C_R   0.682439 0.277275 0.351342 0.259059
C86   C     C_R   0.275689 0.780315 0.642386 0.297445
C87   C     C_R   0.735276 0.211626 0.140771 0.295455
C88   C     C_R   0.283830 0.765943 0.858327 0.292969
C89   C     C_R   0.753742 0.698476 0.144126 0.305423
C90   C     C_R   0.704039 0.245105 0.282290 -0.038200
C91   C     C_R   0.224272 0.284885 0.857997 0.311460
C92   C     C_R   0.264710 0.788364 0.140771 0.295444
C93   C     C_R   0.716131 0.234127 0.858325 0.292234
C94   C     C_R   0.246254 0.301504 0.144125 0.305422
C95   C     C_R   0.775728 0.715136 0.857997 0.311406
C96   C     C_R   0.731379 0.776614 0.859225 0.296788
C97   C     C_R   0.300019 0.248043 0.143851 0.306812
C98   C     C_R   0.774916 0.281379 0.857657 0.260464
C99   C     C_R   0.211579 0.735337 0.140745 0.294631
C100  C     C_R   0.268615 0.223401 0.859225 0.296786
C101  C     C_R   0.217490 0.272278 0.714619 -0.039929
C102  C     C_R   0.699978 0.751938 0.143851 0.306817
C103  C     C_R   0.225001 0.718756 0.857663 0.260495
C104  C     C_R   0.788406 0.264653 0.140745 0.294624
C105  C     C_R   0.500000 0.999997 0.520716 -0.019755
C106  C     C_R   0.499999 0.000000 0.479538 -0.013539
C107  C     C_R   0.999999 0.500002 0.520789 -0.019409
C108  C     C_R   1.000000 0.500002 0.479660 -0.023969
C109  C     C_R   0.000003 0.500001 0.020590 -0.020434
C110  C     C_R   0.000003 0.500003 0.979458 -0.015567
C111  C     C_R   0.499993 0.000011 0.020539 -0.021494
C112  C     C_R   0.374306 0.961894 0.479920 -0.129829
C113  C     C_R   0.780130 0.727833 0.286797 -0.041064
C114  C     C_R   0.499994 0.000010 0.979389 -0.027162
C115  C     C_3   0.134273 0.741241 0.900250 -0.062289
C116  C     C_3   0.889896 0.261583 0.103509 -0.076934
C117  C     C_3   0.346936 0.170950 0.903675 -0.136763
C118  C     C_3   0.679335 0.837424 0.096981 -0.131537
C119  C     C_3   0.864771 0.258217 0.900671 -0.062970
C120  C     C_3   0.110082 0.738408 0.103514 -0.076895
C121  C     C_3   0.653048 0.829063 0.903673 -0.136801
C122  C     C_3   0.320663 0.162551 0.096981 -0.131529
C123  C     C_3   0.160620 0.320719 0.097496 -0.132858
C124  C     C_R   0.724861 0.220497 0.714235 -0.043495
C125  C     C_3   0.752636 0.647521 0.912010 -0.116819
C126  C     C_3   0.262015 0.890800 0.103922 -0.075970
C127  C     C_3   0.663543 0.271062 0.916317 -0.085597
C128  C     C_3   0.839376 0.679255 0.097497 -0.132869
C129  C     C_3   0.247369 0.352502 0.912011 -0.116790
C130  C     C_3   0.737970 0.109188 0.103918 -0.076007
C131  C     C_3   0.336358 0.729040 0.916339 -0.085067
C132  C     C_3   0.573608 0.318500 0.375954 -0.111129
C133  C     C_3   0.372984 0.786620 0.602122 -0.070329
C134  C     C_3   0.866545 0.688095 0.400981 -0.124058
C135  C     C_R   0.295969 0.754894 0.282288 -0.038199
C136  C     C_3   0.185085 0.352229 0.599073 -0.126813
C137  C     C_3   0.426406 0.681455 0.375939 -0.111096
C138  C     C_3   0.627022 0.213348 0.602121 -0.070319
C139  C     C_3   0.133478 0.311938 0.400985 -0.124047
C140  C     C_3   0.814923 0.647752 0.599073 -0.126810
C141  C     C_3   0.647547 0.796793 0.597892 -0.133849
C142  C     C_3   0.255651 0.111294 0.399427 -0.088823
C143  C     C_3   0.766674 0.373278 0.602165 -0.074732
C144  C     C_3   0.205976 0.750903 0.412140 -0.095369
C145  C     C_3   0.352457 0.203174 0.597896 -0.133853
C146  C     C_R   0.782512 0.727718 0.714619 -0.039932
C147  C     C_3   0.744374 0.888742 0.399424 -0.088805
C148  C     C_3   0.233330 0.626682 0.602166 -0.074731
C149  C     C_3   0.794072 0.249073 0.412131 -0.095387
C150  C     C_3   0.332698 0.011453 0.612171 -0.087731
C151  C     C_3   0.630372 0.112831 0.392885 -0.103655
C152  C     C_3   0.981115 0.332918 0.609063 -0.085039
C153  C     C_3   0.041844 0.661647 0.389019 -0.116129
C154  C     C_3   0.667302 0.988520 0.612170 -0.087719
C155  C     C_3   0.369626 0.887173 0.392878 -0.103641
C156  C     C_3   0.018883 0.667084 0.609074 -0.085033
C157  C     C_R   0.219873 0.272176 0.286797 -0.041064
C158  C     C_3   0.958177 0.338352 0.389013 -0.116122
C159  C     C_3   0.834000 0.480230 0.110096 -0.088198
C160  C     C_3   0.166306 0.520923 0.890833 -0.104320
C161  C     C_3   0.477988 0.833292 0.109353 -0.089677
C162  C     C_3   0.525496 0.162406 0.887410 -0.112057
C163  C     C_3   0.166008 0.519757 0.110097 -0.088198
C164  C     C_3   0.833713 0.479110 0.890826 -0.104140
C165  C     C_3   0.521999 0.166718 0.109367 -0.089671
C166  C     C_3   0.474488 0.837596 0.887413 -0.112125
C167  C     C_R   0.271752 0.215678 0.285898 -0.044109
C168  C     C_R   0.727464 0.781024 0.714647 -0.039406
C169  C     C_R   0.231796 0.714684 0.283717 -0.049508
C170  C     C_R   0.777986 0.275319 0.713867 -0.044630
C171  C     C_R   0.728252 0.784331 0.285897 -0.044108
C172  C     C_R   0.080133 0.604206 0.520599 -0.136071
C173  C     C_R   0.272535 0.218969 0.714648 -0.039401
C174  C     C_R   0.768213 0.285314 0.283718 -0.049507
C175  C     C_R   0.222017 0.724670 0.713868 -0.044659
C176  C     C_R   0.778556 0.275786 0.212199 -0.044582
C177  C     C_R   0.224537 0.720683 0.785989 -0.045824
C178  C     C_R   0.715421 0.769350 0.214631 -0.042109
C179  C     C_R   0.276743 0.224319 0.787029 -0.040956
C180  C     C_R   0.221440 0.724209 0.212199 -0.044582
C181  C     C_R   0.775440 0.279350 0.785987 -0.045968
C182  C     C_R   0.284578 0.230644 0.214631 -0.042107
C183  C     C_R   0.917320 0.397921 0.480051 -0.118162
C184  C     C_R   0.723255 0.775685 0.787029 -0.040955
C185  C     C_R   0.774314 0.718444 0.786385 -0.043762
C186  C     C_R   0.230207 0.284722 0.214970 -0.039832
C187  C     C_R   0.720639 0.226203 0.786361 -0.047698
C188  C     C_R   0.276861 0.776932 0.212073 -0.047873
C189  C     C_R   0.225688 0.281564 0.786385 -0.043755
C190  C     C_R   0.769791 0.715270 0.214971 -0.039829
C191  C     C_R   0.279353 0.773814 0.786361 -0.047687
C192  C     C_R   0.723134 0.223064 0.212073 -0.047875
C193  C     C_R   0.304067 0.803633 0.750381 0.029011
C194  C     C_R   0.375053 0.959588 0.520466 -0.124399
C195  C     C_R   0.688241 0.204643 0.247691 0.021170
C196  C     C_R   0.195901 0.304496 0.750330 0.034914
C197  C     C_R   0.803309 0.695862 0.250860 0.035354
C198  C     C_R   0.695937 0.196363 0.750382 0.029021
C199  C     C_R   0.311758 0.795357 0.247690 0.021169
C200  C     C_R   0.804101 0.695506 0.750331 0.034906
C201  C     C_R   0.196690 0.304136 0.250859 0.035349
C202  C     C_R   0.304108 0.195728 0.250005 0.034717
C203  C     C_R   0.696939 0.804151 0.750788 0.033566
C204  C     C_R   0.197081 0.695211 0.248458 0.023437
C205  C     C_R   0.625692 0.038106 0.479923 -0.129820
C206  C     C_R   0.804019 0.303768 0.749827 0.030512
C207  C     C_R   0.695893 0.804273 0.250005 0.034719
C208  C     C_R   0.303059 0.195847 0.750788 0.033572
C209  C     C_R   0.802921 0.304785 0.248457 0.023436
C210  C     C_R   0.195975 0.696238 0.749828 0.030553
C211  C     C_R   0.437552 0.978600 0.582204 0.192566
C212  C     C_R   0.562476 0.021459 0.418000 0.212925
C213  C     C_R   0.964312 0.444409 0.582174 0.198055
C214  C     C_R   0.042001 0.551079 0.418216 0.220619
C215  C     C_R   0.562450 0.021387 0.582205 0.192562
C216  C     C_R   0.919865 0.395798 0.520593 -0.136075
C217  C     C_R   0.437521 0.978547 0.417998 0.212917
C218  C     C_R   0.035685 0.555594 0.582177 0.198057
C219  C     C_R   0.958003 0.448921 0.418213 0.220624
C220  C     C_R   0.944207 0.464801 0.082031 0.197876
C221  C     C_R   0.055443 0.535636 0.917992 0.219436
C222  C     C_R   0.463679 0.944790 0.081985 0.198898
C223  C     C_R   0.538328 0.053847 0.917926 0.218076
C224  C     C_R   0.055800 0.535194 0.082033 0.197875
C225  C     C_R   0.944566 0.464369 0.917990 0.219721
C226  C     C_R   0.536311 0.055226 0.081989 0.198899
C227  C     C_R   0.082679 0.602083 0.480057 -0.118161
C228  C     C_R   0.461666 0.946166 0.917924 0.218108
C229  C     C_R   0.500000 0.999995 0.602224 0.027483
C230  C     C_R   0.499998 0.000004 0.397962 0.057278
C231  C     C_R   0.999999 0.500001 0.602251 0.021683
C232  C     C_R   0.000002 0.500001 0.398021 0.010869
C233  C     C_R   0.000004 0.499996 0.102113 0.021091
C234  C     C_R   0.000005 0.500002 0.897937 0.042543
C235  C     C_R   0.499998 0.000005 0.102107 0.021383
C236  C     C_R   0.500000 0.000003 0.897847 0.010472
C237  C     C_R   0.562748 0.021043 0.541250 0.006173
C238  C     C_R   0.107546 0.575475 0.020337 -0.135468
C239  C     C_R   0.436819 0.980147 0.459021 0.018777
C240  C     C_R   0.039056 0.553499 0.541311 0.004627
C241  C     C_R   0.957938 0.448878 0.459180 0.010882
C242  C     C_R   0.437252 0.978949 0.541248 0.006181
C243  C     C_R   0.563179 0.019856 0.459022 0.018784
C244  C     C_R   0.960941 0.446505 0.541308 0.004631
C245  C     C_R   0.042063 0.551124 0.459183 0.010887
C246  C     C_R   0.054654 0.537332 0.041105 0.004743
C247  C     C_R   0.945472 0.462457 0.958940 0.012813
C248  C     C_R   0.538987 0.053589 0.041065 0.003802
H1    H     H_    0.150813 0.663611 0.674669 0.176042
H2    H     H_    0.864338 0.675240 0.677826 0.135707
H3    H     H_    0.378947 0.726453 0.602668 0.083411
H4    H     H_    0.408966 0.811534 0.624348 0.148414
H5    H     H_    0.391219 0.805549 0.572994 0.158881
H6    H     H_    0.902245 0.730890 0.388728 0.072407
H7    H     H_    0.879243 0.633785 0.388527 0.130907
H8    H     H_    0.877505 0.685002 0.432809 0.153246
H9    H     H_    0.243976 0.363818 0.597722 0.114709
H10   H     H_    0.157838 0.389750 0.619926 0.114023
H11   H     H_    0.162119 0.363352 0.569713 0.148171
H12   H     H_    0.466739 0.718761 0.363012 0.120067
H13   H     H_    0.396888 0.767766 0.315209 0.167037
H14   H     H_    0.418065 0.633356 0.356713 0.130173
H15   H     H_    0.449332 0.661142 0.403855 0.160162
H16   H     H_    0.621065 0.273515 0.602665 0.083411
H17   H     H_    0.591037 0.188445 0.624348 0.148416
H18   H     H_    0.608784 0.194412 0.572994 0.158874
H19   H     H_    0.097781 0.269132 0.388739 0.072404
H20   H     H_    0.120767 0.366242 0.388529 0.130909
H21   H     H_    0.122527 0.315041 0.432814 0.153247
H22   H     H_    0.756033 0.636163 0.597719 0.114711
H23   H     H_    0.842167 0.610234 0.619927 0.114032
H24   H     H_    0.669196 0.142433 0.676507 0.170406
H25   H     H_    0.837893 0.636626 0.569715 0.148172
H26   H     H_    0.606002 0.816141 0.619026 0.106155
H27   H     H_    0.646261 0.736498 0.595447 0.121224
H28   H     H_    0.633129 0.819550 0.568880 0.147931
H29   H     H_    0.264746 0.069694 0.376318 0.128542
H30   H     H_    0.196821 0.122325 0.403089 0.106921
H31   H     H_    0.276066 0.088291 0.427322 0.169461
H32   H     H_    0.789189 0.412193 0.623759 0.148457
H33   H     H_    0.706751 0.372142 0.604496 0.085635
H34   H     H_    0.780027 0.393804 0.572599 0.149597
H35   H     H_    0.845194 0.661047 0.326256 0.144297
H36   H     H_    0.177508 0.793685 0.394824 0.065162
H37   H     H_    0.258184 0.771741 0.423230 0.157286
H38   H     H_    0.171945 0.739436 0.437950 0.126150
H39   H     H_    0.393999 0.183823 0.619029 0.106164
H40   H     H_    0.353751 0.263469 0.595451 0.121222
H41   H     H_    0.366875 0.180414 0.568883 0.147924
H42   H     H_    0.735282 0.930338 0.376315 0.128529
H43   H     H_    0.803203 0.877706 0.403086 0.106922
H44   H     H_    0.723963 0.911753 0.427319 0.169461
H45   H     H_    0.210817 0.587772 0.623762 0.148441
H46   H     H_    0.135667 0.324754 0.677825 0.135704
H47   H     H_    0.293253 0.627819 0.604495 0.085641
H48   H     H_    0.219973 0.606149 0.572602 0.149591
H49   H     H_    0.822535 0.206298 0.394807 0.065164
H50   H     H_    0.741867 0.228228 0.423223 0.157278
H51   H     H_    0.828110 0.260532 0.437941 0.126136
H52   H     H_    0.312717 0.039586 0.585470 0.157777
H53   H     H_    0.360018 0.050487 0.631819 0.122522
H54   H     H_    0.285069 0.990160 0.627997 0.158703
H55   H     H_    0.634580 0.140936 0.421517 0.132373
H56   H     H_    0.584180 0.136054 0.376279 0.173209
H57   H     H_    0.603129 0.232228 0.315216 0.167021
H58   H     H_    0.680318 0.124443 0.376213 0.136974
H59   H     H_    0.025477 0.350731 0.628649 0.113074
H60   H     H_    0.003601 0.311778 0.581070 0.139861
H61   H     H_    0.953212 0.287363 0.623757 0.163961
H62   H     H_    0.016476 0.685253 0.415677 0.083925
H63   H     H_    0.000904 0.648712 0.366422 0.084502
H64   H     H_    0.076535 0.704368 0.376581 0.145346
H65   H     H_    0.639978 0.949484 0.631814 0.122531
H66   H     H_    0.714932 0.009805 0.627998 0.158703
H67   H     H_    0.687280 0.960389 0.585467 0.157776
H68   H     H_    0.330809 0.857543 0.676505 0.170403
H69   H     H_    0.365422 0.859067 0.421509 0.132362
H70   H     H_    0.415817 0.863949 0.376271 0.173238
H71   H     H_    0.319680 0.875559 0.376207 0.136960
H72   H     H_    0.974522 0.649270 0.628659 0.113078
H73   H     H_    0.996394 0.688224 0.581082 0.139871
H74   H     H_    0.046787 0.712639 0.623770 0.163940
H75   H     H_    0.983543 0.314749 0.415671 0.083929
H76   H     H_    0.999118 0.351291 0.366418 0.084497
H77   H     H_    0.923493 0.295626 0.376571 0.145339
H78   H     H_    0.812462 0.504548 0.082637 0.139784
H79   H     H_    0.653588 0.159913 0.173207 0.175250
H80   H     H_    0.852005 0.523599 0.130393 0.116615
H81   H     H_    0.789002 0.451164 0.124488 0.158915
H82   H     H_    0.147992 0.471420 0.875126 0.119416
H83   H     H_    0.192820 0.505887 0.918853 0.107745
H84   H     H_    0.207534 0.547336 0.872257 0.143101
H85   H     H_    0.522018 0.850427 0.129333 0.114011
H86   H     H_    0.501008 0.811668 0.081593 0.136751
H87   H     H_    0.448834 0.788270 0.123807 0.158112
H88   H     H_    0.501992 0.187726 0.914093 0.087632
H89   H     H_    0.482749 0.142465 0.867490 0.081105
H90   H     H_    0.354893 0.830359 0.824847 0.174625
H91   H     H_    0.553727 0.205573 0.871111 0.147878
H92   H     H_    0.187545 0.495445 0.082636 0.139785
H93   H     H_    0.148003 0.476385 0.130389 0.116617
H94   H     H_    0.211006 0.548821 0.124493 0.158903
H95   H     H_    0.852048 0.528619 0.875134 0.119230
H96   H     H_    0.807183 0.494135 0.918843 0.107653
H97   H     H_    0.792491 0.452724 0.872234 0.143189
H98   H     H_    0.477972 0.149578 0.129347 0.114008
H99   H     H_    0.498973 0.188345 0.081610 0.136776
H100  H     H_    0.551151 0.211740 0.123824 0.158093
H101  H     H_    0.822986 0.632844 0.178712 0.136816
H102  H     H_    0.498002 0.812295 0.914098 0.087618
H103  H     H_    0.517228 0.857522 0.867484 0.081140
H104  H     H_    0.446248 0.794417 0.871125 0.147787
H105  H     H_    0.849976 0.325792 0.323918 0.155859
H106  H     H_    0.171514 0.362945 0.823162 0.143334
H107  H     H_    0.346402 0.840080 0.173206 0.175236
H108  H     H_    0.645120 0.169640 0.824848 0.174693
H109  H     H_    0.177009 0.367140 0.178711 0.136820
H110  H     H_    0.828494 0.637074 0.823164 0.143337
H111  H     H_    0.663256 0.847103 0.826878 0.151628
H112  H     H_    0.366175 0.178049 0.177864 0.133363
H113  H     H_    0.837859 0.351447 0.824324 0.184522
H114  H     H_    0.157305 0.655402 0.173254 0.179462
H115  H     H_    0.336730 0.152899 0.826879 0.151634
H116  H     H_    0.330012 0.142098 0.676835 0.138329
H117  H     H_    0.633824 0.821941 0.177864 0.133364
H118  H     H_    0.162080 0.648643 0.824337 0.184197
H119  H     H_    0.842688 0.344588 0.173254 0.179445
H120  H     H_    0.673754 0.056641 0.535431 0.172463
H121  H     H_    0.324488 0.948606 0.465098 0.139926
H122  H     H_    0.110840 0.645500 0.535620 0.179255
H123  H     H_    0.884190 0.358732 0.465128 0.168395
H124  H     H_    0.326246 0.943349 0.535427 0.172450
H125  H     H_    0.675510 0.051396 0.465102 0.139924
H126  H     H_    0.889157 0.354504 0.535611 0.179233
H127  H     H_    0.674026 0.866799 0.321852 0.156005
H128  H     H_    0.115809 0.641273 0.465137 0.168366
H129  H     H_    0.149477 0.605158 0.035382 0.182464
H130  H     H_    0.850719 0.394525 0.964713 0.170414
H131  H     H_    0.610563 0.145811 0.035350 0.182433
H132  H     H_    0.387221 0.856170 0.964700 0.177552
H133  H     H_    0.850519 0.394857 0.035374 0.182405
H134  H     H_    0.149269 0.605509 0.964720 0.170531
H135  H     H_    0.389414 0.854218 0.035343 0.182439
H136  H     H_    0.612752 0.143865 0.964706 0.177485
H137  H     H_    0.091950 0.737020 0.877269 0.150577
H138  H     H_    0.849188 0.336371 0.674668 0.176020
H139  H     H_    0.151429 0.798705 0.903824 0.134248
H140  H     H_    0.109797 0.723775 0.928263 0.149891
H141  H     H_    0.893124 0.201439 0.106482 0.086898
H142  H     H_    0.924499 0.288042 0.125860 0.146852
H143  H     H_    0.911986 0.275875 0.074397 0.149524
H144  H     H_    0.383084 0.216883 0.896062 0.064017
H145  H     H_    0.364395 0.119573 0.889427 0.138901
H146  H     H_    0.351268 0.162460 0.935683 0.150514
H147  H     H_    0.738614 0.844965 0.093531 0.115766
H148  H     H_    0.656602 0.879079 0.117140 0.109642
H149  H     H_    0.150041 0.674207 0.323920 0.155858
H150  H     H_    0.654071 0.846384 0.067965 0.143217
H151  H     H_    0.907237 0.260951 0.877694 0.149632
H152  H     H_    0.846556 0.201207 0.904728 0.135268
H153  H     H_    0.889494 0.276077 0.928548 0.149632
H154  H     H_    0.106856 0.798551 0.106489 0.086914
H155  H     H_    0.075483 0.711949 0.125865 0.146831
H156  H     H_    0.087987 0.724116 0.074403 0.149551
H157  H     H_    0.616906 0.783124 0.896058 0.064049
H158  H     H_    0.635583 0.880435 0.889425 0.138882
H159  H     H_    0.648712 0.837556 0.935680 0.150491
H160  H     H_    0.669983 0.857885 0.676833 0.138332
H161  H     H_    0.261384 0.155009 0.093530 0.115779
H162  H     H_    0.343395 0.120898 0.117141 0.109649
H163  H     H_    0.345929 0.153586 0.067966 0.143230
H164  H     H_    0.118672 0.341206 0.118068 0.110222
H165  H     H_    0.155174 0.261022 0.093302 0.117405
H166  H     H_    0.150522 0.347088 0.068840 0.143911
H167  H     H_    0.728820 0.604329 0.893337 0.065820
H168  H     H_    0.709368 0.683829 0.923451 0.152838
H169  H     H_    0.778334 0.620759 0.937559 0.138466
H170  H     H_    0.288435 0.925098 0.126467 0.148223
H171  H     H_    0.325981 0.133218 0.321854 0.156002
H172  H     H_    0.202226 0.894284 0.106876 0.086763
H173  H     H_    0.276362 0.913437 0.074927 0.150650
H174  H     H_    0.648527 0.320115 0.898888 0.089947
H175  H     H_    0.706026 0.284409 0.937965 0.172710
H176  H     H_    0.614920 0.256020 0.933196 0.106420
H177  H     H_    0.881325 0.658772 0.118070 0.110226
H178  H     H_    0.844821 0.738952 0.093302 0.117402
H179  H     H_    0.849474 0.652881 0.068842 0.143893
H180  H     H_    0.271190 0.395692 0.893339 0.065783
H181  H     H_    0.290633 0.316190 0.923452 0.152818
H182  H     H_    0.154814 0.338971 0.326257 0.144309
H183  H     H_    0.221673 0.379268 0.937560 0.138491
H184  H     H_    0.711556 0.074890 0.126464 0.148234
H185  H     H_    0.797760 0.105708 0.106869 0.086745
H186  H     H_    0.723619 0.086548 0.074924 0.150598
H187  H     H_    0.351288 0.679933 0.898932 0.089721
H188  H     H_    0.293881 0.715790 0.938008 0.173062
H189  H     H_    0.385025 0.744045 0.933193 0.106199
H190  H     H_    0.533283 0.281163 0.363044 0.120065
H191  H     H_    0.581913 0.366586 0.356716 0.130163
H192  H     H_    0.550692 0.338828 0.403870 0.160166
O1    O     O_3   0.000000 0.500000 0.750000 -0.447472
O2    O     O_R   0.060740 0.500000 0.337440 -0.517965
O3    O     O_3   0.424959 0.893230 0.897339 -0.509950
O4    O     O_R   0.500000 0.939260 0.662560 -0.548734
O5    O     O_R   0.500000 0.060740 0.337440 -0.545889
O6    O     O_R   0.560740 1.000000 0.162560 -0.540682
O7    O     O_R   0.439260 1.000000 0.837440 -0.525679
O8    O     O_R   0.000000 0.560740 0.162560 -0.539634
O9    O     O_R   1.000000 0.439260 0.837440 -0.522585
O10   O     O_R   0.439260 1.000000 0.162560 -0.540675
O11   O     O_R   0.560740 1.000000 0.837440 -0.525711
O12   O     O_R   0.000000 0.439260 0.162560 -0.539636
O13   O     O_3   0.000000 0.500000 0.250000 -0.448437
O14   O     O_R   0.000000 0.560740 0.837440 -0.523059
O15   O     O_R   0.853850 0.585450 0.727070 -0.558977
O16   O     O_R   0.146150 0.414550 0.272930 -0.545346
O17   O     O_R   0.414550 0.853850 0.727070 -0.557459
O18   O     O_R   0.585450 0.146150 0.272930 -0.565474
O19   O     O_R   0.146150 0.414550 0.727070 -0.559005
O20   O     O_R   0.853850 0.585450 0.272930 -0.545349
O21   O     O_R   0.585450 0.146150 0.727070 -0.557446
O22   O     O_R   0.414550 0.853850 0.272930 -0.565474
O23   O     O_R   0.853850 0.414550 0.272930 -0.529298
O24   O     O_3   0.500000 1.000000 0.750000 -0.445286
O25   O     O_R   0.146150 0.585450 0.727070 -0.554821
O26   O     O_R   0.414550 0.146150 0.272930 -0.547679
O27   O     O_R   0.585450 0.853850 0.727070 -0.559336
O28   O     O_R   0.146150 0.585450 0.272930 -0.529307
O29   O     O_R   0.853850 0.414550 0.727070 -0.554863
O30   O     O_R   0.585450 0.853850 0.272930 -0.547674
O31   O     O_R   0.414550 0.146150 0.727070 -0.559335
O32   O     O_R   0.353850 0.085450 0.227070 -0.554674
O33   O     O_R   0.646150 0.914550 0.772930 -0.547148
O34   O     O_R   0.914550 0.353850 0.227070 -0.560169
O35   O     O_3   0.500000 1.000000 0.250000 -0.439668
O36   O     O_R   0.085450 0.646150 0.772930 -0.545588
O37   O     O_R   0.646150 0.914550 0.227070 -0.554678
O38   O     O_R   0.353850 0.085450 0.772930 -0.547148
O39   O     O_R   0.085450 0.646150 0.227070 -0.560166
O40   O     O_R   0.914550 0.353850 0.772930 -0.545346
O41   O     O_R   0.353850 0.914550 0.772930 -0.532727
O42   O     O_R   0.646150 0.085450 0.227070 -0.548405
O43   O     O_R   0.914550 0.646150 0.772930 -0.540888
O44   O     O_R   0.085450 0.353850 0.227070 -0.557579
O45   O     O_R   0.646150 0.085450 0.772930 -0.532760
O46   O     O_R   0.060740 0.500000 0.662560 -0.539620
O47   O     O_R   0.353850 0.914550 0.227070 -0.548408
O48   O     O_R   0.085450 0.353850 0.772930 -0.540802
O49   O     O_R   0.914550 0.646150 0.227070 -0.557576
O50   O     O_3   0.193605 0.695364 0.891944 -0.562844
O51   O     O_3   0.817866 0.286818 0.105638 -0.517752
O52   O     O_3   0.274396 0.186423 0.894490 -0.525435
O53   O     O_3   0.663074 0.766391 0.109524 -0.544655
O54   O     O_3   0.806291 0.304901 0.891917 -0.562669
O55   O     O_3   0.182113 0.713172 0.105639 -0.517716
O56   O     O_3   0.725590 0.813595 0.894490 -0.525481
O57   O     O_R   0.939260 0.500000 0.337440 -0.517960
O58   O     O_3   0.336923 0.233586 0.109524 -0.544666
O59   O     O_3   0.230752 0.338961 0.110062 -0.547101
O60   O     O_3   0.805885 0.686869 0.891741 -0.535702
O61   O     O_3   0.286752 0.818198 0.105729 -0.518535
O62   O     O_3   0.685564 0.211014 0.893153 -0.525822
O63   O     O_3   0.769244 0.661015 0.110062 -0.547103
O64   O     O_3   0.194117 0.313159 0.891740 -0.535570
O65   O     O_3   0.713230 0.181789 0.105729 -0.518541
O66   O     O_3   0.314383 0.789075 0.893156 -0.525193
O67   O     O_3   0.638624 0.281002 0.384226 -0.584316
O68   O     O_R   0.500000 0.060740 0.662560 -0.548734
O69   O     O_3   0.300407 0.808421 0.607434 -0.512449
O70   O     O_3   0.793009 0.704842 0.395619 -0.514006
O71   O     O_3   0.172207 0.278853 0.608538 -0.542477
O72   O     O_3   0.361412 0.718990 0.384216 -0.584329
O73   O     O_3   0.699597 0.191540 0.607435 -0.512440
O74   O     O_3   0.207014 0.295201 0.395618 -0.514003
O75   O     O_3   0.827799 0.721130 0.608540 -0.542484
O76   O     O_3   0.717062 0.821290 0.608052 -0.553659
O77   O     O_3   0.293622 0.175666 0.391391 -0.522002
O78   O     O_3   0.797429 0.303361 0.606666 -0.520268
O79   O     O_R   0.500000 0.939260 0.337440 -0.545873
O80   O     O_3   0.215823 0.686041 0.390605 -0.498264
O81   O     O_3   0.282938 0.178687 0.608053 -0.553657
O82   O     O_3   0.706397 0.824372 0.391390 -0.521988
O83   O     O_3   0.202575 0.696600 0.606667 -0.520251
O84   O     O_3   0.784214 0.313942 0.390607 -0.498257
O85   O     O_3   0.378665 0.952748 0.602765 -0.571483
O86   O     O_3   0.624669 0.036901 0.397184 -0.605302
O87   O     O_3   0.930668 0.389493 0.602723 -0.564617
O88   O     O_3   0.084338 0.599941 0.397858 -0.505037
O89   O     O_3   0.621340 0.047231 0.602769 -0.571481
O90   O     O_R   0.939260 0.500000 0.662560 -0.539620
O91   O     O_3   0.375329 0.963103 0.397180 -0.605310
O92   O     O_3   0.069329 0.610509 0.602729 -0.564595
O93   O     O_3   0.915674 0.400054 0.397852 -0.505031
O94   O     O_3   0.890182 0.429996 0.102598 -0.563062
O95   O     O_3   0.109070 0.570482 0.897197 -0.539731
O96   O     O_3   0.428697 0.890682 0.102520 -0.562183
O97   O     O_3   0.575032 0.106783 0.897342 -0.509988
O98   O     O_3   0.109827 0.569994 0.102603 -0.563054
O99   O     O_3   0.890933 0.429531 0.897193 -0.538864
O100  O     O_3   0.571292 0.109333 0.102527 -0.562170
Zn1   Zn    Zn3+2 0.000000 0.586740 0.782740 0.940776
Zn2   Zn    Zn3+2 0.500000 0.913260 0.717260 0.907666
Zn3   Zn    Zn3+2 0.913260 0.500000 0.282740 0.945159
Zn4   Zn    Zn3+2 0.086740 0.500000 0.717260 0.909994
Zn5   Zn    Zn3+2 0.500000 0.913260 0.282740 0.929016
Zn6   Zn    Zn3+2 0.500000 0.086740 0.717260 0.907662
Zn7   Zn    Zn3+2 0.086740 0.500000 0.282740 0.945159
Zn8   Zn    Zn3+2 0.913260 0.500000 0.717260 0.909990
Zn9   Zn    Zn3+2 0.000000 0.413260 0.217260 0.908023
Zn10  Zn    Zn3+2 0.413260 1.000000 0.782740 0.941856
Zn11  Zn    Zn3+2 0.586740 1.000000 0.217260 0.917369
Zn12  Zn    Zn3+2 0.000000 0.413260 0.782740 0.941306
Zn13  Zn    Zn3+2 0.000000 0.586740 0.217260 0.908018
Zn14  Zn    Zn3+2 0.586740 1.000000 0.782740 0.941822
Zn15  Zn    Zn3+2 0.413260 1.000000 0.217260 0.917373
Zn16  Zn    Zn3+2 0.500000 0.086740 0.282740 0.929010

loop_
_geom_bond_atom_site_label_1
_geom_bond_atom_site_label_2
_ccdc_geom_bond_type
C225  C247  A    
C163  H92   S    
C33   C208  S    
C216  C244  A    
C177  C191  A    
C221  C234  A    
C163  O98   S    
C212  O86   S    
C106  C243  A    
C84   O71   S    
C181  C187  A    
C214  O88   S    
C38   C171  A    
C147  H43   S    
C139  H21   S    
C23   O45   A    
C18   O44   A    
O33   Zn14  S    
C63   C98   A    
C135  C199  A    
C122  H161  S    
C222  O96   S    
O41   Zn10  S    
C228  O3    S    
C55   H106  S    
C59   C186  A    
C35   H133  S    
C175  C210  A    
C87   O65   S    
C75   O80   S    
C25   O47   A    
C215  O89   S    
C7    C68   A    
C47   H24   S    
C50   C90   A    
C125  H169  S    
C90   C195  A    
C111  C248  A    
C57   H135  S    
C92   O61   S    
C125  H167  S    
C30   O39   A    
C31   O29   A    
C218  C240  A    
C91   C100  A    
C119  H153  S    
C219  C232  A    
C36   C71   A    
C22   O20   A    
C137  H14   S    
C160  H83   S    
O6    Zn11  S    
C20   O18   A    
O11   Zn14  S    
O25   Zn4   S    
C132  H192  S    
C131  H189  S    
C213  O87   S    
C94   C97   A    
O27   Zn2   S    
C165  H98   S    
C127  H174  S    
C142  H29   S    
C40   C169  A    
C141  O76   S    
C52   H79   S    
C128  H179  S    
C161  H86   S    
C143  H33   S    
C93   O62   S    
C31   O40   A    
C192  C195  A    
C120  H155  S    
C133  H5    S    
C143  O78   S    
C159  O94   S    
C34   C70   A    
C149  O84   S    
C117  H144  S    
C65   H115  S    
C159  H78   S    
C219  C241  A    
C166  H103  S    
C14   O11   A    
C128  H178  S    
C25   C199  S    
C140  O75   S    
C7    C223  A    
C154  H67   S    
C136  O71   S    
C158  H75   S    
C152  H59   S    
C32   O37   A    
C70   O83   S    
O1    Zn12  S    
O57   Zn3   S    
C133  H4    S    
C72   C84   A    
C31   C206  S    
C148  O83   S    
O35   Zn11  S    
C106  C239  A    
C13   H131  S    
C43   H182  S    
C116  H142  S    
C139  O74   S    
C24   H132  S    
C50   H57   S    
C42   C167  A    
C7    C114  A    
C107  C240  A    
C139  H19   S    
C54   H101  S    
C8    O46   A    
O1    Zn4   S    
C45   C81   A    
C170  C206  A    
C155  H70   S    
C11   O79   A    
C103  O50   S    
C5    C46   A    
C90   C174  A    
O18   Zn16  S    
C99   O55   S    
C138  O73   S    
C41   C76   A    
O47   Zn15  S    
C96   O56   S    
C189  C196  A    
C126  H172  S    
O46   Zn4   S    
C29   O27   A    
C18   C201  S    
C10   C229  S    
C21   C196  S    
C146  C200  A    
C8    O90   A    
C221  O95   S    
C216  H126  S    
C60   C95   A    
O10   Zn15  S    
C13   C248  A    
O37   Zn11  S    
C105  C237  A    
C42   H171  S    
C165  H100  S    
C130  H184  S    
O90   Zn8   S    
C3    C228  A    
C73   C83   A    
C153  H63   S    
C190  C197  A    
C6    C222  A    
C110  C247  A    
C140  H25   S    
C154  O89   S    
C4    C109  A    
O20   Zn3   S    
C63   C181  A    
C22   O49   A    
C6    C111  A    
C22   C197  S    
C101  C173  A    
O24   Zn14  S    
C61   C96   A    
C67   C103  A    
O5    Zn16  S    
O13   Zn13  S    
C148  H45   S    
C163  H93   S    
O49   Zn13  S    
C225  C234  A    
C74   O78   S    
C49   C84   A    
C134  H7    S    
O23   Zn3   S    
C172  C227  A    
C39   C74   A    
C153  O88   S    
C5    C110  A    
C144  O80   S    
C150  H53   S    
C184  C185  A    
C167  C202  A    
C145  H40   S    
C150  H54   S    
C64   C99   A    
C117  H145  S    
C117  H146  S    
C24   C57   A    
C118  H150  S    
C161  O96   S    
C108  C241  A    
C107  C108  A    
O40   Zn12  S    
C151  O86   S    
C215  C237  A    
C34   H1    S    
C121  O56   S    
C213  C231  A    
C101  C196  A    
C164  H95   S    
C69   H119  S    
C211  C242  A    
C3    C24   A    
O2    Zn7   S    
O24   Zn10  S    
C72   O81   S    
O13   Zn3   S    
C66   H117  S    
C160  H82   S    
O13   Zn9   S    
C45   C135  A    
C137  O72   S    
C73   O82   S    
C187  C198  A    
C144  H38   S    
C220  C233  A    
O22   Zn5   S    
C127  H175  S    
C211  O85   S    
C1    C237  A    
C126  H170  S    
O36   Zn1   S    
C129  O64   S    
C177  C210  A    
C28   O32   A    
C15   O8    A    
C120  H154  S    
C71   O84   S    
C217  C230  A    
C26   O34   A    
C62   C97   A    
C119  H151  S    
C45   H13   S    
C179  C189  A    
O38   Zn10  S    
C122  O58   S    
C41   H160  S    
C115  H139  S    
C86   O69   S    
C112  C194  A    
C77   O77   S    
C172  C240  A    
C224  C246  A    
C123  H166  S    
C138  H16   S    
C30   O28   A    
C157  C201  A    
C141  H27   S    
C171  C207  A    
C27   O25   A    
C121  H158  S    
C148  H47   S    
C133  H3    S    
C61   C184  A    
C131  H187  S    
C16   O9    A    
C54   C190  A    
C58   C187  A    
C213  C244  A    
C224  O98   S    
C76   C80   A    
C43   C157  A    
C3    C114  A    
C226  C248  A    
C36   H105  S    
C138  H17   S    
O35   Zn15  S    
C68   H136  S    
C79   C193  A    
C48   C83   A    
C33   O38   A    
C29   O33   A    
C181  C206  A    
C27   O36   A    
O12   Zn9   S    
C169  C204  A    
C122  H162  S    
C160  O95   S    
C155  H71   S    
C118  H148  S    
C156  H72   S    
C112  H121  S    
C214  C245  A    
O26   Zn16  S    
C223  C236  A    
C58   H108  S    
C134  O70   S    
C42   C77   A    
C155  O91   S    
C149  H50   S    
C151  H55   S    
C133  O69   S    
C136  H9    S    
O32   Zn15  S    
C158  O93   S    
C183  C241  A    
C117  O52   S    
C205  C243  A    
C164  H96   S    
C92   C99   A    
C53   H90   S    
C13   C68   A    
C2    C35   A    
C160  H84   S    
C12   C235  S    
C36   C174  A    
C60   C185  A    
C130  H185  S    
C174  C209  A    
C139  H20   S    
C214  C232  A    
C142  H30   S    
C156  H73   S    
C78   O74   S    
C80   O75   S    
C77   C78   A    
C43   C78   A    
C23   C198  S    
C161  H85   S    
C183  H123  S    
C9    C232  S    
C14   O7    A    
C118  O53   S    
C58   C93   A    
C120  H156  S    
C212  C243  A    
O34   Zn9   S    
C49   C101  A    
C178  C190  A    
C8    C231  S    
C100  O52   S    
C25   O22   A    
C41   C168  A    
C124  C198  A    
C16   O14   A    
C176  C209  A    
C88   O66   S    
C182  C186  A    
C166  H104  S    
O21   Zn6   S    
C55   C91   A    
C34   C175  A    
C180  C188  A    
C50   C85   A    
C12   O10   A    
C46   H134  S    
C158  H76   S    
C4    C220  A    
C152  H60   S    
C119  O54   S    
C39   H138  S    
C12   O6    A    
C217  C239  A    
C20   C195  S    
C10   O68   A    
O14   Zn1   S    
C144  H37   S    
C4    C35   A    
C184  C203  A    
O79   Zn5   S    
C6    C57   A    
C194  H124  S    
C74   C82   A    
C51   C86   A    
C48   H35   S    
C17   O15   A    
C205  H125  S    
C147  H44   S    
C225  O99   S    
C81   O72   S    
C226  O100  S    
C222  C235  A    
C156  O92   S    
C120  O55   S    
C44   C80   A    
C219  O93   S    
O35   Zn5   S    
C145  O81   S    
C65   C179  A    
C149  H51   S    
C108  C245  A    
C27   C210  S    
C186  C201  A    
O44   Zn9   S    
C223  O97   S    
C191  C193  A    
C227  C245  A    
O39   Zn13  S    
O24   Zn2   S    
C16   C234  S    
C129  H183  S    
C126  H173  S    
C9    O57   A    
C178  C207  A    
C238  C246  A    
C136  H11   S    
C118  H147  S    
C33   O31   A    
C125  H168  S    
C49   H46   S    
C53   C191  A    
O9    Zn12  S    
O24   Zn6   S    
O28   Zn7   S    
C145  H41   S    
O35   Zn16  S    
O48   Zn12  S    
C137  H15   S    
C44   H2    S    
O4    Zn2   S    
C1    H120  S    
C157  C167  A    
C165  H99   S    
C152  O87   S    
C55   C189  A    
C105  C242  A    
C19   O17   A    
C153  H62   S    
C183  C216  A    
O29   Zn8   S    
C146  C168  A    
C179  C208  A    
C161  H87   S    
C151  H58   S    
C211  C229  A    
C152  H61   S    
C182  C202  A    
C104  O51   S    
C65   C100  A    
C180  C204  A    
C10   O4    A    
C131  O66   S    
C63   H113  S    
C155  H69   S    
C105  C106  A    
O42   Zn11  S    
C56   H107  S    
C40   C75   A    
C28   C202  S    
C166  H102  S    
C134  H8    S    
C128  H177  S    
C109  C110  A    
C18   O16   A    
C154  H66   S    
C165  O100  S    
C129  H181  S    
C47   C124  A    
C140  H23   S    
C60   H110  S    
C154  H65   S    
C140  H22   S    
C111  C114  A    
C123  H164  S    
C135  C169  A    
C145  H39   S    
C87   C104  A    
O31   Zn6   S    
C37   H116  S    
C9    O2    A    
C37   C72   A    
C116  H141  S    
O17   Zn2   S    
C164  O99   S    
C48   C113  A    
C126  O61   S    
C147  H42   S    
O19   Zn4   S    
C5    C221  A    
C94   O59   S    
C130  H186  S    
C29   C203  S    
C89   C102  A    
C66   C102  A    
C67   H118  S    
C95   C96   A    
C224  C233  A    
C14   C236  S    
C113  C171  A    
C127  O62   S    
C66   C178  A    
C38   H127  S    
C162  H89   S    
C85   O67   S    
C39   C170  A    
O43   Zn1   S    
C115  H137  S    
C64   C180  A    
C149  H49   S    
C176  C192  A    
C62   C182  A    
C17   C200  S    
C52   C192  A    
C130  O65   S    
C217  O91   S    
O1    Zn1   S    
C91   O64   S    
C143  H32   S    
C102  O53   S    
C218  O92   S    
C129  H180  S    
C71   C85   A    
C128  O63   S    
O7    Zn10  S    
O13   Zn7   S    
C164  H97   S    
C144  H36   S    
C44   C146  A    
C131  H188  S    
C64   H114  S    
C69   C176  A    
C173  C208  A    
C1    C205  A    
O68   Zn6   S    
C153  H64   S    
C46   C238  A    
C19   O41   A    
C17   O43   A    
O1    Zn8   S    
C141  H26   S    
C116  O51   S    
C121  H157  S    
C51   C79   A    
C148  H48   S    
C163  H94   S    
C159  H81   S    
O15   Zn8   S    
C238  H129  S    
C79   C175  A    
C220  O94   S    
C134  H6    S    
C54   C89   A    
C67   C177  A    
C75   C81   A    
C51   H68   S    
C138  H18   S    
C188  C199  A    
C162  H88   S    
C227  H128  S    
C115  O50   S    
C150  H52   S    
C226  C235  A    
C132  O67   S    
C2    C247  A    
C15   O12   A    
C212  C230  A    
C122  H163  S    
C21   O19   A    
C26   O23   A    
C112  C239  A    
C15   C233  S    
C123  O59   S    
C172  H122  S    
O45   Zn14  S    
C116  H143  S    
C32   C207  S    
C76   O76   S    
C53   C88   A    
C98   O54   S    
C61   H111  S    
C109  C246  A    
C19   C193  S    
C11   C230  S    
C136  H10   S    
C28   O26   A    
C70   C86   A    
C88   C103  A    
C20   O42   A    
C125  O60   S    
C137  H12   S    
O8    Zn13  S    
C143  H34   S    
C194  C242  A    
C132  H190  S    
C97   O58   S    
C215  C229  A    
C47   C82   A    
C52   C87   A    
C127  H176  S    
C142  H31   S    
C156  H74   S    
C162  O97   S    
C142  O77   S    
C30   C204  S    
C168  C203  A    
C95   O60   S    
C32   O30   A    
C132  H191  S    
C59   C94   A    
C40   H149  S    
C23   O21   A    
C82   O73   S    
C119  H152  S    
C147  O82   S    
C150  O85   S    
C159  H80   S    
O16   Zn7   S    
C26   C209  S    
C62   H112  S    
C115  H140  S    
C2    H130  S    
C185  C200  A    
C107  C244  A    
C123  H165  S    
C218  C231  A    
C228  C236  A    
C162  H91   S    
C83   O70   S    
C37   C173  A    
C166  O3    S    
C59   H109  S    
C121  H159  S    
C56   C92   A    
C158  H77   S    
C124  C170  A    
C113  C197  A    
O30   Zn5   S    
C151  H56   S    
C56   C188  A    
C141  H28   S    
C11   O5    A    
C21   O48   A    
C93   C98   A    
C89   O63   S    
C69   C104  A    
C38   C73   A    
