data_mof_unit_pretest_1659.cif
_audit_creation_date              2012-12-10T19:27:28-0500
_audit_creation_method            fapswitch 2.2
_symmetry_space_group_name_H-M    P1
_symmetry_Int_Tables_number       1
_space_group_crystal_system       triclinic
_cell_length_a                    18.810873
_cell_length_b                    18.85065
_cell_length_c                    18.772294
_cell_angle_alpha                 109.783548
_cell_angle_beta                  109.415624
_cell_angle_gamma                 109.800824
_cell_volume                      5086.78255154

loop_
_atom_site_label
_atom_site_type_symbol
_atom_type_description
_atom_site_fract_x
_atom_site_fract_y
_atom_site_fract_z
_atom_type_partial_charge
C1    C     C_R   0.380109 0.379859 0.500293 0.900338
C2    C     C_R   0.761441 0.580942 0.756495 0.078299
C3    C     C_R   0.812118 0.499654 0.814672 -0.169171
C4    C     C_R   0.737605 0.418836 0.742511 0.091011
C5    C     C_R   0.670288 0.420120 0.682445 -0.023682
C6    C     C_R   0.685175 0.500631 0.687210 -0.154802
C7    C     C_R   0.727869 0.336416 0.728586 -0.271134
C8    C     C_R   0.649808 0.258612 0.662922 -0.251224
C9    C     C_R   0.579985 0.260815 0.609461 0.736660
C10   C     C_R   0.589728 0.340509 0.618684 -0.234600
C11   C     C_R   0.275879 0.226748 0.443746 0.068541
C12   C     C_R   0.620255 0.500735 0.620245 0.860464
C13   C     C_R   0.315124 0.315000 0.502253 -0.192008
C14   C     C_R   0.288817 0.339929 0.564291 -0.256714
C15   C     C_R   0.224017 0.276362 0.565399 0.357571
C16   C     C_R   0.185645 0.187191 0.503253 -0.170464
C17   C     C_R   0.213708 0.165653 0.444182 -0.050514
C18   C     C_3   0.200837 0.091134 0.369264 -0.550438
C19   C     C_3   0.271992 0.161298 0.368328 0.572543
C20   C     C_R   0.263413 0.434158 0.229005 0.147755
C21   C     C_R   0.317032 0.503275 0.314526 -0.181956
C22   C     C_R   0.305824 0.576496 0.336983 -0.263419
C23   C     C_R   0.620571 0.620090 0.500494 0.855322
C24   C     C_R   0.240722 0.577765 0.274019 0.365035
C25   C     C_R   0.186394 0.504108 0.187901 -0.218105
C26   C     C_R   0.200296 0.434250 0.168815 0.060352
C27   C     C_3   0.168189 0.345013 0.098514 -0.489428
C28   C     C_3   0.240180 0.344475 0.167861 -0.433854
C29   C     C_R   0.683691 0.674824 0.423183 0.039008
C30   C     C_R   0.688720 0.684975 0.501952 -0.016755
C31   C     C_R   0.762267 0.756174 0.581737 -0.195183
C32   C     C_R   0.826038 0.820611 0.581318 -0.169321
C33   C     C_R   0.813571 0.815780 0.501416 0.005365
C34   C     C_R   0.380512 0.500442 0.379708 0.904435
C35   C     C_R   0.742831 0.741423 0.422730 -0.046346
C36   C     C_3   0.673154 0.727192 0.341575 0.351836
C37   C     C_3   0.608757 0.651570 0.341458 -0.517728
C38   C     C_R   0.999198 0.380038 0.879608 0.862908
C39   C     C_R   0.879547 0.499481 0.879756 0.850073
C40   C     C_R   0.999920 0.620546 0.119962 0.944695
C41   C     C_R   0.120039 0.500925 0.120457 0.975590
C42   C     C_R   0.999972 0.119578 0.620544 0.959867
C43   C     C_R   0.119867 0.119654 0.500231 0.976923
C44   C     C_R   0.998988 0.879544 0.379640 0.851973
C45   C     C_R   0.779008 0.661728 0.759728 -0.147830
C46   C     C_R   0.879615 0.881102 0.500888 0.836618
C47   C     C_R   0.928056 0.255946 0.733304 0.115671
C48   C     C_R   0.000645 0.314520 0.816134 -0.070691
C49   C     C_R   0.076172 0.307869 0.836317 -0.213522
C50   C     C_R   0.076031 0.242116 0.772479 -0.102235
C51   C     C_R   0.001340 0.185386 0.687738 -0.078430
C52   C     C_R   0.929010 0.195103 0.671342 0.121352
C53   C     C_3   0.837770 0.159714 0.603246 -0.406196
C54   C     C_3   0.836703 0.229867 0.674253 -0.524773
C55   C     C_R   0.920730 0.676296 0.180995 0.076408
C56   C     C_R   0.849217 0.740792 0.833622 -0.136891
C57   C     C_R   0.998991 0.688352 0.183473 -0.102488
C58   C     C_R   0.076128 0.770082 0.244273 -0.096993
C59   C     C_R   0.076585 0.833526 0.309800 -0.211487
C60   C     C_R   0.999203 0.816032 0.312067 -0.076370
C61   C     C_R   0.920610 0.740324 0.243905 0.141823
C62   C     C_3   0.852641 0.675067 0.248363 -0.511914
C63   C     C_3   0.853104 0.604348 0.179202 -0.417769
C64   C     C_R   0.902861 0.741190 0.905607 -0.130206
C65   C     C_R   0.889378 0.662336 0.901829 -0.141270
C66   C     C_R   0.821530 0.580865 0.824927 0.071039
H1    H     H_    0.221230 0.048900 0.389241 0.244045
H2    H     H_    0.134845 0.056167 0.310502 0.162069
H3    H     H_    0.248899 0.166667 0.308702 0.038029
H4    H     H_    0.347190 0.632082 0.403233 0.219521
H5    H     H_    0.100705 0.297263 0.077940 0.214002
H6    H     H_    0.179641 0.346005 0.044383 0.198486
H7    H     H_    0.214196 0.296711 0.187627 0.195456
H8    H     H_    0.739188 0.665058 0.705616 0.138202
H9    H     H_    0.292970 0.344577 0.153515 0.210108
H10   H     H_    0.769552 0.762533 0.643649 0.136621
H11   H     H_    0.882712 0.875879 0.643072 0.146978
H12   H     H_    0.683072 0.705572 0.284560 0.064650
H13   H     H_    0.557029 0.660100 0.352760 0.237240
H14   H     H_    0.584357 0.586431 0.286111 0.176085
H15   H     H_    0.134078 0.352351 0.900862 0.150295
H16   H     H_    0.134027 0.236580 0.789003 0.197916
H17   H     H_    0.835004 0.171095 0.548271 0.227754
H18   H     H_    0.860973 0.801937 0.835579 0.136294
H19   H     H_    0.793072 0.091615 0.583813 0.205205
H20   H     H_    0.833391 0.281727 0.660137 0.218860
H21   H     H_    0.791149 0.201923 0.695493 0.208709
H22   H     H_    0.136724 0.783003 0.244215 0.227393
H23   H     H_    0.137097 0.894758 0.359509 0.167014
H24   H     H_    0.877742 0.678848 0.312982 0.207902
H25   H     H_    0.790194 0.675278 0.224239 0.205296
H26   H     H_    0.878810 0.567193 0.203773 0.228013
H27   H     H_    0.790785 0.563536 0.115247 0.203395
H28   H     H_    0.955696 0.802714 0.964240 0.140281
H29   H     H_    0.932038 0.666554 0.960290 0.145960
H30   H     H_    0.779960 0.330298 0.767237 0.187233
H31   H     H_    0.643219 0.196523 0.654324 0.176843
H32   H     H_    0.533200 0.338732 0.575826 0.191334
H33   H     H_    0.318359 0.408360 0.611533 0.219256
O1    O     O_R   0.408400 0.356680 0.448290 -0.604532
O2    O     O_R   0.051700 0.460090 0.908430 -0.605427
O3    O     O_R   0.856640 0.448300 0.908430 -0.629161
O4    O     O_R   0.960090 0.551710 0.908400 -0.624745
O5    O     O_R   0.948250 0.539920 0.091630 -0.617980
O6    O     O_R   0.051690 0.643330 0.091610 -0.611571
O7    O     O_R   0.039870 0.448310 0.091660 -0.617411
O8    O     O_R   0.143310 0.551720 0.091640 -0.585835
O9    O     O_R   0.051740 0.091620 0.643380 -0.628436
O10   O     O_R   0.948300 0.091670 0.539990 -0.597038
O11   O     O_R   0.143340 0.091640 0.551750 -0.588312
O12   O     O_R   0.408370 0.460100 0.551700 -0.620796
O13   O     O_R   0.039900 0.091690 0.448360 -0.622703
O14   O     O_R   0.051700 0.908430 0.460110 -0.610267
O15   O     O_R   0.948260 0.908480 0.356720 -0.624462
O16   O     O_R   0.960100 0.908410 0.551740 -0.640943
O17   O     O_R   0.856660 0.908460 0.448350 -0.562895
O18   O     O_R   0.591630 0.448290 0.539910 -0.611629
O19   O     O_R   0.591590 0.551710 0.643320 -0.622996
O20   O     O_R   0.591630 0.539900 0.448300 -0.618694
O21   O     O_R   0.591600 0.643320 0.551710 -0.620925
O22   O     O_R   0.408410 0.448290 0.356680 -0.628043
O23   O     O_R   0.408370 0.551710 0.460090 -0.614804
O24   O     O_R   0.948260 0.356680 0.908450 -0.636945
Zn1   Zn    Zn3+2 0.500020 0.430950 0.430950 1.004513
Zn2   Zn    Zn3+2 0.499980 0.569050 0.569050 0.999777
Zn3   Zn    Zn3+2 0.930910 0.430960 0.000050 0.978532
Zn4   Zn    Zn3+2 0.069050 0.569060 0.000020 1.035591
Zn5   Zn    Zn3+2 0.069070 0.000020 0.569080 1.022498
Zn6   Zn    Zn3+2 0.930930 0.000080 0.431020 1.056485
F1    F     F_    0.502967 0.185379 0.547423 -0.600039
S1    S     S_3+6 0.192433 0.309860 0.643815 0.021945
O25   O     O_2   0.210508 0.270445 0.700241 -0.286661
O26   O     O_2   0.242547 0.407877 0.701100 -0.280177
O27   O     O_3   0.084806 0.274311 0.592229 -0.555446
H34   H     H_    0.076686 0.297866 0.552193 0.351261
F2    F     F_    0.348509 0.158436 0.393025 -0.581244
S2    S     S_3+6 0.226303 0.669236 0.305770 0.030491
O28   O     O_2   0.133831 0.638405 0.286917 -0.300983
O29   O     O_2   0.287883 0.734681 0.402026 -0.271183
O30   O     O_3   0.244576 0.717778 0.248234 -0.534572
H35   H     H_    0.304516 0.732155 0.259926 0.368620
S3    S     S_3+6 0.647436 0.812992 0.357872 0.043506
O31   O     O_2   0.697265 0.874109 0.335079 -0.283048
O32   O     O_2   0.551060 0.773398 0.298798 -0.278834
O33   O     O_3   0.673646 0.868919 0.462783 -0.553371
H36   H     H_    0.662631 0.917614 0.467227 0.378884

loop_
_geom_bond_atom_site_label_1
_geom_bond_atom_site_label_2
_ccdc_geom_bond_type
C35   C36   S    
S1    O27   S    
O33   H36   S    
C31   H10   S    
C7    C8    A    
O14   Zn5   S    
C53   C54   S    
C7    H30   S    
C37   H13   S    
C11   C19   S    
C26   C27   S    
C62   C63   S    
C46   O16   A    
C5    C6    A    
C36   C37   S    
C42   O10   A    
C38   O2    A    
C6    C12   S    
C54   H21   S    
C18   H2    S    
C15   C16   A    
C55   C61   A    
C17   C18   S    
C18   C19   S    
C59   H23   S    
C49   H15   S    
C10   H32   S    
C36   S3    S    
O22   Zn1   S    
O2    Zn4   S    
C32   H11   S    
O17   Zn6   S    
C31   C32   A    
C45   C56   A    
C8    C9    A    
C55   C63   S    
C63   H26   S    
O12   Zn2   S    
C56   C64   A    
C43   O11   A    
O13   Zn6   S    
O4    Zn4   S    
C9    C10   A    
C38   C48   S    
C38   O24   A    
C42   C51   S    
C44   O15   A    
C59   C60   A    
C34   O23   A    
C21   C22   A    
C33   C46   S    
C64   H28   S    
S3    O33   S    
C2    C6    A    
C4    C7    A    
C28   H7    S    
C1    O1    A    
S2    O30   S    
C56   H18   S    
C2    C45   A    
C37   H14   S    
C41   O7    A    
O6    Zn4   S    
C51   C52   A    
C23   C30   S    
C14   H33   S    
O30   H35   S    
C25   C41   S    
C23   O21   A    
C54   H20   S    
O21   Zn2   S    
C16   C17   A    
O24   Zn3   S    
C21   C34   S    
C20   C28   S    
S1    O26   D    
C19   F2    S    
O20   Zn1   S    
O9    Zn5   S    
O16   Zn5   S    
C45   H8    S    
O1    Zn1   S    
C8    H31   S    
O3    Zn3   S    
C29   C30   A    
C40   O5    A    
S2    O29   D    
C47   C48   A    
C62   H25   S    
C50   C51   A    
O5    Zn3   S    
C25   C26   A    
C24   C25   A    
C16   C43   S    
C47   C52   A    
C47   C54   S    
C12   O19   A    
C48   C49   A    
O19   Zn2   S    
C44   O14   A    
C65   C66   A    
C34   O22   A    
C55   C57   A    
O10   Zn6   S    
O15   Zn6   S    
S3    O32   D    
C19   H3    S    
C3    C66   A    
C1    C13   S    
C43   O13   A    
C3    C4    A    
C27   H5    S    
C52   C53   S    
C50   H16   S    
C39   O3    A    
C29   C35   A    
C11   C17   A    
C40   C57   S    
C41   O8    A    
C14   C15   A    
O18   Zn1   S    
C4    C5    A    
C2    C66   A    
C58   H22   S    
C39   O4    A    
O27   H34   S    
C24   S2    S    
S2    O28   D    
O7    Zn3   S    
C46   O17   A    
C53   H17   S    
C32   C33   A    
O23   Zn2   S    
C18   H1    S    
O8    Zn4   S    
C5    C10   A    
C36   H12   S    
C64   C65   A    
C23   O20   A    
C11   C13   A    
C57   C58   A    
C30   C31   A    
C20   C26   A    
C44   C60   S    
C62   H24   S    
C33   C35   A    
C22   C24   A    
C61   C62   S    
C58   C59   A    
C3    C39   S    
C12   O18   A    
C9    F1    S    
C65   H29   S    
C15   S1    S    
C20   C21   A    
C49   C50   A    
C29   C37   S    
C27   C28   S    
S3    O31   D    
C60   C61   A    
C53   H19   S    
C63   H27   S    
C13   C14   A    
C28   H9    S    
C42   O9    A    
C22   H4    S    
C1    O12   A    
C27   H6    S    
S1    O25   D    
O11   Zn5   S    
C40   O6    A    
