data_mof_unit_pretest_1911.cif
_audit_creation_date              2012-12-10T21:38:55-0500
_audit_creation_method            fapswitch 2.2
_symmetry_space_group_name_H-M    P1
_symmetry_Int_Tables_number       1
_space_group_crystal_system       triclinic
_cell_length_a                    16.146643
_cell_length_b                    16.943988
_cell_length_c                    19.185441
_cell_angle_alpha                 91.464836
_cell_angle_beta                  92.291459
_cell_angle_gamma                 87.779664
_cell_volume                      5239.26564318

loop_
_atom_site_label
_atom_site_type_symbol
_atom_type_description
_atom_site_fract_x
_atom_site_fract_y
_atom_site_fract_z
_atom_type_partial_charge
C1    C     C_R   0.489002 0.652046 0.499916 0.932311
C2    C     C_R   0.510907 0.346970 0.503884 0.923941
C3    C     C_R   0.482110 0.736484 0.502915 -0.126529
C4    C     C_R   0.517305 0.260464 0.507528 -0.186985
C5    C     C_R   0.511871 0.779340 0.448234 0.118898
C6    C     C_R   0.444443 0.215831 0.502592 0.167002
C7    C     C_R   0.510941 0.860880 0.453832 -0.147964
C8    C     C_R   0.451559 0.134816 0.494141 -0.179704
C9    C     C_R   0.481084 0.899584 0.513980 0.242247
C10   C     C_R   0.529392 0.095698 0.495481 0.241515
C11   C     C_R   0.449103 0.856786 0.567004 -0.172965
C12   C     C_R   0.600907 0.137942 0.505077 -0.167472
C13   C     C_R   0.450420 0.775009 0.562413 0.119977
C14   C     C_R   0.595888 0.219655 0.513502 0.147345
C15   C     C_R   0.750850 0.453119 0.465723 -0.142191
C16   C     C_R   0.253199 0.531775 0.547326 -0.128153
C17   C     C_R   0.836926 0.440104 0.462229 0.330472
C18   C     C_R   0.168239 0.544906 0.556627 0.231306
C19   C     C_R   0.890792 0.484436 0.506310 0.063249
C20   C     C_R   0.110296 0.515554 0.506606 0.085253
C21   C     C_R   0.853792 0.537602 0.555411 0.024822
C22   C     C_R   0.141954 0.480777 0.444527 0.010355
C23   C     C_R   0.499825 0.497875 0.634615 0.923812
C24   C     C_R   0.500220 0.498817 0.365829 0.933554
C25   C     C_R   0.767370 0.556692 0.549508 0.428578
C26   C     C_R   0.228949 0.463428 0.439718 0.378258
C27   C     C_R   0.435527 0.462375 0.746236 0.186606
C28   C     C_R   0.546339 0.443108 0.252863 0.174865
C29   C     C_R   0.438967 0.463761 0.818598 -0.190109
C30   C     C_R   0.542518 0.445022 0.180653 -0.188899
C31   C     C_R   0.505426 0.497171 0.856035 -0.081491
C32   C     C_R   0.492367 0.502181 0.146175 -0.107957
C33   C     C_R   0.571594 0.527770 0.821002 0.379964
C34   C     C_R   0.443356 0.557467 0.184213 0.467314
C35   C     C_R   0.567886 0.526713 0.748544 -0.259032
C36   C     C_R   0.447785 0.555406 0.256665 -0.201135
C37   C     C_R   0.500061 0.495607 0.710596 -0.156481
C38   C     C_R   0.499485 0.499364 0.290779 -0.139578
C39   C     C_R   0.493254 0.501870 0.070817 0.367553
C40   C     C_R   0.503192 0.498703 0.931342 0.361012
H1    H     H_    0.388972 0.439022 0.846001 0.199747
H2    H     H_    0.579095 0.401846 0.151225 0.197856
H3    H     H_    0.618498 0.550357 0.721678 0.241241
H4    H     H_    0.410971 0.597540 0.286966 0.210629
H5    H     H_    0.395649 0.101533 0.488245 0.189002
H6    H     H_    0.533296 0.893964 0.411313 0.189488
H7    H     H_    0.425570 0.887194 0.612895 0.188365
H8    H     H_    0.660578 0.106554 0.509249 0.192233
H9    H     H_    0.296366 0.557595 0.584690 0.230989
H10   H     H_    0.709923 0.417481 0.433428 0.229444
N1    N     N_R   0.487759 0.431953 0.965100 -0.141111
N2    N     N_R   0.508479 0.568664 0.037048 -0.057106
N3    N     N_R   0.483484 0.433392 0.034003 -0.131526
N4    N     N_R   0.512852 0.567206 0.968124 -0.053707
N5    N     N_2   0.479764 0.982050 0.521582 -0.159351
N6    N     N_2   0.536317 0.012941 0.491000 -0.150320
N7    N     N_R   0.716910 0.509720 0.508510 -0.181362
N8    N     N_R   0.283090 0.490280 0.491490 -0.167936
N9    N     N_2   0.979328 0.471316 0.501637 -0.044620
N10   N     N_2   0.022643 0.529972 0.515718 -0.061126
O1    O     O_R   0.422540 0.612660 0.496960 -0.634642
O2    O     O_R   0.577460 0.387340 0.503040 -0.618431
O3    O     O_R   0.561840 0.618900 0.502420 -0.523397
O4    O     O_R   0.438160 0.381100 0.497580 -0.554038
O5    O     O_R   0.430320 0.496890 0.599130 -0.621701
O6    O     O_R   0.569680 0.503110 0.400870 -0.614897
O7    O     O_R   0.569630 0.503130 0.604590 -0.590960
O8    O     O_R   0.430370 0.496870 0.395410 -0.552203
Zn1   Zn    Zn3+2 0.406980 0.495830 0.496350 1.056804
Zn2   Zn    Zn3+2 0.593020 0.504170 0.503650 1.061253
I1    I     I_    0.333009 0.403998 0.698000 -0.186875
I2    I     I_    0.618302 0.350174 0.300386 -0.179905
S1    S     S_3+6 0.137872 0.603208 0.629540 0.107628
O9    O     O_2   0.111533 0.549556 0.684989 -0.181922
O10   O     O_2   0.208846 0.650196 0.658782 -0.255228
O11   O     O_3   0.058861 0.666020 0.606689 -0.459873
H11   H     H_    0.080035 0.697246 0.568718 0.358853
S2    S     S_3+6 0.873261 0.365500 0.403407 0.091473
O12   O     O_2   0.957859 0.333333 0.426079 -0.239139
O13   O     O_2   0.814079 0.299090 0.399136 -0.252277
O14   O     O_3   0.876933 0.404410 0.323935 -0.499454
H12   H     H_    0.894215 0.359691 0.292856 0.405226
I3    I     I_    0.914138 0.553808 0.654764 0.056161
I4    I     I_    0.062674 0.480032 0.352630 0.003902
S3    S     S_3+6 0.728371 0.649098 0.582465 0.094373
O15   O     O_2   0.700607 0.698595 0.521363 -0.268238
O16   O     O_2   0.655884 0.637940 0.627177 -0.294499
O17   O     O_3   0.800418 0.699077 0.629079 -0.477573
H13   H     H_    0.771824 0.749315 0.643451 0.400846
S4    S     S_3+6 0.266060 0.411054 0.365071 0.115790
O18   O     O_2   0.275874 0.468675 0.308003 -0.222371
O19   O     O_2   0.347703 0.368453 0.379852 -0.257591
O20   O     O_3   0.198143 0.343405 0.336797 -0.462785
H14   H     H_    0.191560 0.309436 0.377320 0.369013
S5    S     S_3+6 0.660979 0.564958 0.865163 0.096643
O21   O     O_2   0.640942 0.647086 0.892491 -0.181897
O22   O     O_2   0.687483 0.513525 0.925383 -0.267792
O23   O     O_3   0.739664 0.568733 0.810577 -0.467365
H15   H     H_    0.753972 0.512863 0.798226 0.360480
S6    S     S_3+6 0.373690 0.627186 0.143786 0.083886
O24   O     O_2   0.421750 0.694802 0.119412 -0.239900
O25   O     O_2   0.328875 0.589137 0.082288 -0.250079
O26   O     O_3   0.303920 0.661832 0.200925 -0.517859
H16   H     H_    0.267298 0.699473 0.174255 0.406512
I5    I     I_    0.319295 0.257778 0.516024 -0.200245
I6    I     I_    0.558328 0.724857 0.355977 -0.207329
I7    I     I_    0.410725 0.713524 0.649443 -0.166118
I8    I     I_    0.710074 0.270276 0.546355 -0.206650

loop_
_geom_bond_atom_site_label_1
_geom_bond_atom_site_label_2
_ccdc_geom_bond_type
N5    N6    D    
O20   H14   S    
C27   C29   A    
S1    O10   D    
S1    O9    D    
C11   H7    S    
S5    O21   D    
C12   H8    S    
O14   H12   S    
S5    O23   S    
O6    Zn2   S    
S3    O15   D    
C35   C37   A    
S2    O13   D    
C32   C39   S    
C1    O3    A    
C31   C40   S    
O2    Zn2   S    
C7    C9    A    
C15   H10   S    
C23   O7    A    
C8    H5    S    
S6    O24   D    
C17   C19   A    
S4    O19   D    
C21   I3    S    
N2    N4    A    
O8    Zn1   S    
C24   C38   S    
C31   C33   A    
C9    N5    S    
N7    Zn2   S    
C20   N10   S    
C35   H3    S    
C18   C20   A    
C3    C13   A    
C24   O6    A    
C14   I8    S    
C39   N2    A    
N9    N10   D    
C15   N7    A    
C28   I2    S    
C25   N7    A    
C33   S5    S    
S6    O25   D    
C2    O4    A    
C5    I6    S    
S3    O16   D    
C7    H6    S    
O11   H11   S    
C4    C6    A    
C5    C7    A    
S2    O12   D    
C6    C8    A    
C19   N9    S    
C23   C37   S    
S6    O26   S    
C1    C3    S    
C22   I4    S    
C2    C4    S    
C26   N8    A    
C34   S6    S    
O3    Zn2   S    
C28   C38   A    
C25   S3    S    
C16   N8    A    
O4    Zn1   S    
C16   H9    S    
C9    C11   A    
C10   C12   A    
C16   C18   A    
C10   N6    S    
C20   C22   A    
C18   S1    S    
C40   N4    A    
S1    O11   S    
C36   H4    S    
O26   H16   S    
C27   I1    S    
S4    O20   S    
S3    O17   S    
O1    Zn1   S    
C15   C17   A    
C21   C25   A    
C29   H1    S    
C12   C14   A    
C3    C5    A    
C1    O1    A    
S5    O22   D    
N8    Zn1   S    
C26   S4    S    
C40   N1    A    
O7    Zn2   S    
C23   O5    A    
C36   C38   A    
C29   C31   A    
C30   C32   A    
C11   C13   A    
S2    O14   S    
S4    O18   D    
C39   N3    A    
C27   C37   A    
O5    Zn1   S    
C28   C30   A    
C17   S2    S    
C33   C35   A    
C6    I5    S    
C34   C36   A    
C4    C14   A    
C24   O8    A    
O17   H13   S    
C8    C10   A    
O23   H15   S    
C22   C26   A    
C13   I7    S    
C30   H2    S    
N1    N3    A    
C2    O2    A    
C32   C34   A    
C19   C21   A    
