data_mof_unit_pretest_13.cif
_audit_creation_date              2012-12-10T20:43:24-0500
_audit_creation_method            fapswitch 2.2
_symmetry_space_group_name_H-M    P1
_symmetry_Int_Tables_number       1
_space_group_crystal_system       triclinic
_cell_length_a                    18.655659
_cell_length_b                    18.655478
_cell_length_c                    18.733013
_cell_angle_alpha                 109.309471
_cell_angle_beta                  109.354331
_cell_angle_gamma                 108.947981
_cell_volume                      5067.83423956

loop_
_atom_site_label
_atom_site_type_symbol
_atom_type_description
_atom_site_fract_x
_atom_site_fract_y
_atom_site_fract_z
_atom_type_partial_charge
C1    C     C_R   0.379376 0.500435 0.380332 0.875552
C2    C     C_R   0.780448 0.863373 0.832954 -0.137399
C3    C     C_R   0.829131 0.680328 0.936395 -0.143984
C4    C     C_R   0.860380 0.690476 0.019686 -0.248832
C5    C     C_R   0.949906 0.739700 0.079509 0.122387
C6    C     C_R   0.277566 0.550478 0.951321 -0.217699
C7    C     C_R   0.195265 0.479616 0.888342 -0.091479
C8    C     C_R   0.170784 0.398724 0.885491 0.021764
C9    C     C_R   0.233432 0.387948 0.941128 -0.276564
C10   C     C_R   0.317201 0.458054 0.003377 0.618541
C11   C     C_R   0.337799 0.540634 0.009823 -0.244985
C12   C     C_R   0.078503 0.254683 0.754283 -0.277634
C13   C     C_R   0.818140 0.825605 0.575153 -0.267573
C14   C     C_R   0.997907 0.185086 0.685548 -0.080606
C15   C     C_R   0.919553 0.181473 0.679843 -0.003572
C16   C     C_R   0.923842 0.246812 0.746353 -0.271538
C17   C     C_R   0.004287 0.316353 0.815214 -0.080519
C18   C     C_R   0.083127 0.323016 0.818125 0.021812
C19   C     C_R   0.775271 0.129420 0.556152 -0.144654
C20   C     C_R   0.693283 0.062539 0.487026 -0.140483
C21   C     C_R   0.668127 0.976504 0.468372 -0.154866
C22   C     C_R   0.724703 0.957259 0.519146 -0.139639
C23   C     C_R   0.806598 0.023928 0.588465 -0.107462
C24   C     C_R   0.814598 0.810142 0.495874 -0.071251
C25   C     C_R   0.832781 0.110376 0.606827 0.129591
C26   C     C_R   0.748081 0.733483 0.418288 -0.018326
C27   C     C_R   0.687380 0.671115 0.422995 -0.251621
C28   C     C_R   0.688803 0.687360 0.502134 -0.078783
C29   C     C_R   0.754215 0.766338 0.579218 -0.004131
C30   C     C_R   0.703997 0.731652 0.272548 0.238593
C31   C     C_R   0.698608 0.697966 0.190508 -0.184929
C32   C     C_R   0.737128 0.647031 0.170538 -0.180263
C33   C     C_R   0.622135 0.620456 0.501796 0.863921
C34   C     C_R   0.780440 0.627617 0.231395 -0.132980
C35   C     C_R   0.784406 0.658211 0.312101 -0.208690
C36   C     C_R   0.747383 0.710653 0.334134 0.065777
C37   C     C_R   0.419656 0.759117 0.555198 0.013619
C38   C     C_R   0.356722 0.684296 0.473731 0.446203
C39   C     C_R   0.374090 0.664365 0.403939 -0.054109
C40   C     C_R   0.449047 0.724712 0.411359 0.072388
C41   C     C_R   0.507673 0.802228 0.490538 -0.379548
C42   C     C_R   0.493851 0.820527 0.562644 0.485290
C43   C     C_R   0.250544 0.576209 0.255605 -0.266758
C44   C     C_R   0.619245 0.498833 0.619708 0.883125
C45   C     C_R   0.184223 0.496368 0.183928 -0.072971
C46   C     C_R   0.177763 0.417399 0.179147 -0.003977
C47   C     C_R   0.244197 0.420609 0.243872 -0.251265
C48   C     C_R   0.311299 0.500722 0.315668 -0.054901
C49   C     C_R   0.312163 0.579145 0.323940 0.141031
C50   C     C_R   0.037673 0.280545 0.119254 0.219467
C51   C     C_R   0.968637 0.199205 0.047686 -0.134214
C52   C     C_R   0.964446 0.169974 0.966702 -0.166005
C53   C     C_R   0.028440 0.221029 0.955414 -0.121308
C54   C     C_R   0.097144 0.301263 0.025248 -0.166271
C55   C     C_R   0.377431 0.380356 0.498270 0.905001
C56   C     C_R   0.103205 0.331296 0.107202 0.062569
C57   C     C_R   0.266235 0.550525 0.617101 -0.190181
C58   C     C_R   0.285133 0.482125 0.602253 -0.119083
C59   C     C_R   0.234069 0.405765 0.521218 0.168444
C60   C     C_R   0.164391 0.399253 0.455134 -0.101045
C61   C     C_R   0.145501 0.467661 0.470105 -0.085390
C62   C     C_R   0.195973 0.543017 0.551325 -0.048032
C63   C     C_R   0.179456 0.260600 0.509160 0.466938
C64   C     C_R   0.185250 0.184853 0.498339 -0.198324
C65   C     C_R   0.252478 0.173778 0.487246 -0.054684
C66   C     C_R   0.711095 0.853529 0.764216 -0.143898
C67   C     C_R   0.313469 0.238883 0.486121 -0.246040
C68   C     C_R   0.310202 0.315416 0.498908 -0.143408
C69   C     C_R   0.242905 0.327253 0.510542 -0.117666
C70   C     C_R   0.297258 0.081586 0.541942 -0.131703
C71   C     C_R   0.318392 0.014382 0.529936 0.218278
C72   C     C_R   0.297266 0.956829 0.446172 -0.190852
C73   C     C_R   0.257120 0.967419 0.375922 -0.178033
C74   C     C_R   0.238739 0.036019 0.388645 -0.145661
C75   C     C_R   0.259145 0.093775 0.471831 0.081161
C76   C     C_R   0.479405 0.478221 0.774307 -0.150755
C77   C     C_R   0.701255 0.819532 0.680875 -0.068597
C78   C     C_R   0.556088 0.505110 0.769785 -0.260960
C79   C     C_R   0.583816 0.445374 0.741088 -0.024282
C80   C     C_R   0.534099 0.357852 0.716844 0.541046
C81   C     C_R   0.457781 0.331529 0.722352 -0.304647
C82   C     C_R   0.429512 0.390879 0.750959 0.198608
C83   C     C_R   0.734341 0.474243 0.805972 -0.157635
C84   C     C_R   0.813701 0.493868 0.807280 -0.090718
C85   C     C_R   0.827728 0.510944 0.743686 -0.000021
C86   C     C_R   0.762879 0.514228 0.683494 -0.262852
C87   C     C_R   0.684885 0.497504 0.684718 -0.079237
C88   C     C_R   0.758576 0.791851 0.664859 0.118384
C89   C     C_R   0.669155 0.475209 0.744628 0.033520
C90   C     C_R   0.957094 0.591955 0.733287 -0.152016
C91   C     C_R   0.027488 0.596744 0.719722 -0.141077
C92   C     C_R   0.045951 0.528039 0.705921 -0.138926
C93   C     C_R   0.994108 0.454439 0.705760 -0.135767
C94   C     C_R   0.924001 0.449586 0.719780 -0.107964
C95   C     C_R   0.905072 0.518450 0.733849 0.144913
C96   C     C_R   0.001165 0.879979 0.380070 0.937427
C97   C     C_R   0.880302 0.876688 0.496614 0.887801
C98   C     C_R   0.998432 0.118956 0.619783 0.869963
C99   C     C_R   0.828426 0.802343 0.734352 -0.182822
C100  C     C_R   0.119819 0.117794 0.497660 0.939811
C101  C     C_R   0.002850 0.380464 0.882040 0.877337
C102  C     C_R   0.119567 0.497771 0.118138 0.878118
C103  C     C_R   0.998271 0.619601 0.118173 0.918178
C104  C     C_R   0.880150 0.497305 0.876943 0.881258
C105  C     C_R   0.151568 0.809211 0.563472 -0.229117
C106  C     C_R   0.130041 0.811186 0.485530 -0.115612
C107  C     C_R   0.048413 0.749295 0.411828 0.138503
C108  C     C_R   0.992052 0.680776 0.415250 -0.231908
C109  C     C_R   0.012870 0.678751 0.493600 0.234213
C110  C     C_R   0.839665 0.838885 0.818209 -0.140861
C111  C     C_R   0.093105 0.743661 0.567788 -0.130123
C112  C     C_R   0.019195 0.687139 0.261842 -0.278292
C113  C     C_R   0.997030 0.685160 0.182641 -0.144951
C114  C     C_R   0.978941 0.747493 0.167129 -0.125479
C115  C     C_R   0.983149 0.813662 0.233951 0.492533
C116  C     C_R   0.004335 0.815019 0.314473 -0.186223
C117  C     C_R   0.024189 0.752000 0.329094 -0.039309
C118  C     C_R   0.008834 0.777839 0.053922 0.273340
C119  C     C_R   0.976261 0.763278 0.968195 -0.170762
C120  C     C_R   0.887026 0.714498 0.909876 -0.155882
H1    H     H_    0.789153 0.891290 0.897862 0.125750
H2    H     H_    0.732243 0.621513 0.107208 0.129840
H3    H     H_    0.809250 0.587135 0.215219 0.143566
H4    H     H_    0.814206 0.639080 0.357245 0.148380
H5    H     H_    0.565979 0.847457 0.497036 0.166377
H6    H     H_    0.251833 0.636198 0.260119 0.136013
H7    H     H_    0.242341 0.360501 0.239482 0.156003
H8    H     H_    0.666080 0.873916 0.775851 0.161167
H9    H     H_    0.917332 0.157515 0.053208 0.141437
H10   H     H_    0.911138 0.107615 0.912427 0.144392
H11   H     H_    0.024754 0.198479 0.892464 0.149713
H12   H     H_    0.145905 0.340907 0.016027 0.137564
H13   H     H_    0.180708 0.595606 0.563272 0.118529
H14   H     H_    0.305146 0.608730 0.680086 0.113586
H15   H     H_    0.337876 0.487533 0.654481 0.134503
H16   H     H_    0.122668 0.339629 0.393509 0.136797
H17   H     H_    0.090701 0.461500 0.419277 0.112149
H18   H     H_    0.649766 0.815542 0.628750 0.165388
H19   H     H_    0.364451 0.229954 0.475683 0.160480
H20   H     H_    0.313008 0.125958 0.606177 0.133095
H21   H     H_    0.312507 0.904209 0.435265 0.124599
H22   H     H_    0.242729 0.923846 0.312088 0.147038
H23   H     H_    0.210756 0.045697 0.334329 0.154303
H24   H     H_    0.460909 0.526640 0.797633 0.143917
H25   H     H_    0.595071 0.573114 0.790953 0.165595
H26   H     H_    0.875423 0.784658 0.723973 0.126349
H27   H     H_    0.421826 0.265005 0.706806 0.138261
H28   H     H_    0.723232 0.459360 0.853928 0.165075
H29   H     H_    0.772106 0.527687 0.634150 0.145636
H30   H     H_    0.943048 0.645325 0.743240 0.113354
H31   H     H_    0.067408 0.653496 0.719361 0.121196
H32   H     H_    0.100205 0.531672 0.695028 0.124266
H33   H     H_    0.008029 0.400971 0.694440 0.128995
H34   H     H_    0.883735 0.391718 0.718443 0.099968
H35   H     H_    0.110601 0.743011 0.628683 0.121050
H36   H     H_    0.895143 0.849703 0.872118 0.137089
H37   H     H_    0.213467 0.858789 0.620781 0.132331
H38   H     H_    0.175924 0.862002 0.482935 0.147790
H39   H     H_    0.932107 0.629201 0.356867 0.121715
H40   H     H_    0.034281 0.638450 0.271656 0.150642
H41   H     H_    0.020175 0.789845 0.946471 0.125289
H42   H     H_    0.862618 0.702918 0.843854 0.147483
H43   H     H_    0.759899 0.644516 0.891812 0.146826
H44   H     H_    0.869481 0.885993 0.633926 0.151746
H45   H     H_    0.814562 0.660946 0.038156 0.129845
H46   H     H_    0.400194 0.597305 0.059243 0.132124
H47   H     H_    0.294757 0.613250 0.954724 0.142786
H48   H     H_    0.150421 0.488077 0.842171 0.150063
H49   H     H_    0.217225 0.324497 0.935914 0.156248
H50   H     H_    0.138111 0.257103 0.756412 0.154800
H51   H     H_    0.863997 0.243906 0.744055 0.158008
H52   H     H_    0.794268 0.195899 0.569805 0.124831
H53   H     H_    0.649305 0.077391 0.447859 0.127305
H54   H     H_    0.638401 0.609765 0.364318 0.168175
H55   H     H_    0.604678 0.924900 0.414725 0.119008
H56   H     H_    0.704870 0.890770 0.505275 0.134481
H57   H     H_    0.849575 0.008480 0.627931 0.099238
H58   H     H_    0.663731 0.710412 0.141227 0.129710
O1    O     O_R   0.408360 0.551710 0.460090 -0.604285
O2    O     O_R   0.948280 0.908380 0.356650 -0.603287
O3    O     O_R   0.960110 0.908350 0.551690 -0.620101
O4    O     O_R   0.856660 0.908370 0.448270 -0.624563
O5    O     O_R   0.051720 0.091580 0.643310 -0.631092
O6    O     O_R   0.948270 0.091600 0.539890 -0.602448
O7    O     O_R   0.143340 0.091590 0.551680 -0.653427
O8    O     O_R   0.039890 0.091610 0.448270 -0.569174
O9    O     O_R   0.051730 0.460050 0.908360 -0.623996
O10   O     O_R   0.948290 0.356630 0.908390 -0.614117
O11   O     O_R   0.143340 0.551690 0.091580 -0.620820
O12   O     O_R   0.408400 0.448280 0.356670 -0.621110
O13   O     O_R   0.039900 0.448270 0.091610 -0.622415
O14   O     O_R   0.051710 0.643320 0.091560 -0.639690
O15   O     O_R   0.948270 0.539900 0.091590 -0.625071
O16   O     O_R   0.960100 0.551680 0.908340 -0.610921
O17   O     O_R   0.856660 0.448270 0.908370 -0.625641
O18   O     O_R   0.591600 0.643340 0.551710 -0.626499
O19   O     O_R   0.591630 0.539900 0.448290 -0.623192
O20   O     O_R   0.591600 0.551720 0.643330 -0.624317
O21   O     O_R   0.591640 0.448290 0.539910 -0.627715
O22   O     O_R   0.408370 0.460100 0.551710 -0.619101
O23   O     O_R   0.408400 0.356660 0.448290 -0.632003
O24   O     O_R   0.051730 0.908360 0.460060 -0.628975
Zn1   Zn    Zn3+2 0.499980 0.569060 0.569060 0.952671
Zn2   Zn    Zn3+2 0.500020 0.430940 0.430940 0.947769
Zn3   Zn    Zn3+2 0.069070 0.999960 0.569030 0.941250
Zn4   Zn    Zn3+2 0.930930 0.999990 0.430930 0.972054
Zn5   Zn    Zn3+2 0.069070 0.569030 0.999960 0.940117
Zn6   Zn    Zn3+2 0.930930 0.430930 0.000000 0.959209
O25   O     O_3   0.555480 0.893510 0.643509 -0.622787
C121  C     C_3   0.586012 0.969636 0.636914 -0.346140
H59   H     H_    0.610633 0.026425 0.700150 0.196702
H60   H     H_    0.533914 0.970353 0.586609 0.168481
H61   H     H_    0.641536 0.978255 0.624437 0.189479
C122  C     C_3   0.411107 0.770308 0.635458 -0.315340
C123  C     C_3   0.392625 0.844581 0.670325 -0.890355
H62   H     H_    0.447714 0.908133 0.692998 0.299680
H63   H     H_    0.332738 0.834070 0.619467 0.238420
H64   H     H_    0.382830 0.846880 0.726191 0.236951
H65   H     H_    0.358183 0.710005 0.621872 0.226342
H66   H     H_    0.472057 0.782471 0.686950 0.199303
O26   O     O_3   0.280048 0.626547 0.463006 -0.591568
C124  C     C_3   0.216672 0.651540 0.435316 -0.345184
H67   H     H_    0.213417 0.665052 0.381030 0.148839
H68   H     H_    0.228574 0.709108 0.490364 0.180677
H69   H     H_    0.151755 0.597635 0.411219 0.186144
C125  C     C_3   0.466782 0.709655 0.335646 -0.388907
C126  C     C_3   0.478978 0.629823 0.305057 -0.812980
H70   H     H_    0.507091 0.618515 0.359667 0.252811
H71   H     H_    0.416057 0.571050 0.252966 0.274520
H72   H     H_    0.523244 0.639080 0.277563 0.228439
H73   H     H_    0.412576 0.702543 0.280634 0.204792
H74   H     H_    0.526482 0.767108 0.354214 0.190199
C127  C     C_3   0.042905 0.315599 0.207721 -0.417428
C128  C     C_3   0.965122 0.261002 0.212551 -0.914024
H75   H     H_    0.904065 0.252777 0.165251 0.260564
H76   H     H_    0.959813 0.196478 0.199941 0.263788
H77   H     H_    0.974236 0.294695 0.278624 0.256293
H78   H     H_    0.102308 0.321968 0.255541 0.203331
H79   H     H_    0.049668 0.381651 0.227979 0.222473
O27   O     O_3   0.107115 0.265833 0.509885 -0.594951
C129  C     C_3   0.122468 0.301509 0.595954 -0.298453
H80   H     H_    0.173772 0.370806 0.635212 0.167456
H81   H     H_    0.139548 0.263736 0.627129 0.139530
H82   H     H_    0.061869 0.298967 0.594899 0.195251
C130  C     C_3   0.364063 0.004620 0.606198 -0.490486
C131  C     C_3   0.455808 0.081614 0.669495 -0.817927
H83   H     H_    0.493917 0.089830 0.635351 0.261868
H84   H     H_    0.453503 0.142435 0.699498 0.268163
H85   H     H_    0.489305 0.069820 0.722034 0.245581
H86   H     H_    0.325705 0.998846 0.640414 0.204990
H87   H     H_    0.369277 0.944520 0.583342 0.213465
C132  C     C_3   0.347194 0.357314 0.756531 -0.409122
C133  C     C_3   0.325900 0.426619 0.799104 -0.913911
H88   H     H_    0.378653 0.473603 0.867202 0.265518
H89   H     H_    0.315905 0.461654 0.762399 0.243985
H90   H     H_    0.264639 0.394333 0.799097 0.261700
H91   H     H_    0.292050 0.309197 0.689947 0.202370
H92   H     H_    0.353066 0.322593 0.794497 0.211032
O28   O     O_3   0.565291 0.300362 0.697169 -0.610274
C134  C     C_3   0.526731 0.252090 0.606266 -0.342233
H93   H     H_    0.535371 0.294877 0.576577 0.167483
H94   H     H_    0.456789 0.205885 0.577113 0.176942
H95   H     H_    0.558864 0.213137 0.590795 0.195294
C135  C     C_3   0.949853 0.607957 0.498325 -0.453985
C136  C     C_3   0.908886 0.643463 0.549453 -0.840514
H96   H     H_    0.959516 0.694067 0.617415 0.246115
H97   H     H_    0.873711 0.672046 0.518326 0.270633
H98   H     H_    0.861794 0.589832 0.550763 0.249087
H99   H     H_    0.896870 0.554906 0.432070 0.202913
H100  H     H_    0.984366 0.579040 0.529720 0.206648
O29   O     O_3   0.977929 0.883275 0.225431 -0.609836
C137  C     C_3   0.890335 0.860409 0.175116 -0.259863
H101  H     H_    0.880482 0.915765 0.205742 0.185791
H102  H     H_    0.841539 0.802135 0.169639 0.146699
H103  H     H_    0.877430 0.850365 0.109414 0.171280
C138  C     C_3   0.105812 0.832452 0.115002 -0.408670
C139  C     C_3   0.136248 0.928238 0.141657 -0.894513
H104  H     H_    0.123233 0.937626 0.084047 0.255622
H105  H     H_    0.102051 0.952095 0.173970 0.292591
H106  H     H_    0.207355 0.967199 0.187649 0.243761
H107  H     H_    0.124627 0.826194 0.174324 0.211882
H108  H     H_    0.140334 0.809274 0.082640 0.197206
O30   O     O_3   0.373885 0.443716 0.059694 -0.613394
C140  C     C_3   0.459853 0.487793 0.075952 -0.332220
H109  H     H_    0.493101 0.557190 0.126188 0.160652
H110  H     H_    0.462272 0.481726 0.015697 0.155971
H111  H     H_    0.496821 0.458030 0.102211 0.204170
C141  C     C_3   0.659096 0.784783 0.289724 -0.441109
C142  C     C_3   0.691625 0.864251 0.277697 -0.829176
H112  H     H_    0.763633 0.902317 0.313577 0.286565
H113  H     H_    0.668563 0.844027 0.207926 0.222713
H114  H     H_    0.665602 0.906882 0.301859 0.242459
H115  H     H_    0.588125 0.743231 0.243636 0.187520
H116  H     H_    0.668268 0.807252 0.356250 0.221417

loop_
_geom_bond_atom_site_label_1
_geom_bond_atom_site_label_2
_ccdc_geom_bond_type
C7    H48   S    
C78   C79   A    
C70   H20   S    
C34   H3    S    
C5    C114  S    
C85   C95   S    
C41   C42   A    
C9    H49   S    
C35   C36   A    
C90   H30   S    
C61   H17   S    
C142  H114  S    
C118  C138  S    
C114  C115  A    
C51   H9    S    
C132  H92   S    
C7    C8    A    
C108  H39   S    
C45   C46   A    
C116  C117  A    
C44   O20   A    
O16   Zn5   S    
C28   C29   A    
C26   C27   A    
C135  H99   S    
C83   C84   A    
C38   O26   S    
C82   C132  S    
C35   H4    S    
C103  C113  S    
C41   H5    S    
C76   C78   A    
C34   C35   A    
C122  H65   S    
C109  C111  A    
C63   C69   A    
C112  C117  A    
C115  O29   S    
C15   C25   S    
C102  O13   A    
C138  H107  S    
C125  H73   S    
C55   O23   A    
C20   H53   S    
C98   O5    A    
C102  O11   A    
O6    Zn4   S    
C108  C109  A    
C43   H6    S    
O19   Zn2   S    
C129  H80   S    
C73   C74   A    
C132  C133  S    
C37   C42   A    
C126  H70   S    
C17   C101  S    
C118  C119  A    
C92   C93   A    
C29   C88   S    
C105  C111  A    
C78   H25   S    
C93   C94   A    
C46   C47   A    
C142  H112  S    
C105  H37   S    
O17   Zn6   S    
C31   C32   A    
C33   O18   A    
C8    C9    A    
C21   H55   S    
O24   Zn3   S    
C92   H32   S    
C11   H46   S    
C107  C108  A    
C55   O22   A    
C70   C71   A    
C53   H11   S    
C141  H116  S    
C115  C116  A    
C44   C87   S    
C67   H19   S    
C127  C128  S    
C60   H16   S    
C91   C92   A    
C79   C80   A    
C3    H43   S    
C72   C73   A    
C4    H45   S    
C1    O12   A    
O29   C137  S    
C130  H87   S    
C10   C11   A    
C59   C60   A    
C63   C64   A    
O15   Zn6   S    
C139  H104  S    
C30   C141  S    
C119  H41   S    
C131  H85   S    
C94   C95   A    
C128  H76   S    
C134  H95   S    
O2    Zn4   S    
C27   H54   S    
C106  H38   S    
C112  C113  A    
C132  H91   S    
C14   C98   S    
C131  H84   S    
C73   H22   S    
C22   C23   A    
C72   H21   S    
C83   C89   A    
C141  C142  S    
C54   C56   A    
C79   C89   S    
C74   C75   A    
O8    Zn4   S    
C31   H58   S    
C51   C52   A    
O7    Zn3   S    
C57   C62   A    
C84   C85   A    
C77   C88   A    
O25   C121  S    
C3    C120  A    
C123  H64   S    
C76   C82   A    
C63   O27   S    
C133  H89   S    
C130  C131  S    
C55   C68   S    
C122  C123  S    
C135  C136  S    
C12   H50   S    
C124  H69   S    
C65   C67   A    
C58   C59   A    
C53   C54   A    
C99   C110  A    
C81   C82   A    
C67   C68   A    
C13   C24   A    
O10   Zn6   S    
C60   C61   A    
O4    Zn4   S    
C128  H77   S    
C32   C34   A    
C10   O30   S    
C50   C127  S    
O3    Zn3   S    
C127  H78   S    
C37   C38   A    
C133  H88   S    
C32   H2    S    
C137  H103  S    
O26   C124  S    
C43   C45   A    
C47   C48   A    
C33   O19   A    
C30   C31   A    
C94   H34   S    
C12   C18   A    
C17   C18   A    
C19   H52   S    
C50   C51   A    
C80   O28   S    
C141  H115  S    
C77   H18   S    
O18   Zn1   S    
C124  H68   S    
C136  H97   S    
O5    Zn3   S    
C85   C86   A    
C42   O25   S    
C59   C69   S    
C76   H24   S    
C134  H94   S    
C48   C49   A    
C126  H71   S    
C99   H26   S    
O1    Zn1   S    
C28   C33   S    
C121  H59   S    
O30   C140  S    
C121  H60   S    
C140  H110  S    
C139  H105  S    
O21   Zn2   S    
C84   C104  S    
O23   Zn2   S    
C57   H14   S    
C86   H29   S    
C74   H23   S    
C128  H75   S    
C137  H101  S    
C46   C56   S    
O28   C134  S    
C101  O10   A    
C138  C139  S    
C37   C122  S    
C6    C11   A    
C52   C53   A    
C62   H13   S    
C13   H44   S    
C97   O4    A    
C113  C114  A    
C136  H96   S    
C2    H1    S    
C26   C36   S    
C66   C77   A    
C6    H47   S    
C140  H109  S    
C135  H100  S    
C112  H40   S    
C39   C49   S    
C86   C87   A    
C68   C69   A    
C140  H111  S    
C43   C49   A    
C24   C26   A    
C80   C81   A    
C2    C66   A    
C90   C95   A    
C133  H90   S    
C22   H56   S    
C119  C120  A    
C1    C48   S    
C97   O3    A    
C6    C7    A    
C120  H42   S    
C58   H15   S    
C121  H61   S    
C54   H12   S    
C105  C106  A    
C5    C118  A    
C109  C135  S    
C65   C75   S    
C30   C36   A    
C100  O8    A    
C129  H82   S    
C52   H10   S    
C64   C65   A    
C96   O2    A    
C19   C20   A    
C123  H63   S    
C100  O7    A    
C127  H79   S    
C64   C100  S    
C96   O24   A    
C40   C125  S    
C122  H66   S    
C50   C56   A    
C134  H93   S    
C91   H31   S    
C131  H83   S    
C1    O1    A    
C16   H51   S    
O12   Zn2   S    
C90   C91   A    
C38   C39   A    
C138  H108  S    
C47   H7    S    
O11   Zn5   S    
O22   Zn1   S    
C125  H74   S    
C15   C16   A    
C93   H33   S    
O27   C129  S    
C142  H113  S    
C104  O17   A    
C66   H8    S    
C9    C10   A    
C24   C97   S    
C23   C25   A    
C123  H62   S    
C98   O6    A    
C61   C62   A    
C19   C25   A    
C136  H98   S    
C8    C18   S    
O14   Zn5   S    
C23   H57   S    
C88   C99   A    
C110  H36   S    
C45   C102  S    
C83   H28   S    
C39   C40   A    
C12   C14   A    
C4    C5    A    
C126  H72   S    
C71   C72   A    
C20   C21   A    
C70   C75   A    
C44   O21   A    
C137  H102  S    
C125  C126  S    
C106  C107  A    
C139  H106  S    
O9    Zn5   S    
O20   Zn1   S    
C87   C89   A    
C71   C130  S    
C14   C15   A    
C96   C116  S    
C40   C41   A    
C103  O14   A    
C103  O15   A    
C81   H27   S    
C129  H81   S    
C57   C58   A    
C21   C22   A    
C111  H35   S    
C124  H67   S    
C107  C117  S    
C13   C29   A    
C104  O16   A    
C101  O9    A    
C3    C4    A    
C16   C17   A    
O13   Zn6   S    
C27   C28   A    
C130  H86   S    
C2    C110  A    
