data_mof_unit_pretest_921.cif
_audit_creation_date              2012-12-10T17:18:57-0500
_audit_creation_method            fapswitch 2.2
_symmetry_space_group_name_H-M    P1
_symmetry_Int_Tables_number       1
_space_group_crystal_system       triclinic
_cell_length_a                    10.219781
_cell_length_b                    10.399344
_cell_length_c                    13.444536
_cell_angle_alpha                 92.901134
_cell_angle_beta                  101.180701
_cell_angle_gamma                 96.450043
_cell_volume                      1389.03352245

loop_
_atom_site_label
_atom_site_type_symbol
_atom_type_description
_atom_site_fract_x
_atom_site_fract_y
_atom_site_fract_z
_atom_type_partial_charge
C1    C     C_R   0.052138 0.735093 0.491590 0.910736
C2    C     C_R   0.945211 0.264233 0.503113 0.870041
C3    C     C_R   0.442267 0.560504 0.146278 -0.117990
C4    C     C_R   0.405467 0.279744 0.962770 -0.127070
C5    C     C_R   0.322099 0.613514 0.109177 -0.062726
C6    C     C_R   0.526928 0.226843 0.994267 -0.081813
C7    C     C_2   0.074548 0.872400 0.474387 -0.256328
C8    C     C_2   0.907427 0.123659 0.489315 -0.248273
C9    C     C_2   0.969728 0.921535 0.418478 -0.158728
C10   C     C_2   0.960806 0.060108 0.419763 -0.142865
C11   C     C_2   0.431450 0.511835 0.514905 -0.068669
C12   C     C_2   0.569234 0.470414 0.517675 -0.028313
C13   C     C_R   0.095563 0.518617 0.686805 0.977763
C14   C     C_R   0.904787 0.483291 0.312863 0.909595
C15   C     C_R   0.147075 0.539520 0.797284 -0.170559
C16   C     C_R   0.844500 0.445022 0.205235 -0.096858
C17   C     C_R   0.148922 0.647365 0.962235 -0.164097
C18   C     C_R   0.762804 0.258518 0.085326 -0.171439
C19   C     C_R   0.094666 0.628016 0.858262 -0.119572
C20   C     C_R   0.866988 0.327166 0.158182 -0.151180
C21   C     C_R   0.252536 0.472151 0.841848 0.399339
C22   C     C_R   0.731642 0.503289 0.163951 0.410197
C23   C     C_R   0.298304 0.483975 0.948689 0.005705
C24   C     C_R   0.618015 0.426190 0.103166 0.003937
C25   C     C_R   0.254967 0.581228 0.007449 0.035538
C26   C     C_R   0.636242 0.303424 0.059859 0.012645
C27   C     C_R   0.396188 0.409416 0.996952 -0.006926
C28   C     C_R   0.487986 0.467857 0.082925 -0.003502
H1    H     H_    0.112694 0.720822 0.006257 0.187025
H2    H     H_    0.780755 0.167755 0.050651 0.219747
H3    H     H_    0.018899 0.113790 0.372310 0.219434
H4    H     H_    0.880209 0.857955 0.380470 0.235352
H5    H     H_    0.665161 0.649686 0.551679 0.171834
H6    H     H_    0.333138 0.363539 0.419262 0.207948
N1    N     N_2   0.322180 0.446120 0.460900 -0.195102
N2    N     N_2   0.677820 0.553880 0.539100 -0.211023
O1    O     O_R   0.935190 0.693030 0.507870 -0.579985
O2    O     O_R   0.064810 0.306970 0.492130 -0.586907
O3    O     O_R   0.142080 0.658430 0.482770 -0.576603
O4    O     O_R   0.857920 0.341570 0.517230 -0.574796
O5    O     O_R   0.969700 0.527180 0.651960 -0.600786
O6    O     O_R   0.030300 0.472820 0.348040 -0.573278
O7    O     O_R   0.176600 0.492580 0.626860 -0.534543
O8    O     O_R   0.823400 0.507420 0.373140 -0.546107
Zn1   Zn    Zn3+2 0.861850 0.523100 0.516760 1.042369
Zn2   Zn    Zn3+2 0.138150 0.476900 0.483240 1.059839
C29   C     C_2   0.267624 0.703307 0.175455 0.948279
O9    O     O_2   0.320446 0.815542 0.194786 -0.534344
O10   O     O_R   0.152920 0.660042 0.212301 -0.763162
H7    H     H_    0.124218 0.730004 0.255756 0.345453
C30   C     C_2   0.538267 0.091349 0.960211 0.974254
O11   O     O_2   0.475606 0.001113 0.992628 -0.579801
O12   O     O_R   0.619006 0.067623 0.890106 -0.734725
H8    H     H_    0.617967 0.971558 0.872275 0.367420
O13   O     O_3   0.738071 0.635678 0.183860 -0.753057
H9    H     H_    0.678125 0.669914 0.126960 0.353331
O14   O     O_3   0.315575 0.402866 0.778600 -0.715336
H10   H     H_    0.413415 0.414862 0.807422 0.361341
C31   C     C_2   0.997192 0.273253 0.181020 0.958808
O15   O     O_2   0.103133 0.345683 0.200238 -0.565549
O16   O     O_R   0.998991 0.138837 0.173892 -0.795523
H11   H     H_    0.093526 0.113799 0.189049 0.367179
C32   C     C_2   0.994904 0.713919 0.815160 0.976241
O17   O     O_2   0.901760 0.731194 0.857270 -0.592693
O18   O     O_R   0.010982 0.779986 0.729462 -0.796840
H12   H     H_    0.937720 0.837058 0.708352 0.353327
C33   C     C_2   0.504908 0.583417 0.255574 0.969375
O19   O     O_2   0.535190 0.491272 0.303566 -0.598902
O20   O     O_R   0.532052 0.708983 0.302979 -0.722294
H13   H     H_    0.577662 0.711101 0.377083 0.358766
C34   C     C_2   0.284515 0.197007 0.902111 1.010049
O21   O     O_2   0.173794 0.205690 0.921905 -0.586332
O22   O     O_R   0.296666 0.111083 0.821874 -0.732891
H14   H     H_    0.207184 0.061454 0.786646 0.370210
C35   C     C_2   0.822629 0.057913 0.554832 0.951212
O23   O     O_2   0.808535 0.115193 0.633038 -0.552523
O24   O     O_R   0.757235 0.932101 0.527030 -0.789771
H15   H     H_    0.702180 0.899363 0.577806 0.355639
C36   C     C_2   0.199516 0.953420 0.529010 1.018786
O25   O     O_2   0.264292 0.917107 0.606511 -0.567335
O26   O     O_R   0.243309 0.070832 0.492580 -0.781374
H16   H     H_    0.327651 0.117678 0.538089 0.385732
C37   C     C_2   0.579554 0.331341 0.499411 1.011893
O27   O     O_2   0.564482 0.258173 0.565691 -0.589388
O28   O     O_R   0.602497 0.282940 0.406282 -0.739045
H17   H     H_    0.605380 0.185711 0.402999 0.345825
C38   C     C_2   0.422994 0.632779 0.573612 0.989943
O29   O     O_2   0.408371 0.731754 0.529738 -0.592331
O30   O     O_R   0.443368 0.636213 0.679537 -0.777184
H18   H     H_    0.437864 0.725362 0.711474 0.364330

loop_
_geom_bond_atom_site_label_1
_geom_bond_atom_site_label_2
_ccdc_geom_bond_type
O13   H9    S    
C32   O18   S    
C17   H1    S    
O22   H14   S    
C18   C26   A    
C38   O29   D    
C13   O5    A    
O26   H16   S    
C29   O10   S    
O24   H15   S    
C15   C19   A    
C5    C29   S    
C7    C36   S    
C3    C28   A    
C24   C26   A    
H5    N2    S    
H6    N1    S    
O6    Zn2   S    
C9    H4    S    
C10   H3    S    
C29   O9    D    
C11   C38   S    
C18   H2    S    
C14   C16   S    
C23   C27   A    
C6    C30   S    
C12   N2    D    
C9    C10   S    
C1    O1    A    
C14   O6    A    
C31   O15   D    
O16   H11   S    
C21   C23   A    
O4    Zn1   S    
C3    C33   S    
C31   O16   S    
C33   O19   D    
C36   O25   D    
C4    C6    A    
C19   C32   S    
C36   O26   S    
O28   H17   S    
C8    C35   S    
C30   O11   D    
C12   C37   S    
C33   O20   S    
C35   O23   D    
C21   O14   S    
C2    O2    A    
C37   O27   D    
C16   C20   A    
N2    Zn1   S    
C20   C31   S    
C35   O24   S    
O3    Zn2   S    
C5    C25   A    
C37   O28   S    
O10   H7    S    
C13   C15   S    
C22   C24   A    
O1    Zn1   S    
C13   O7    A    
C4    C27   A    
O8    Zn1   S    
C14   O8    A    
C7    C9    D    
C16   C22   A    
C1    C7    S    
C2    C8    S    
C24   C28   A    
C3    C5    A    
C11   C12   S    
O12   H8    S    
C22   O13   S    
C17   C25   A    
C11   N1    D    
C34   O21   D    
O14   H10   S    
C6    C26   A    
C17   C19   A    
C18   C20   A    
C23   C25   A    
O20   H13   S    
O7    Zn2   S    
O2    Zn2   S    
C1    O3    A    
C32   O17   D    
C2    O4    A    
C15   C21   A    
C8    C10   D    
O18   H12   S    
C34   O22   S    
C27   C28   A    
C38   O30   S    
O5    Zn1   S    
C30   O12   S    
O30   H18   S    
N1    Zn2   S    
C4    C34   S    
