data_mof_unit_pretest_1563.cif
_audit_creation_date              2012-12-10T16:48:53-0500
_audit_creation_method            fapswitch 2.2
_symmetry_space_group_name_H-M    P1
_symmetry_Int_Tables_number       1
_space_group_crystal_system       triclinic
_cell_length_a                    18.434567
_cell_length_b                    18.405544
_cell_length_c                    18.416539
_cell_angle_alpha                 119.769871
_cell_angle_beta                  119.615734
_cell_angle_gamma                 90.534358
_cell_volume                      4438.74144081

loop_
_atom_site_label
_atom_site_type_symbol
_atom_type_description
_atom_site_fract_x
_atom_site_fract_y
_atom_site_fract_z
_atom_type_partial_charge
C1    C     C_R   0.138362 0.361163 0.998002 0.504244
C2    C     C_2   0.803305 0.691041 0.998741 -0.094549
C3    C     C_2   0.726411 0.281182 0.443908 -0.164977
C4    C     C_R   0.861180 0.638189 0.999774 0.511679
C5    C     C_2   0.691655 0.192398 0.387720 -0.099444
C6    C     C_2   0.779828 0.337417 0.556302 -0.158719
C7    C     C_2   0.809685 0.304423 0.612230 -0.094582
C8    C     C_2   0.336587 0.280665 0.056329 -0.163209
C9    C     C_2   0.306011 0.192799 0.008960 -0.086827
C10   C     C_2   0.278115 0.333947 0.060784 -0.167968
C11   C     C_2   0.192207 0.305040 0.983283 -0.002438
C12   C     C_3   0.711569 0.316906 0.967263 -0.215098
C13   C     C_2   0.217391 0.779735 0.941330 -0.161113
C14   C     C_2   0.305017 0.797409 0.992953 -0.087797
C15   C     C_2   0.161664 0.719560 0.936826 -0.161232
C16   C     C_R   0.138470 0.638801 0.276960 0.510121
C17   C     C_2   0.195359 0.702435 0.007305 -0.088225
C18   C     C_2   0.219100 0.779066 0.556432 -0.159318
C19   C     C_2   0.307822 0.803285 0.612256 -0.094043
C20   C     C_2   0.162755 0.720254 0.444030 -0.160825
C21   C     C_2   0.195291 0.696867 0.387699 -0.094392
C22   C     C_R   0.638481 0.138437 0.276996 0.504326
C23   C     C_3   0.801718 0.300767 0.000555 0.023658
C24   C     C_R   0.361693 0.861196 0.723030 0.512067
C25   C     C_R   0.639057 0.861978 0.000552 0.513815
C26   C     C_R   0.361709 0.138479 0.001487 0.515684
C27   C     C_R   0.359515 0.858422 0.998975 0.515399
C28   C     C_R   0.861978 0.361375 0.722980 0.513100
C29   C     C_R   0.640917 0.141313 0.999545 0.542214
C30   C     C_R   0.140445 0.641495 0.000923 0.516384
C31   C     C_R   0.859072 0.358524 0.000317 0.502018
C32   C     C_3   0.783757 0.200799 0.925429 -0.251450
C33   C     C_3   0.723547 0.141505 0.924597 -0.270801
C34   C     C_3   0.699603 0.199289 0.000649 0.075244
C35   C     C_3   0.847704 0.322403 0.109342 -0.236886
C36   C     C_R   0.152189 0.223800 0.878066 0.034374
C37   C     C_R   0.077879 0.153944 0.831568 -0.081566
C38   C     C_R   0.040880 0.077900 0.732998 -0.111996
C39   C     C_R   0.077456 0.071072 0.680011 -0.098444
C40   C     C_R   0.151028 0.140352 0.725424 -0.108440
C41   C     C_R   0.188224 0.216556 0.823941 -0.088516
C42   C     C_R   0.834530 0.218846 0.161978 0.021987
C43   C     C_R   0.888189 0.171565 0.138425 -0.093660
C44   C     C_R   0.927865 0.128145 0.184212 -0.109542
C45   C     C_3   0.787030 0.264483 0.110832 -0.109229
C46   C     C_R   0.914880 0.131327 0.254127 -0.101047
C47   C     C_R   0.862572 0.178404 0.278928 -0.110824
C48   C     C_R   0.822929 0.222110 0.233604 -0.089981
C49   C     C_3   0.649612 0.254617 0.962955 0.093745
C50   C     C_2   0.722192 0.778239 0.940896 -0.159305
C51   C     C_2   0.697352 0.809594 0.004973 -0.093415
C52   C     C_2   0.780934 0.724629 0.943561 -0.159898
H1    H     H_    0.847354 0.187184 0.947686 0.130569
H2    H     H_    0.795598 0.408772 0.593777 0.155016
H3    H     H_    0.751228 0.183353 0.846702 0.138028
H4    H     H_    0.797954 0.234137 0.578144 0.105430
H5    H     H_    0.406251 0.315113 0.096343 0.164138
H6    H     H_    0.238127 0.159132 0.975628 0.120216
H7    H     H_    0.307074 0.399263 0.131994 0.148212
H8    H     H_    0.185103 0.808828 0.900084 0.157154
H9    H     H_    0.338478 0.765441 0.029672 0.106581
H10   H     H_    0.091515 0.690055 0.875025 0.156898
H11   H     H_    0.263834 0.734759 0.073063 0.105589
H12   H     H_    0.861685 0.393909 0.164734 0.122397
H13   H     H_    0.185480 0.802048 0.594016 0.154843
H14   H     H_    0.661978 0.097312 0.845703 0.120127
H15   H     H_    0.343747 0.779925 0.578072 0.105351
H16   H     H_    0.091741 0.696527 0.406915 0.153577
H17   H     H_    0.265216 0.721062 0.421495 0.106368
H18   H     H_    0.755792 0.096555 0.942352 0.143420
H19   H     H_    0.913268 0.313056 0.134840 0.117710
H20   H     H_    0.722857 0.387953 0.020872 0.144000
H21   H     H_    0.679026 0.303785 0.890433 0.097183
H22   H     H_    0.592655 0.207202 0.881525 0.150642
H23   H     H_    0.767586 0.311638 0.159437 0.117403
H24   H     H_    0.661234 0.354551 0.084564 0.323227
H25   H     H_    0.049491 0.157804 0.872169 0.118944
H26   H     H_    0.983980 0.024129 0.697793 0.106583
H27   H     H_    0.048790 0.012101 0.603768 0.109474
H28   H     H_    0.179227 0.135033 0.684256 0.110716
H29   H     H_    0.245094 0.269874 0.858155 0.120277
H30   H     H_    0.900020 0.168104 0.085083 0.094239
H31   H     H_    0.968729 0.091880 0.165340 0.106732
H32   H     H_    0.945481 0.097430 0.289214 0.109820
H33   H     H_    0.852461 0.180872 0.333130 0.111686
H34   H     H_    0.699684 0.792930 0.884468 0.154661
H35   H     H_    0.782096 0.257584 0.253601 0.118430
H36   H     H_    0.720468 0.798847 0.064248 0.105523
H37   H     H_    0.805367 0.711631 0.896867 0.154233
H38   H     H_    0.778439 0.700236 0.043891 0.105949
H39   H     H_    0.714416 0.314903 0.406652 0.151238
H40   H     H_    0.700098 0.156429 0.421612 0.107689
O1    O     O_3   0.000000 0.500000 0.000000 -0.439438
O2    O     O_R   0.324760 0.053850 0.939900 -0.541662
O3    O     O_R   0.443270 0.883090 0.060070 -0.541894
O4    O     O_R   0.053940 0.324750 0.939940 -0.546534
O5    O     O_R   0.616890 0.176890 0.060090 -0.511091
O6    O     O_R   0.323100 0.883090 0.939900 -0.545803
O7    O     O_R   0.616910 0.056740 0.939940 -0.560128
O8    O     O_R   0.615250 0.885990 0.939940 -0.540774
O9    O     O_R   0.446110 0.175200 0.060060 -0.531116
O10   O     O_R   0.614030 0.053850 0.229160 -0.540776
O11   O     O_R   0.324790 0.884790 0.770830 -0.539982
O12   O     O_R   0.053880 0.613970 0.229150 -0.542743
O13   O     O_R   0.884790 0.613970 0.060060 -0.542808
O14   O     O_R   0.175250 0.615170 0.229170 -0.541922
O15   O     O_R   0.886020 0.446110 0.770840 -0.541878
O16   O     O_R   0.176940 0.616860 0.060100 -0.541262
O17   O     O_R   0.883150 0.323060 0.939910 -0.550312
O18   O     O_R   0.056770 0.616860 0.939930 -0.545713
O19   O     O_R   0.883130 0.443210 0.060060 -0.549514
O20   O     O_3   0.613059 0.301777 0.016206 -0.692634
O21   O     O_R   0.884840 0.324750 0.770840 -0.541326
O22   O     O_R   0.175280 0.446110 0.060100 -0.544155
O23   O     O_R   0.885990 0.615170 0.939900 -0.541997
O24   O     O_3   0.500040 0.999960 0.000000 -0.444830
O25   O     O_R   0.615200 0.175200 0.229160 -0.550704
O26   O     O_R   0.446160 0.885990 0.770850 -0.544120
O27   O     O_R   0.614060 0.884790 0.060100 -0.541338
Zn1   Zn    Zn3+2 0.956210 0.542060 0.085830 0.927941
Zn2   Zn    Zn3+2 0.129620 0.543770 0.085850 0.938124
Zn3   Zn    Zn3+2 0.957930 0.543770 0.914160 0.932435
Zn4   Zn    Zn3+2 0.956240 0.370390 0.914160 0.927986
Zn5   Zn    Zn3+2 0.543830 0.957900 0.914170 0.934277
Zn6   Zn    Zn3+2 0.542120 0.956180 0.085840 0.939227
Zn7   Zn    Zn3+2 0.370430 0.956180 0.914150 0.936937
Zn8   Zn    Zn3+2 0.543800 0.129560 0.085840 0.948953

loop_
_geom_bond_atom_site_label_1
_geom_bond_atom_site_label_2
_ccdc_geom_bond_type
C26   O2    A    
C22   O25   A    
C27   O6    A    
C16   C21   S    
C4    O23   A    
C27   O3    A    
C1    C11   S    
O16   Zn2   S    
O5    Zn8   S    
O10   Zn6   S    
C12   C49   S    
C52   H37   S    
C13   H8    S    
C18   H13   S    
C12   C23   S    
C30   O18   A    
C47   H33   S    
C36   C37   A    
O1    Zn2   S    
C18   C19   D    
C26   O9    A    
C38   C39   A    
C28   O15   A    
C3    H39   S    
C9    H6    S    
C2    H38   S    
O11   Zn7   S    
O22   Zn2   S    
C16   O12   A    
C5    C22   S    
C8    C9    D    
O24   Zn8   S    
C9    C26   S    
C50   C52   S    
C40   H28   S    
O13   Zn1   S    
C19   H15   S    
C35   H12   S    
O1    Zn1   S    
C14   C27   S    
C32   H3    S    
C16   O14   A    
C44   H31   S    
C12   H20   S    
C35   H19   S    
O23   Zn3   S    
O24   Zn7   S    
C13   C14   D    
C17   C30   S    
C36   C41   A    
C7    H4    S    
C6    H2    S    
C25   O27   A    
C44   C46   A    
C33   H14   S    
C50   C51   D    
O2    Zn7   S    
C29   O7    A    
O1    Zn3   S    
C10   C11   D    
C39   C40   A    
O17   Zn4   S    
C42   C48   A    
C38   H26   S    
C14   H9    S    
C37   H25   S    
C29   C34   S    
C7    C28   S    
C21   H17   S    
O19   Zn1   S    
O8    Zn5   S    
C42   C45   S    
C23   C31   S    
O18   Zn3   S    
C2    C4    S    
C43   C44   A    
C25   C51   S    
C37   C38   A    
C8    H5    S    
O3    Zn6   S    
C25   O8    A    
C47   C48   A    
O21   Zn4   S    
H24   O20   S    
C41   H29   S    
C33   C34   S    
C31   O17   A    
C48   H35   S    
C34   C45   S    
O26   Zn5   S    
O25   Zn8   S    
C2    C52   D    
C33   H18   S    
C49   O20   S    
C46   H32   S    
O27   Zn6   S    
C40   C41   A    
C23   C35   S    
O24   Zn6   S    
C13   C15   S    
C1    O22   A    
C35   C45   S    
C32   H1    S    
C15   C17   D    
C46   C47   A    
C11   C36   S    
C34   C49   S    
O24   Zn5   S    
O4    Zn4   S    
C30   O16   A    
C20   H16   S    
O1    Zn4   S    
C3    C5    D    
C51   H36   S    
C6    C7    D    
C4    O13   A    
C24   O26   A    
C22   O10   A    
C29   O5    A    
C45   H23   S    
C24   O11   A    
C32   C33   S    
C10   H7    S    
C23   C32   S    
C1    O4    A    
O14   Zn2   S    
O9    Zn8   S    
C15   H10   S    
C19   C24   S    
C18   C20   S    
C5    H40   S    
C28   O21   A    
C50   H34   S    
O6    Zn7   S    
C20   C21   D    
C8    C10   S    
C42   C43   A    
C3    C6    S    
C43   H30   S    
C31   O19   A    
C49   H22   S    
O15   Zn3   S    
C12   H21   S    
C17   H11   S    
C39   H27   S    
O7    Zn5   S    
O12   Zn1   S    
