data_mof_unit_pretest_1128.cif
_audit_creation_date              2012-12-10T21:12:23-0500
_audit_creation_method            fapswitch 2.2
_symmetry_space_group_name_H-M    P1
_symmetry_Int_Tables_number       1
_space_group_crystal_system       triclinic
_cell_length_a                    13.263437
_cell_length_b                    16.720626
_cell_length_c                    17.534411
_cell_angle_alpha                 90.023208
_cell_angle_beta                  92.207378
_cell_angle_gamma                 71.863925
_cell_volume                      3692.4526495

loop_
_atom_site_label
_atom_site_type_symbol
_atom_type_description
_atom_site_fract_x
_atom_site_fract_y
_atom_site_fract_z
_atom_type_partial_charge
C1    C     C_R   0.494625 0.501394 0.647144 0.930589
C2    C     C_R   0.970372 0.474043 0.462807 0.109012
C3    C     C_R   0.860113 0.496337 0.455976 0.052927
C4    C     C_R   0.018439 0.538105 0.474121 -0.077998
C5    C     C_R   0.960224 0.623647 0.455098 -0.069624
C6    C     C_R   0.851690 0.642291 0.431192 -0.017991
C7    C     C_R   0.803314 0.579723 0.433974 -0.191415
C8    C     C_R   0.122979 0.518438 0.504733 0.355785
C9    C     C_R   0.121482 0.661956 0.483562 0.381570
C10   C     C_R   0.811542 0.432404 0.465517 -0.207843
C11   C     C_R   0.455392 0.442248 0.149453 0.325557
C12   C     C_R   0.701642 0.455643 0.490183 0.876180
C13   C     C_R   0.486654 0.431890 0.226697 0.292755
C14   C     C_R   0.499165 0.500648 0.268427 -0.412352
C15   C     C_R   0.504307 0.572524 0.228590 0.337061
C16   C     C_R   0.470687 0.583924 0.151298 0.353398
C17   C     C_R   0.447733 0.518291 0.112453 -0.241724
C18   C     C_1   0.430201 0.524668 0.032237 0.117320
C19   C     C_1   0.422861 0.525219 0.964479 0.037442
C20   C     C_R   0.462740 0.440003 0.850532 -0.144626
C21   C     C_R   0.480394 0.433865 0.772221 0.432420
C22   C     C_R   0.470533 0.507760 0.728900 -0.295744
C23   C     C_R   0.503261 0.499192 0.352565 0.942109
C24   C     C_R   0.429966 0.587839 0.763622 -0.190966
C25   C     C_R   0.403467 0.592957 0.840169 0.459493
C26   C     C_R   0.425310 0.519365 0.883841 -0.131245
C27   C     C_R   0.577678 0.150929 0.550464 -0.389540
C28   C     C_R   0.570664 0.236740 0.548953 0.014129
C29   C     C_R   0.436302 0.264549 0.450297 0.456832
C30   C     C_R   0.431461 0.180847 0.458365 0.323720
C31   C     C_R   0.507580 0.122114 0.505359 -0.014982
C32   C     C_1   0.513301 0.032739 0.505856 0.054414
C33   C     C_1   0.514281 0.959314 0.504112 0.005674
C34   C     C_R   0.295512 0.546030 0.501769 0.907957
C35   C     C_R   0.579888 0.809734 0.548258 -0.386088
C36   C     C_R   0.573100 0.726282 0.548213 0.574070
C37   C     C_R   0.432044 0.766361 0.452489 0.566898
C38   C     C_R   0.437992 0.850213 0.452860 -0.412857
C39   C     C_R   0.511296 0.872157 0.501313 0.070922
C40   C     C_R   0.013503 0.685559 0.461047 -0.109001
C41   C     C_R   0.178450 0.576357 0.497718 -0.300845
C42   C     C_R   0.869893 0.348565 0.448116 -0.048530
C43   C     C_R   0.976319 0.330862 0.430515 -0.012192
C44   C     C_R   0.028349 0.389714 0.448054 -0.216137
H1    H     H_    0.636672 0.107112 0.587540 0.178239
H2    H     H_    0.637916 0.827433 0.583480 0.156965
H3    H     H_    0.386358 0.899145 0.416516 0.164132
H4    H     H_    0.111725 0.371516 0.441098 0.160579
H5    H     H_    0.721934 0.596324 0.412335 0.184827
N1    N     N_R   0.499970 0.292770 0.499970 -0.163461
N2    N     N_R   0.499980 0.707230 0.499990 -0.159740
O1    O     O_R   0.500000 0.433430 0.610870 -0.599899
O2    O     O_R   0.500010 0.566520 0.610900 -0.590870
O3    O     O_R   0.653610 0.400420 0.499960 -0.618674
O4    O     O_R   0.653620 0.533500 0.499990 -0.583580
O5    O     O_R   0.499990 0.433480 0.389100 -0.552519
O6    O     O_R   0.500000 0.566570 0.389130 -0.557655
O7    O     O_R   0.346380 0.466500 0.500010 -0.600584
O8    O     O_R   0.346390 0.599580 0.500040 -0.567216
Zn1   Zn    Zn3+2 0.500000 0.411140 0.499980 0.992682
Zn2   Zn    Zn3+2 0.500000 0.588860 0.500020 1.031730
O9    O     O_3   0.171938 0.723191 0.486450 -0.612343
C45   C     C_3   0.189972 0.743371 0.563256 0.157336
H6    H     H_    0.262712 0.762927 0.565256 0.186150
H7    H     H_    0.205728 0.688902 0.603640 0.093237
C46   C     C_3   0.097639 0.817058 0.590079 -0.407942
H8    H     H_    0.081625 0.870539 0.548932 0.238192
H9    H     H_    0.025275 0.797345 0.592894 0.221823
C47   C     C_3   0.122699 0.846032 0.669007 -0.944766
H10   H     H_    0.139828 0.793084 0.710657 0.263105
H11   H     H_    0.053436 0.897835 0.687967 0.272973
H12   H     H_    0.192398 0.869362 0.667484 0.273257
O10   O     O_3   0.501929 0.354617 0.261296 -0.561031
C48   C     C_3   0.607513 0.303906 0.250779 0.160699
H13   H     H_    0.664349 0.331177 0.281204 0.108589
H14   H     H_    0.625114 0.298052 0.188960 0.155398
C49   C     C_3   0.622838 0.215985 0.283326 -0.271183
H15   H     H_    0.614067 0.219748 0.346073 0.244118
H16   H     H_    0.560825 0.190901 0.257992 0.238209
C50   C     C_3   0.732103 0.155650 0.266307 -0.954376
H17   H     H_    0.739676 0.146783 0.203763 0.265247
H18   H     H_    0.742519 0.093585 0.293712 0.280347
H19   H     H_    0.795718 0.180477 0.288891 0.276206
O11   O     O_3   0.546806 0.629008 0.265061 -0.618487
C51   C     C_3   0.649175 0.620827 0.237986 0.113816
H20   H     H_    0.679947 0.666003 0.270302 0.168930
H21   H     H_    0.644625 0.640085 0.176973 0.178841
C52   C     C_3   0.728916 0.531579 0.249783 -0.425700
H22   H     H_    0.723997 0.508071 0.308192 0.218725
H23   H     H_    0.708958 0.487566 0.208759 0.206755
C53   C     C_3   0.842634 0.530221 0.237026 -0.910571
H24   H     H_    0.849955 0.549440 0.177398 0.262228
H25   H     H_    0.897571 0.465516 0.247323 0.272216
H26   H     H_    0.866298 0.573438 0.276805 0.271856
O12   O     O_3   0.467366 0.656396 0.111498 -0.624567
C54   C     C_3   0.378579 0.723837 0.132721 0.132353
H27   H     H_    0.387475 0.782441 0.108293 0.167588
H28   H     H_    0.376736 0.732164 0.195511 0.138743
C55   C     C_3   0.273701 0.713572 0.100860 -0.406425
H29   H     H_    0.279921 0.700531 0.038973 0.251009
H30   H     H_    0.258229 0.659525 0.129495 0.204384
C56   C     C_3   0.180012 0.792175 0.113203 -0.958398
H31   H     H_    0.169270 0.802967 0.175175 0.261556
H32   H     H_    0.106504 0.783436 0.087308 0.271857
H33   H     H_    0.192983 0.848021 0.086123 0.268367
C57   C     C_1   0.487053 0.364056 0.896903 0.240501
N3    N     N_1   0.506529 0.303595 0.934102 -0.203250
O13   O     O_3   0.516834 0.354795 0.740084 -0.619197
C58   C     C_3   0.430705 0.322826 0.725635 0.082893
H34   H     H_    0.361613 0.350554 0.762172 0.118942
H35   H     H_    0.402571 0.336195 0.665066 0.177645
C59   C     C_3   0.468191 0.227634 0.739415 -0.319748
H36   H     H_    0.541363 0.198091 0.708115 0.229954
H37   H     H_    0.487403 0.213960 0.801181 0.230091
C60   C     C_3   0.383078 0.188674 0.713302 -0.978440
H38   H     H_    0.310246 0.215117 0.746003 0.264754
H39   H     H_    0.412964 0.119487 0.722800 0.272453
H40   H     H_    0.363158 0.201554 0.651572 0.255232
C61   C     C_1   0.413882 0.666622 0.723097 0.284477
N4    N     N_1   0.401198 0.729878 0.691356 -0.247087
O14   O     O_3   0.363931 0.670930 0.873738 -0.622657
C62   C     C_3   0.251818 0.694590 0.869876 0.055558
H41   H     H_    0.224383 0.658647 0.913594 0.138217
H42   H     H_    0.220261 0.682608 0.812479 0.120771
C63   C     C_3   0.206767 0.788780 0.885242 -0.307615
H43   H     H_    0.242140 0.804091 0.939565 0.237141
H44   H     H_    0.228090 0.824643 0.838486 0.228970
C64   C     C_3   0.086212 0.816148 0.890206 -0.967527
H45   H     H_    0.048790 0.802182 0.836192 0.267966
H46   H     H_    0.055918 0.884925 0.900256 0.271012
H47   H     H_    0.063514 0.782863 0.938230 0.266950
C65   C     C_1   0.644620 0.263294 0.596686 0.333073
N5    N     N_1   0.704715 0.283896 0.635228 -0.182170
O15   O     O_3   0.404140 0.307497 0.381715 -0.578454
C66   C     C_3   0.293339 0.342777 0.375016 0.105446
H48   H     H_    0.264600 0.382056 0.424911 0.178459
H49   H     H_    0.254638 0.293095 0.368530 0.169082
C67   C     C_3   0.264589 0.398740 0.303593 -0.282211
H50   H     H_    0.299788 0.450753 0.309271 0.229623
H51   H     H_    0.298154 0.360039 0.253879 0.257011
C68   C     C_3   0.144973 0.436558 0.289325 -1.042043
H52   H     H_    0.106556 0.386292 0.286314 0.281596
H53   H     H_    0.128548 0.471918 0.234287 0.267903
H54   H     H_    0.110481 0.481067 0.335233 0.281684
C69   C     C_1   0.784457 0.723845 0.404008 0.135721
N6    N     N_1   0.729459 0.788612 0.382041 -0.190156
O16   O     O_3   0.351476 0.156627 0.422002 -0.640335
C70   C     C_3   0.274337 0.156330 0.476218 0.062667
H55   H     H_    0.207098 0.215185 0.469183 0.147832
H56   H     H_    0.303183 0.153934 0.537106 0.116474
C71   C     C_3   0.235451 0.080099 0.463906 -0.302351
H57   H     H_    0.209998 0.077199 0.403381 0.251686
H58   H     H_    0.301458 0.022117 0.477463 0.214447
C72   C     C_3   0.144484 0.082034 0.515412 -0.938249
H59   H     H_    0.171341 0.080338 0.576355 0.261917
H60   H     H_    0.117910 0.026227 0.504147 0.263654
H61   H     H_    0.076106 0.139649 0.504381 0.275804
O17   O     O_3   0.639609 0.659964 0.592593 -0.600700
C73   C     C_3   0.699341 0.682134 0.652869 0.082019
H62   H     H_    0.710719 0.633818 0.698621 0.172302
H63   H     H_    0.656969 0.742583 0.680341 0.125501
C74   C     C_3   0.809685 0.678418 0.626477 -0.360400
H64   H     H_    0.850395 0.614149 0.605464 0.237274
H65   H     H_    0.802530 0.723687 0.578801 0.223881
C75   C     C_3   0.877858 0.698410 0.691193 -0.974384
H66   H     H_    0.840880 0.763602 0.711330 0.270516
H67   H     H_    0.957804 0.692873 0.670444 0.264098
H68   H     H_    0.887172 0.653488 0.739564 0.266004
O18   O     O_3   0.356742 0.740825 0.409536 -0.576009
C76   C     C_3   0.305377 0.795433 0.348447 0.128742
H69   H     H_    0.279553 0.756770 0.305073 0.150220
H70   H     H_    0.360407 0.822268 0.318652 0.122460
C77   C     C_3   0.204654 0.862676 0.374409 -0.357055
H71   H     H_    0.140045 0.834085 0.379494 0.263892
H72   H     H_    0.218629 0.887078 0.431413 0.225699
C78   C     C_3   0.167384 0.936143 0.317726 -0.969782
H73   H     H_    0.231141 0.965151 0.309999 0.265362
H74   H     H_    0.096805 0.984568 0.339520 0.285075
H75   H     H_    0.145073 0.914445 0.261692 0.269107
C79   C     C_1   0.962373 0.773819 0.443033 0.216175
N7    N     N_1   0.922728 0.844581 0.428920 -0.208036
O19   O     O_3   0.171098 0.443620 0.544432 -0.664313
C80   C     C_3   0.131553 0.448989 0.618880 0.104128
H76   H     H_    0.153927 0.383868 0.642460 0.159856
H77   H     H_    0.043178 0.473933 0.618583 0.139229
C81   C     C_3   0.180701 0.501614 0.671643 -0.386404
H78   H     H_    0.268427 0.478741 0.668525 0.214355
H79   H     H_    0.152163 0.568605 0.652980 0.199631
C82   C     C_3   0.150549 0.496894 0.754218 -0.980977
H80   H     H_    0.063243 0.523952 0.758868 0.273852
H81   H     H_    0.190021 0.533386 0.790931 0.253761
H82   H     H_    0.176243 0.430644 0.775040 0.259144
C83   C     C_1   0.822030 0.281646 0.444076 0.193873
N8    N     N_1   0.784572 0.227747 0.441151 -0.213917
C84   C     C_1   0.027397 0.259289 0.384408 0.111707
N9    N     N_1   0.066428 0.203128 0.345575 -0.205541
O20   O     O_3   0.440960 0.374582 0.109882 -0.608809
C85   C     C_3   0.331568 0.389190 0.092409 0.106176
H83   H     H_    0.310129 0.420937 0.035756 0.138557
H84   H     H_    0.279289 0.429168 0.135369 0.116637
C86   C     C_3   0.310068 0.304622 0.088418 -0.307917
H85   H     H_    0.355485 0.266759 0.041681 0.233998
H86   H     H_    0.337324 0.269321 0.142974 0.234889
C87   C     C_3   0.192125 0.316368 0.073913 -0.969428
H87   H     H_    0.145523 0.352020 0.121193 0.272645
H88   H     H_    0.179416 0.253871 0.070577 0.273726
H89   H     H_    0.163368 0.350834 0.019177 0.263257

loop_
_geom_bond_atom_site_label_1
_geom_bond_atom_site_label_2
_ccdc_geom_bond_type
C66   C67   S    
C46   H9    S    
C45   H7    S    
C75   H66   S    
C10   C42   A    
C11   C13   A    
C86   H85   S    
C52   H23   S    
C2    C4    A    
O12   C54   S    
N2    Zn2   S    
C70   C71   S    
C49   H15   S    
C4    C8    A    
C64   H45   S    
C59   H37   S    
C69   N6    T    
C30   O16   S    
O3    Zn1   S    
C51   H20   S    
C73   C74   S    
C33   C39   S    
C63   H43   S    
C48   H14   S    
C37   C38   A    
C70   H56   S    
C3    C7    A    
C80   H77   S    
C37   O18   S    
C5    C6    A    
C37   N2    A    
C49   C50   S    
C46   C47   S    
C57   N3    T    
O20   C85   S    
O7    Zn1   S    
C60   H38   S    
C54   C55   S    
O13   C58   S    
C56   H33   S    
C43   C84   S    
C18   C19   T    
O10   C48   S    
C71   C72   S    
C82   H81   S    
C19   C26   S    
C1    O2    A    
O19   C80   S    
O1    Zn1   S    
C58   H35   S    
C40   C79   S    
C28   N1    A    
O11   C51   S    
C78   H75   S    
O16   C70   S    
C82   H82   S    
C2    C44   A    
C16   C17   A    
C60   H39   S    
C48   C49   S    
C54   H28   S    
C63   C64   S    
C71   H57   S    
C73   H63   S    
C85   H83   S    
C13   C14   A    
C29   C30   A    
C72   H60   S    
C36   O17   S    
C52   H22   S    
C27   H1    S    
C51   H21   S    
C29   O15   S    
C45   C46   S    
C1    C22   S    
C75   H67   S    
C66   H49   S    
C21   C22   A    
C87   H87   S    
C86   H86   S    
C47   H10   S    
C34   C41   S    
O2    Zn2   S    
C50   H19   S    
C59   H36   S    
C20   C57   S    
C29   N1    A    
C77   H72   S    
O8    Zn2   S    
C47   H11   S    
C48   H13   S    
C27   C31   A    
C9    O9    S    
C12   O4    A    
O18   C76   S    
C66   H48   S    
C44   H4    S    
C24   C25   A    
C7    H5    S    
C72   H61   S    
C50   H18   S    
C58   C59   S    
C53   H24   S    
C6    C69   S    
C65   N5    T    
C25   C26   A    
C77   H71   S    
C9    C40   A    
C84   N9    T    
C28   C65   S    
C35   C36   A    
C14   C23   S    
C42   C83   S    
C35   C39   A    
C43   C44   A    
C11   O20   S    
C80   H76   S    
O9    C45   S    
C53   H25   S    
C74   C75   S    
C73   H62   S    
C52   C53   S    
C30   C31   A    
C60   H40   S    
C54   H27   S    
C85   C86   S    
C38   H3    S    
C17   C18   S    
C72   H59   S    
C49   H16   S    
C8    C41   A    
C56   H32   S    
C23   O5    A    
O14   C62   S    
C15   O11   S    
C36   N2    A    
C10   C12   S    
C78   H73   S    
C55   H30   S    
C87   H88   S    
C75   H68   S    
O17   C73   S    
C86   C87   S    
C22   C24   A    
C68   H54   S    
C42   C43   A    
C81   H79   S    
C64   H47   S    
C47   H12   S    
C79   N7    T    
C34   O7    A    
C74   H64   S    
C51   C52   S    
C8    O19   S    
C82   H80   S    
C23   O6    A    
C11   C17   A    
C24   C61   S    
C34   O8    A    
C31   C32   S    
C13   O10   S    
C50   H17   S    
C67   C68   S    
C64   H46   S    
C61   N4    T    
O6    Zn2   S    
C6    C7    A    
C67   H51   S    
C25   O14   S    
O15   C66   S    
C9    C41   A    
C55   H29   S    
C80   C81   S    
N1    Zn1   S    
C32   C33   T    
C62   C63   S    
C68   H53   S    
C2    C3    A    
C81   H78   S    
C74   H65   S    
C68   H52   S    
C53   H26   S    
C16   O12   S    
C38   C39   A    
C20   C26   A    
C81   C82   S    
C3    C10   A    
O4    Zn2   S    
C78   H74   S    
C77   C78   S    
C46   H8    S    
C87   H89   S    
C70   H55   S    
C71   H58   S    
C56   H31   S    
C1    O1    A    
C21   O13   S    
C67   H50   S    
C45   H6    S    
O5    Zn1   S    
C4    C5    A    
C55   C56   S    
C20   C21   A    
C83   N8    T    
C76   H69   S    
C5    C40   A    
C27   C28   A    
C63   H44   S    
C14   C15   A    
C85   H84   S    
C76   H70   S    
C62   H41   S    
C58   H34   S    
C35   H2    S    
C62   H42   S    
C59   C60   S    
C12   O3    A    
C15   C16   A    
C76   C77   S    
