data_mof_unit_pretest_506.cif
_audit_creation_date              2012-12-10T17:50:41-0500
_audit_creation_method            fapswitch 2.2
_symmetry_space_group_name_H-M    P1
_symmetry_Int_Tables_number       1
_space_group_crystal_system       triclinic
_cell_length_a                    15.70844
_cell_length_b                    10.632287
_cell_length_c                    9.934633
_cell_angle_alpha                 89.854776
_cell_angle_beta                  89.860584
_cell_angle_gamma                 91.694228
_cell_volume                      1658.51314684

loop_
_atom_site_label
_atom_site_type_symbol
_atom_type_description
_atom_site_fract_x
_atom_site_fract_y
_atom_site_fract_z
_atom_type_partial_charge
C1    C     C_R   0.502219 0.260765 0.500166 0.836680
C2    C     C_R   0.710861 0.074114 0.686309 -0.136062
C3    C     C_R   0.710993 0.943255 0.685956 -0.144302
C4    C     C_R   0.338021 0.499555 0.500136 0.881439
C5    C     C_R   0.644652 0.874848 0.624826 -0.178642
C6    C     C_R   0.576131 0.937191 0.564188 0.097954
C7    C     C_R   0.575949 0.069073 0.564639 0.096549
C8    C     C_R   0.508070 0.128672 0.500055 -0.081953
C9    C     C_R   0.444178 0.061936 0.431851 -0.216281
C10   C     C_R   0.444382 0.933435 0.431395 -0.195348
C11   C     C_R   0.508454 0.871987 0.499180 -0.089448
C12   C     C_3   0.082542 0.497464 0.500750 0.209745
C13   C     C_R   0.388920 0.334304 0.140506 -0.116993
C14   C     C_R   0.334425 0.252302 0.070836 -0.193563
C15   C     C_R   0.334437 0.252321 0.931515 -0.192382
C16   C     C_R   0.502548 0.739399 0.499803 0.867061
C17   C     C_R   0.388976 0.334302 0.861024 -0.116964
C18   C     C_R   0.445388 0.418332 0.928186 0.149972
C19   C     C_R   0.445380 0.418359 0.072552 0.071608
C20   C     C_R   0.552631 0.578783 0.071803 0.502114
C21   C     C_R   0.552274 0.578236 0.927726 -0.239301
C22   C     C_R   0.661971 0.500325 0.499886 0.881156
C23   C     C_3   0.973651 0.594732 0.574777 -0.166064
C24   C     C_3   0.969283 0.388900 0.553195 -0.168581
C25   C     C_3   0.026197 0.400688 0.426200 -0.167315
C26   C     C_1   0.248950 0.498547 0.500511 -0.186171
C27   C     C_1   0.750983 0.499531 0.499712 -0.179429
C28   C     C_3   0.027454 0.485668 0.627750 -0.164320
C29   C     C_3   0.917301 0.497984 0.500221 0.209797
C30   C     C_3   0.030517 0.606510 0.447800 -0.163329
C31   C     C_3   0.972392 0.509760 0.373244 -0.156435
C32   C     C_1   0.173534 0.497803 0.500740 -0.086507
C33   C     C_1   0.826354 0.498726 0.499875 -0.080545
C34   C     C_R   0.644349 0.137032 0.625643 -0.171846
H1    H     H_    0.049890 0.321406 0.365512 0.130279
H2    H     H_    0.941985 0.300019 0.596231 0.129792
H3    H     H_    0.947694 0.519618 0.269253 0.135700
H4    H     H_    0.057722 0.695432 0.404745 0.131536
H5    H     H_    0.949951 0.674031 0.635440 0.129625
H6    H     H_    0.052166 0.475803 0.731731 0.133890
H7    H     H_    0.393101 0.109597 0.381360 0.135951
H8    H     H_    0.647949 0.238666 0.625345 0.152076
H9    H     H_    0.762895 0.127113 0.732487 0.133210
H10   H     H_    0.640547 0.710773 0.077672 0.307499
H11   H     H_    0.763110 0.894586 0.731896 0.131052
H12   H     H_    0.648477 0.773498 0.623788 0.142410
H13   H     H_    0.393416 0.881492 0.380703 0.149590
H14   H     H_    0.384750 0.329150 0.247259 0.193595
H15   H     H_    0.291782 0.188542 0.125485 0.138811
H16   H     H_    0.291783 0.188596 0.877525 0.144791
H17   H     H_    0.384925 0.329204 0.754278 0.197982
H18   H     H_    0.594627 0.641720 0.872283 0.148497
N1    N     N_R   0.499210 0.498800 0.142780 -0.133705
N2    N     N_R   0.499180 0.498720 0.857170 -0.129156
O1    O     O_R   0.500000 0.316780 0.614690 -0.641345
O2    O     O_R   0.499990 0.316750 0.385360 -0.634277
O3    O     O_R   0.376780 0.500000 0.614650 -0.627128
O4    O     O_R   0.376770 0.499980 0.385310 -0.638367
O5    O     O_R   0.500010 0.683250 0.614640 -0.620782
O6    O     O_R   0.500000 0.683220 0.385310 -0.561694
O7    O     O_R   0.623230 0.500020 0.614690 -0.631548
O8    O     O_R   0.623220 0.500000 0.385350 -0.555797
O9    O     O_3   0.606311 0.659238 0.142490 -0.729235
Zn1   Zn    Zn3+2 0.500010 0.500020 0.653130 0.933435
Zn2   Zn    Zn3+2 0.499990 0.499980 0.346870 0.991016

loop_
_geom_bond_atom_site_label_1
_geom_bond_atom_site_label_2
_ccdc_geom_bond_type
C4    O3    A    
C25   C31   S    
C13   H14   S    
C4    C26   S    
C26   C32   T    
C6    C7    A    
O7    Zn1   S    
C1    C8    S    
N1    Zn2   S    
C9    C10   A    
C12   C25   S    
O4    Zn2   S    
C9    H7    S    
C34   H8    S    
C2    H9    S    
O1    Zn1   S    
C2    C34   A    
C20   O9    S    
C17   C18   A    
C1    O1    A    
C7    C8    A    
C29   C31   S    
C13   C14   A    
C27   C33   T    
C22   O7    A    
C24   C29   S    
C17   H17   S    
O5    Zn1   S    
C24   H2    S    
C5    H12   S    
N2    Zn1   S    
C19   N1    A    
C25   H1    S    
C23   H5    S    
C5    C6    A    
C23   C29   S    
C1    O2    A    
C12   C28   S    
O6    Zn2   S    
C2    C3    A    
C22   C27   S    
H10   O9    S    
C30   C31   S    
C7    C34   A    
C11   C16   S    
C22   O8    A    
C10   C11   A    
C28   H6    S    
O2    Zn2   S    
C14   H15   S    
C23   C30   S    
C29   C33   S    
C6    C11   A    
C24   C25   S    
C30   H4    S    
O3    Zn1   S    
C21   N2    A    
C18   C19   A    
C16   O6    A    
C15   H16   S    
C4    O4    A    
C10   H13   S    
C15   C17   A    
C18   N2    A    
C14   C15   A    
C8    C9    A    
C13   C19   A    
O8    Zn2   S    
C12   C30   S    
C20   C21   A    
C23   C28   S    
C3    H11   S    
C21   H18   S    
C12   C32   S    
C24   C28   S    
C31   H3    S    
C20   N1    A    
C3    C5    A    
C16   O5    A    
