data_mof_unit_pretest_2000.cif
_audit_creation_date              2012-12-11T18:25:58-0500
_audit_creation_method            fapswitch 2.2
_symmetry_space_group_name_H-M    P1
_symmetry_Int_Tables_number       1
_space_group_crystal_system       triclinic
_cell_length_a                    8.489143
_cell_length_b                    14.548041
_cell_length_c                    16.771521
_cell_angle_alpha                 107.13672
_cell_angle_beta                  81.945312
_cell_angle_gamma                 91.739345
_cell_volume                      1959.67594671

loop_
_atom_site_label
_atom_site_type_symbol
_atom_type_description
_atom_site_fract_x
_atom_site_fract_y
_atom_site_fract_z
_atom_type_partial_charge
Ba1   Ba    Ba6+2 0.356390 0.534880 0.456030 1.560412
Ba2   Ba    Ba6+2 0.833430 0.465200 0.543970 1.569144
C1    C     C_3   0.234989 0.787323 0.140002 -0.165931
C2    C     C_3   0.177326 0.737728 0.209670 0.417610
C3    C     C_3   0.124010 0.237785 0.260510 0.365120
C4    C     C_3   0.297537 0.207636 0.227734 -0.120163
C5    C     C_3   0.498829 0.308880 0.781159 0.341049
C6    C     C_3   0.502707 0.301056 0.869300 -0.382891
C7    C     C_3   0.991031 0.261753 0.740832 0.377484
C8    C     C_3   0.958982 0.173031 0.771592 -0.197347
C9    C     C_2   0.301855 0.513104 0.750524 -0.230229
C10   C     C_R   0.884154 0.476750 0.246057 -0.282605
C11   C     C_2   0.445190 0.617599 0.860325 -0.006203
C12   C     C_3   0.623373 0.672776 0.221530 0.348999
C13   C     C_2   0.438255 0.577407 0.775919 0.083562
C14   C     C_2   0.182193 0.497637 0.808276 0.011473
C15   C     C_3   0.218510 0.511694 0.896956 -0.057028
C16   C     C_3   0.314204 0.602639 0.926669 -0.017455
C17   C     C_2   0.082231 0.501316 0.963010 -0.093779
C18   C     C_2   0.112061 0.487001 0.035492 -0.095240
C19   C     C_R   0.854483 0.412895 0.076714 0.006788
C20   C     C_R   0.985944 0.469608 0.101133 -0.049037
C21   C     C_R   0.740849 0.385903 0.135360 -0.007409
C22   C     C_R   0.753058 0.420144 0.222903 0.083473
C23   C     C_3   0.646222 0.674381 0.130102 -0.403165
C24   C     C_R   0.003569 0.499011 0.187465 0.017142
C25   C     C_R   0.164929 0.949294 0.552174 -0.054538
C26   C     C_R   0.001589 0.800947 0.505764 0.048097
C27   C     C_R   0.877691 0.757849 0.459424 -0.209607
C28   C     C_R   0.774877 0.813920 0.433354 0.045567
C29   C     C_R   0.805788 0.909712 0.444744 -0.145402
C30   C     C_R   0.947177 0.949081 0.473669 0.024513
C31   C     C_R   0.037377 0.899735 0.513066 -0.058411
C32   C     C_R   0.127394 0.086094 0.497198 -0.013683
C33   C     C_R   0.207334 0.042625 0.546930 -0.006438
C34   C     C_3   0.659104 0.791473 0.672825 0.329386
C35   C     C_R   0.173837 0.180746 0.492920 0.026065
C36   C     C_R   0.293581 0.226830 0.539350 -0.253075
C37   C     C_R   0.382430 0.181467 0.581325 0.003825
C38   C     C_R   0.336738 0.089727 0.586126 -0.128252
C39   C     C_R   0.007526 0.031573 0.453835 0.071000
C40   C     C_3   0.695463 0.895547 0.723867 -0.166682
C41   C     C_3   0.663515 0.205485 0.328556 0.293794
C42   C     C_3   0.630491 0.096078 0.293527 -0.175628
C43   C     C_3   0.153711 0.714221 0.703792 0.312502
C44   C     C_3   0.172648 0.769860 0.795469 -0.260180
H1    H     H_    0.583049 0.938689 0.744505 0.104990
H2    H     H_    0.273154 0.689588 0.669369 0.025789
H3    H     H_    0.077659 0.650128 0.701403 0.053434
H4    H     H_    0.356191 0.816512 0.147757 0.099618
H5    H     H_    0.174888 0.848540 0.803575 0.133558
H6    H     H_    0.287911 0.751461 0.810718 0.102632
H7    H     H_    0.352320 0.215902 0.284694 0.127898
H8    H     H_    0.245088 0.732121 0.077696 0.125844
H9    H     H_    0.685689 0.602195 0.087864 0.084289
H10   H     H_    0.553165 0.378601 0.778390 0.076819
H11   H     H_    0.372588 0.307696 0.770161 -0.047612
H12   H     H_    0.451437 0.231576 0.874462 0.107942
H13   H     H_    0.932409 0.251065 0.683550 0.086655
H14   H     H_    0.904243 0.492555 0.309899 0.050803
H15   H     H_    0.726051 0.951612 0.423601 0.081983
H16   H     H_    0.404029 0.054342 0.619226 0.071319
H17   H     H_    0.723471 0.631701 0.230320 -0.013650
H18   H     H_    0.328967 0.296892 0.535462 0.045446
H19   H     H_    0.533594 0.692697 0.112252 0.137902
O1    O     O_2   0.449810 0.404330 0.292300 -0.475793
O2    O     O_3   0.085101 0.775912 0.667409 -0.653058
O3    O     O_3   0.615578 0.767267 0.276688 -0.623241
O4    O     O_2   0.739870 0.595710 0.707750 -0.453679
O5    O     O_3   0.524260 0.572010 0.600550 -0.532693
O6    O     O_3   0.006540 0.415640 0.663000 -0.478159
O7    O     O_3   0.563450 0.747451 0.725931 -0.647795
O8    O     O_3   0.149240 0.378950 0.461440 -0.497723
O9    O     O_3   0.608760 0.358670 0.621950 -0.501015
O10   O     O_2   0.716445 0.179139 0.567562 -0.481229
O11   O     O_3   0.585318 0.231538 0.722084 -0.594576
O12   O     O_3   0.665430 0.428070 0.399450 -0.516559
O13   O     O_3   0.040450 0.621130 0.538560 -0.505566
O14   O     O_2   0.903680 0.264350 0.468980 -0.460223
O15   O     O_3   0.068695 0.195672 0.324739 -0.657893
O16   O     O_2   0.852062 0.519525 0.808828 -0.483408
O17   O     O_3   0.927609 0.344324 0.803857 -0.604185
O18   O     O_3   0.183150 0.584440 0.337010 -0.495487
O19   O     O_2   0.322319 0.479906 0.192061 -0.500596
O20   O     O_3   0.610638 0.252842 0.275203 -0.652257
O21   O     O_3   0.267000 0.650290 0.186636 -0.613706
O22   O     O_2   0.286000 0.735700 0.531070 -0.474971
O23   O     O_3   0.580930 0.641410 0.378050 -0.499452
O24   O     O_2   0.444752 0.814672 0.427271 -0.487245
P1    P     P_3+3 0.619500 0.379780 0.307000 0.942568
P2    P     P_3+3 0.105540 0.727570 0.557610 0.946504
P3    P     P_3+3 0.601504 0.761607 0.380687 0.924060
P4    P     P_3+3 0.570190 0.620290 0.693000 0.940347
P5    P     P_3+3 0.569569 0.238499 0.621119 0.918843
P6    P     P_3+3 0.188336 0.556472 0.227238 0.907242
P7    P     P_3+3 0.087282 0.254722 0.432910 0.890818
P8    P     P_3+3 0.990683 0.445848 0.772819 0.947771
C45   C     C_3   0.215781 0.801789 0.295067 -0.280989
H20   H     H_    0.193103 0.763369 0.343478 0.134527
H21   H     H_    0.341328 0.824240 0.290354 0.152027
H22   H     H_    0.142074 0.867816 0.316524 0.049264
C46   C     C_3   0.771912 0.903023 0.802283 -0.401796
H23   H     H_    0.701312 0.864635 0.843066 0.140863
H24   H     H_    0.894585 0.874494 0.783984 0.160256
H25   H     H_    0.778211 0.979920 0.839037 0.106885
H26   H     H_    0.775999 0.929832 0.682851 0.067003
C47   C     C_3   0.571929 0.239880 0.415765 -0.270912
H27   H     H_    0.451317 0.260655 0.409550 0.035585
H28   H     H_    0.567375 0.181731 0.445716 0.046108
H29   H     H_    0.627796 0.301543 0.457170 0.172167
H30   H     H_    0.790775 0.217631 0.331560 0.099482
H31   H     H_    0.501889 0.085463 0.289241 0.102280
H32   H     H_    0.655633 0.056443 0.337698 0.069621
C48   C     C_3   0.725093 0.046379 0.208144 -0.419186
H33   H     H_    0.729000 0.090976 0.164484 0.141879
H34   H     H_    0.846858 0.029804 0.216621 0.128569
H35   H     H_    0.668591 0.976795 0.179523 0.124996
C49   C     C_3   0.041369 0.748459 0.859487 -0.450262
H36   H     H_    0.048756 0.799283 0.922864 0.127542
H37   H     H_    0.922695 0.755140 0.841881 0.141255
H38   H     H_    0.054745 0.674487 0.862931 0.131864
C50   C     C_3   0.997372 0.722675 0.214355 -0.328667
H39   H     H_    0.931204 0.791587 0.229339 0.109220
H40   H     H_    0.969484 0.674011 0.153629 0.087975
H41   H     H_    0.954749 0.693103 0.266555 0.040409
C51   C     C_3   0.130176 0.868926 0.135212 -0.507176
H42   H     H_    0.193962 0.905423 0.090800 0.136522
H43   H     H_    0.017974 0.840371 0.110760 0.137484
H44   H     H_    0.102488 0.922392 0.197691 0.135024
C52   C     C_3   0.023630 0.201121 0.187293 -0.352948
H45   H     H_    0.077267 0.223162 0.131384 0.069948
H46   H     H_    0.016958 0.121910 0.167571 0.121397
H47   H     H_    0.901491 0.231250 0.204515 0.095212
C53   C     C_3   0.103542 0.345523 0.289738 -0.259968
H48   H     H_    0.983682 0.363053 0.326212 0.063760
H49   H     H_    0.190902 0.382771 0.328704 0.180809
H50   H     H_    0.122458 0.370129 0.233513 0.054460
C54   C     C_3   0.325724 0.103624 0.171786 -0.458284
H51   H     H_    0.454850 0.089617 0.153503 0.140038
H52   H     H_    0.275318 0.052883 0.206252 0.137938
H53   H     H_    0.275529 0.090553 0.111882 0.120006
H54   H     H_    0.353574 0.255306 0.191758 0.109002
H55   H     H_    0.627275 0.305374 0.883168 0.146450
H56   H     H_    0.432317 0.360870 0.916417 0.077540
H57   H     H_    0.121566 0.267551 0.723788 -0.060677
H58   H     H_    0.996341 0.107530 0.718765 0.070207
H59   H     H_    0.829438 0.167881 0.791716 0.141661
H60   H     H_    0.514154 0.633139 0.233666 0.136362
C55   C     C_3   0.049778 0.176175 0.844751 -0.419721
H61   H     H_    0.012963 0.240189 0.899155 0.158151
H62   H     H_    0.024007 0.110503 0.864963 0.115490
H63   H     H_    0.179828 0.178725 0.824840 0.121699
C56   C     C_3   0.569028 0.688308 0.895909 -0.344697
H64   H     H_    0.664751 0.699355 0.848456 0.152076
H65   H     H_    0.511133 0.759053 0.930034 0.085484
H66   H     H_    0.625305 0.662104 0.941156 0.115623
C57   C     C_3   0.619233 0.314063 0.100553 -0.386868
H67   H     H_    0.637420 0.291482 0.030574 0.100206
H68   H     H_    0.629003 0.248595 0.120600 0.123630
H69   H     H_    0.498960 0.345742 0.121432 0.164457
C58   C     C_3   0.298726 0.461369 0.659916 -0.268867
H70   H     H_    0.264729 0.387371 0.657855 0.051163
H71   H     H_    0.225610 0.500722 0.630509 0.133521
H72   H     H_    0.409858 0.446446 0.620219 0.158366
H73   H     H_    0.959921 0.506296 0.952596 0.108249
H74   H     H_    0.235135 0.487455 0.046419 0.119567
C59   C     C_3   0.856408 0.652074 0.431476 -0.270385
H75   H     H_    0.959263 0.608015 0.422273 0.160319
H76   H     H_    0.759894 0.628059 0.472289 0.136736
H77   H     H_    0.840961 0.634713 0.365450 0.057066
H78   H     H_    0.232858 0.916031 0.586343 0.093218
C60   C     C_3   0.980631 0.038391 0.369460 -0.363920
H79   H     H_    0.931577 0.972522 0.328737 0.076582
H80   H     H_    0.893015 0.095780 0.378794 0.165358
H81   H     H_    0.097917 0.044762 0.333392 0.125715
H82   H     H_    0.736414 0.728131 0.120111 0.114368
H83   H     H_    0.771825 0.750961 0.644191 0.038632
C61   C     C_3   0.562495 0.800310 0.605956 -0.319947
H84   H     H_    0.559635 0.730119 0.557405 0.141312
H85   H     H_    0.440386 0.825126 0.636418 0.128010
H86   H     H_    0.611417 0.855739 0.576719 0.036749

loop_
_geom_bond_atom_site_label_1
_geom_bond_atom_site_label_2
_ccdc_geom_bond_type
Ba1   O22   S    
C57   H67   S    
C2    C45   S    
C32   C35   A    
Ba1   O12   S    
C29   H15   S    
C34   C40   S    
C17   C18   D    
C61   H86   S    
C53   H50   S    
C61   H84   S    
C1    C51   S    
C5    C6    S    
O1    P1    D    
C43   C44   S    
C25   C31   A    
O6    P8    S    
C4    H54   S    
C51   H42   S    
C11   C16   S    
C26   C27   A    
C32   C33   A    
O22   P2    D    
C55   H62   S    
C8    C55   S    
C3    C4    S    
C1    H8    S    
C14   P8    S    
C2    O21   S    
C12   H60   S    
C9    C58   S    
C38   H16   S    
C44   C49   S    
C46   H25   S    
Ba1   Ba2   S    
C7    H57   S    
O9    P5    S    
C49   H36   S    
O24   P3    D    
Ba2   O14   S    
C6    H12   S    
C9    C13   S    
O23   P3    S    
C14   C15   S    
C43   O2    S    
C21   C22   A    
O15   P7    S    
Ba2   O4    S    
C7    C8    S    
Ba2   O9    S    
C60   H81   S    
C8    H59   S    
O11   P5    S    
Ba1   O23   S    
C42   C48   S    
C57   H68   S    
C19   C20   A    
Ba1   O13   S    
C47   H28   S    
C32   C39   A    
C41   H30   S    
C5    H10   S    
C40   C46   S    
C58   H71   S    
C1    H4    S    
C60   H80   S    
C48   H33   S    
C59   H77   S    
C36   H18   S    
C3    C53   S    
C39   C60   S    
O12   P1    S    
C41   O20   S    
O5    P4    S    
C23   H19   S    
C59   H76   S    
C54   H51   S    
C55   H63   S    
C59   H75   S    
O3    P3    S    
C53   H49   S    
C51   H44   S    
C25   C33   A    
C44   H5    S    
C34   C61   S    
C35   P7    S    
C10   C24   A    
C7    H13   S    
O19   P6    D    
Ba1   O1    S    
C4    C54   S    
C52   H46   S    
C41   C42   S    
C37   P5    S    
C13   P4    S    
C35   C36   A    
Ba2   O13   S    
C9    C14   D    
C61   H85   S    
C29   C30   A    
C43   H3    S    
C28   C29   A    
C30   C39   A    
O18   P6    S    
O2    P2    S    
C15   C16   S    
C2    C50   S    
C6    H56   S    
C41   C47   S    
C3    O15   S    
C46   H24   S    
C40   H26   S    
C11   C56   S    
C5    O11   S    
Ba2   O8    S    
C54   H52   S    
C8    H58   S    
O7    P4    S    
C42   H31   S    
C28   P3    S    
C3    C52   S    
C18   C20   S    
C26   C31   A    
C57   H69   S    
C45   H21   S    
C11   C13   D    
C26   P2    S    
O17   P8    S    
C52   H47   S    
C56   H65   S    
C47   H27   S    
C50   H40   S    
C1    C2    S    
Ba1   P1    S    
C25   H78   S    
C37   C38   A    
C58   H72   S    
C60   H79   S    
C43   H2    S    
C24   P6    S    
C51   H43   S    
Ba2   P4    S    
C34   H83   S    
C23   H9    S    
C54   H53   S    
C22   P1    S    
C42   H32   S    
C48   H34   S    
O20   P1    S    
C53   H48   S    
O13   P2    S    
Ba1   O18   S    
C45   H22   S    
C18   H74   S    
C10   C22   A    
O4    P4    D    
Ba1   O5    S    
C47   H29   S    
Ba1   O8    S    
C7    O17   S    
C27   C59   S    
C50   H41   S    
C19   C21   A    
C52   H45   S    
C56   H64   S    
O14   P7    D    
Ba2   O12   S    
C58   H70   S    
C55   H61   S    
C30   C31   A    
C44   H6    S    
C23   H82   S    
C36   C37   A    
O16   P8    D    
C12   H17   S    
C21   C57   S    
C56   H66   S    
C15   C17   S    
C33   C38   A    
C6    H55   S    
C40   H1    S    
C12   C23   S    
C46   H23   S    
C49   H37   S    
C48   H35   S    
O21   P6    S    
C27   C28   A    
C10   H14   S    
C34   O7    S    
C49   H38   S    
C17   H73   S    
Ba1   P2    S    
C45   H20   S    
C20   C24   A    
C12   O3    S    
C4    H7    S    
O8    P7    S    
C50   H39   S    
Ba2   O5    S    
C5    H11   S    
Ba2   O6    S    
O10   P5    D    
