data_mof_unit_pretest_1914.cif
_audit_creation_date              2012-12-10T20:11:57-0500
_audit_creation_method            fapswitch 2.2
_symmetry_space_group_name_H-M    P1
_symmetry_Int_Tables_number       1
_space_group_crystal_system       triclinic
_cell_length_a                    13.636458
_cell_length_b                    18.465154
_cell_length_c                    19.316845
_cell_angle_alpha                 89.947464
_cell_angle_beta                  90.206208
_cell_angle_gamma                 83.154698
_cell_volume                      4829.25986769

loop_
_atom_site_label
_atom_site_type_symbol
_atom_type_description
_atom_site_fract_x
_atom_site_fract_y
_atom_site_fract_z
_atom_type_partial_charge
C1    C     C_R   0.500202 0.499905 0.634394 0.914461
C2    C     C_R   0.499798 0.500095 0.365605 0.914461
C3    C     C_R   0.498695 0.434786 0.254006 -0.146156
C4    C     C_R   0.501298 0.565215 0.745994 -0.146156
C5    C     C_R   0.499247 0.500403 0.290396 -0.140722
C6    C     C_R   0.500751 0.499597 0.709604 -0.140722
C7    C     C_R   0.575710 0.459091 0.037092 -0.355780
C8    C     C_R   0.424283 0.540909 0.962908 -0.355781
C9    C     C_R   0.577397 0.458371 0.965378 0.753036
C10   C     C_R   0.422597 0.541629 0.034622 0.753035
C11   C     C_R   0.501358 0.499188 0.928315 -0.105224
C12   C     C_R   0.498636 0.500812 0.071685 -0.105224
C13   C     C_R   0.441134 0.279395 0.454383 0.668056
C14   C     C_R   0.558866 0.720605 0.545616 0.668056
C15   C     C_R   0.439629 0.203492 0.453276 0.476994
C16   C     C_R   0.560371 0.796508 0.546724 0.476995
C17   C     C_R   0.499504 0.158578 0.499583 -0.109005
C18   C     C_R   0.500496 0.841422 0.500417 -0.109005
C19   C     C_R   0.558940 0.192471 0.546356 -0.334251
C20   C     C_R   0.441060 0.807529 0.453644 -0.334251
C21   C     C_R   0.558242 0.268576 0.545612 -0.114008
C22   C     C_R   0.441757 0.731424 0.454389 -0.114009
C23   C     C_R   0.685927 0.487073 0.500031 0.905599
C24   C     C_R   0.314073 0.512927 0.499969 0.905599
C25   C     C_R   0.497927 0.038449 0.562354 -0.195380
C26   C     C_R   0.502073 0.961551 0.437646 -0.195380
C27   C     C_R   0.497742 0.962398 0.562635 -0.081906
C28   C     C_R   0.502258 0.037602 0.437365 -0.081906
C29   C     C_R   0.500176 0.922743 0.500284 0.183513
C30   C     C_R   0.499824 0.077257 0.499716 0.183513
C31   C     C_1   0.210412 0.522758 0.499915 -0.139524
C32   C     C_1   0.789588 0.477242 0.500085 -0.139524
C33   C     C_2   0.018935 0.531430 0.499863 -0.139047
C34   C     C_2   0.981065 0.468570 0.500137 -0.139047
C35   C     C_1   0.877286 0.470771 0.500122 0.035638
C36   C     C_1   0.122713 0.529229 0.499878 0.035638
C37   C     C_R   0.499432 0.566422 0.254429 -0.289889
C38   C     C_R   0.500569 0.433578 0.745570 -0.289888
C39   C     C_R   0.499023 0.566873 0.182700 0.736997
C40   C     C_R   0.500976 0.433127 0.817299 0.736998
C41   C     C_R   0.498113 0.501196 0.146670 0.045483
C42   C     C_R   0.501881 0.498804 0.853330 0.045481
C43   C     C_R   0.498336 0.435236 0.182299 -0.235044
C44   C     C_R   0.501656 0.564764 0.817701 -0.235045
H1    H     H_    0.027173 0.416290 0.500364 0.177627
H2    H     H_    0.972827 0.583710 0.499636 0.177627
H3    H     H_    0.606581 0.160282 0.582708 0.200172
H4    H     H_    0.393418 0.839718 0.417292 0.200172
H5    H     H_    0.604483 0.294184 0.581501 0.182618
H6    H     H_    0.395516 0.705816 0.418499 0.182619
H7    H     H_    0.494939 0.067145 0.611302 0.160847
H8    H     H_    0.505060 0.932854 0.388698 0.160847
H9    H     H_    0.494121 0.934723 0.611823 0.185212
H10   H     H_    0.505879 0.065277 0.388177 0.185212
H11   H     H_    0.500351 0.617609 0.281639 0.192053
H12   H     H_    0.499653 0.382390 0.718360 0.192053
H13   H     H_    0.497693 0.384344 0.154502 0.190217
H14   H     H_    0.502295 0.615657 0.845499 0.190217
H15   H     H_    0.498558 0.383237 0.280792 0.207294
H16   H     H_    0.501432 0.616764 0.719208 0.207291
H17   H     H_    0.634845 0.427886 0.065762 0.205648
H18   H     H_    0.365149 0.572114 0.934238 0.205647
N1    N     N_R   0.499990 0.310560 0.500020 -0.176160
N2    N     N_R   0.500010 0.689440 0.499980 -0.176160
O1    O     O_R   0.500000 0.439160 0.601820 -0.635059
O2    O     O_R   0.500000 0.560840 0.398180 -0.635058
O3    O     O_R   0.500040 0.560790 0.601820 -0.576822
O4    O     O_R   0.499960 0.439210 0.398180 -0.576823
O5    O     O_R   0.640320 0.430440 0.499980 -0.625262
O6    O     O_R   0.359680 0.569560 0.500020 -0.625262
O7    O     O_R   0.640370 0.552060 0.499990 -0.560175
O8    O     O_R   0.359630 0.447940 0.500010 -0.560176
Zn1   Zn    Zn3+2 0.499970 0.418790 0.500000 1.012099
Zn2   Zn    Zn3+2 0.500030 0.581210 0.500000 1.012099
F1    F     F_    0.501588 0.630892 0.148480 -0.624289
F2    F     F_    0.498413 0.369108 0.851519 -0.624288
F3    F     F_    0.653729 0.419207 0.932181 -0.610935
F4    F     F_    0.346265 0.580793 0.067819 -0.610936
F5    F     F_    0.382796 0.322070 0.409895 -0.613701
F6    F     F_    0.617204 0.677930 0.590105 -0.613699
F7    F     F_    0.377681 0.174627 0.408691 -0.625220
F8    F     F_    0.622319 0.825373 0.591308 -0.625220

loop_
_geom_bond_atom_site_label_1
_geom_bond_atom_site_label_2
_ccdc_geom_bond_type
C13   F5    S    
C33   H2    S    
C5    C37   A    
C27   C29   A    
C23   O5    A    
C21   H5    S    
C10   F4    S    
C24   O6    A    
C39   C41   A    
C3    C43   A    
C19   C21   A    
C2    O4    A    
C19   H3    S    
O2    Zn2   S    
C33   C36   S    
O1    Zn1   S    
C11   C42   S    
C15   C17   A    
C34   C35   S    
C7    H17   S    
C1    O3    A    
C44   H14   S    
O6    Zn2   S    
C1    O1    A    
C6    C38   A    
O5    Zn1   S    
C39   F1    S    
C22   H6    S    
C40   C42   A    
C17   C30   S    
C41   C43   A    
C42   C44   A    
C7    C12   A    
C15   F7    S    
C1    C6    S    
C32   C35   T    
C23   O7    A    
C4    C6    A    
O3    Zn2   S    
C28   H10   S    
C4    C44   A    
C3    C5    A    
O4    Zn1   S    
C22   N2    A    
C40   F2    S    
C25   H7    S    
C12   C41   S    
C26   H8    S    
C13   N1    A    
C14   N2    A    
C4    H16   S    
C16   F8    S    
C33   C34   D    
C34   H1    S    
C9    F3    S    
C9    C11   A    
C20   H4    S    
C10   C12   A    
C16   C18   A    
C20   C22   A    
C14   F6    S    
C13   C15   A    
C14   C16   A    
C2    C5    S    
C24   O8    A    
C25   C30   A    
C7    C9    A    
O8    Zn1   S    
C2    O2    A    
O7    Zn2   S    
C27   H9    S    
C25   C27   A    
N1    Zn1   S    
C26   C28   A    
C23   C32   S    
C28   C30   A    
C24   C31   S    
C37   C39   A    
C38   C40   A    
C8    C11   A    
C17   C19   A    
C18   C20   A    
C21   N1    A    
C43   H13   S    
C18   C29   S    
C37   H11   S    
C38   H12   S    
C26   C29   A    
C8    C10   A    
N2    Zn2   S    
C31   C36   T    
C8    H18   S    
C3    H15   S    
