data_mof_unit_pretest_964.cif
_audit_creation_date              2012-12-10T17:18:15-0500
_audit_creation_method            fapswitch 2.2
_symmetry_space_group_name_H-M    P1
_symmetry_Int_Tables_number       1
_space_group_crystal_system       triclinic
_cell_length_a                    10.285311
_cell_length_b                    10.808602
_cell_length_c                    15.004281
_cell_angle_alpha                 91.095621
_cell_angle_beta                  80.385132
_cell_angle_gamma                 95.417823
_cell_volume                      1637.23571253

loop_
_atom_site_label
_atom_site_type_symbol
_atom_type_description
_atom_site_fract_x
_atom_site_fract_y
_atom_site_fract_z
_atom_type_partial_charge
C1    C     C_R   0.555651 0.732261 0.496545 0.934940
C2    C     C_2   0.070049 0.483027 0.499155 0.245811
C3    C     C_R   0.499690 0.501024 0.673093 0.871650
C4    C     C_R   0.500311 0.498983 0.326908 0.878078
C5    C     C_R   0.620314 0.503611 0.171429 -0.252100
C6    C     C_R   0.379684 0.496417 0.828561 -0.251850
C7    C     C_R   0.500318 0.497248 0.230904 -0.061488
C8    C     C_R   0.499681 0.502770 0.769090 -0.058883
C9    C     C_R   0.379652 0.490403 0.199014 -0.260617
C10   C     C_R   0.620346 0.509629 0.800978 -0.261151
C11   C     C_R   0.377294 0.491409 0.106722 0.077000
C12   C     C_R   0.444296 0.267850 0.508297 0.932713
C13   C     C_R   0.622704 0.508631 0.893269 0.076739
C14   C     C_R   0.499476 0.499037 0.046473 0.035339
C15   C     C_R   0.500521 0.500998 0.953518 0.035256
C16   C     C_R   0.620852 0.504819 0.079244 0.081392
C17   C     C_R   0.379144 0.495219 0.920746 0.081033
C18   C     C_R   0.256350 0.485476 0.072985 0.091685
C19   C     C_R   0.743648 0.514584 0.927005 0.091772
C20   C     C_3   0.162534 0.678711 0.654320 -0.129983
C21   C     C_3   0.836644 0.320140 0.346358 -0.120503
C22   C     C_R   0.258688 0.487565 0.980188 -0.207906
C23   C     C_R   0.741310 0.512491 0.019801 -0.208007
C24   C     C_2   0.586804 0.864567 0.502416 -0.378703
C25   C     C_2   0.412979 0.136006 0.520738 -0.377616
C26   C     C_2   0.487478 0.934637 0.528862 -0.152871
C27   C     C_2   0.511866 0.066837 0.526235 -0.145208
C28   C     C_2   0.929977 0.517067 0.500761 0.245441
H1    H     H_    0.713496 0.509177 0.196775 0.152456
H2    H     H_    0.688637 0.904725 0.484323 0.156996
H3    H     H_    0.125783 0.555259 0.173407 0.184991
H4    H     H_    0.120481 0.397275 0.170339 0.179731
H5    H     H_    0.874235 0.444839 0.826578 0.184520
H6    H     H_    0.879490 0.602820 0.829655 0.179812
H7    H     H_    0.119605 0.307411 0.509382 0.201440
H8    H     H_    0.190145 0.381314 0.409864 0.209699
H9    H     H_    0.880502 0.692658 0.490263 0.201814
H10   H     H_    0.809946 0.619017 0.589890 0.209678
H11   H     H_    0.269107 0.710184 0.648750 0.181269
H12   H     H_    0.286503 0.490855 0.803213 0.152557
H13   H     H_    0.136979 0.592622 0.695740 0.128690
H14   H     H_    0.106804 0.752431 0.690987 0.131284
H15   H     H_    0.860982 0.406076 0.304676 0.126560
H16   H     H_    0.730255 0.287606 0.352392 0.187003
H17   H     H_    0.892970 0.246823 0.309655 0.130461
H18   H     H_    0.287912 0.484257 0.246653 0.157166
H19   H     H_    0.712086 0.515779 0.753338 0.157272
H20   H     H_    0.165802 0.483057 0.954507 0.164398
H21   H     H_    0.834197 0.517016 0.045482 0.164434
H22   H     H_    0.613765 0.106827 0.522664 0.206475
H23   H     H_    0.385322 0.895126 0.546809 0.199026
H24   H     H_    0.311410 0.095410 0.524173 0.157283
N1    N     N_2   0.842700 0.448880 0.462930 0.049264
N2    N     N_2   0.157300 0.551120 0.537070 0.050889
N3    N     N_3   0.129990 0.477403 0.130954 -0.477634
N4    N     N_3   0.870007 0.522690 0.869034 -0.477745
N5    N     N_3   0.105623 0.367213 0.458720 -0.419506
N6    N     N_3   0.894474 0.633001 0.541017 -0.418699
O1    O     O_R   0.431060 0.692470 0.507460 -0.589946
O2    O     O_3   0.873983 0.335801 0.432098 -0.539474
O3    O     O_R   0.568940 0.307530 0.492540 -0.594559
O4    O     O_R   0.651120 0.659650 0.483670 -0.650870
O5    O     O_R   0.348880 0.340350 0.516330 -0.650679
O6    O     O_R   0.389960 0.516440 0.644050 -0.644767
O7    O     O_R   0.610040 0.483560 0.355950 -0.642797
O8    O     O_R   0.610030 0.483620 0.620260 -0.638007
O9    O     O_R   0.389970 0.516380 0.379740 -0.635011
O10   O     O_3   0.125841 0.663956 0.568344 -0.536603
Zn1   Zn    Zn3+2 0.353060 0.521920 0.515880 0.950893
Zn2   Zn    Zn3+2 0.646940 0.478080 0.484120 0.948275

loop_
_geom_bond_atom_site_label_1
_geom_bond_atom_site_label_2
_ccdc_geom_bond_type
C19   N4    S    
O3    Zn2   S    
C4    O9    A    
C19   C23   A    
C28   N1    D    
C11   C18   A    
H6    N4    S    
C12   O3    A    
C28   N6    S    
C6    C17   A    
C25   C27   D    
C21   H16   S    
C5    C7    A    
H4    N3    S    
C22   H20   S    
C17   C22   A    
C27   H22   S    
C12   C25   S    
H7    N5    S    
C1    O4    A    
H5    N4    S    
C13   C15   A    
C20   H13   S    
C25   H24   S    
C9    H18   S    
H10   N6    S    
C3    O6    A    
C20   H14   S    
C9    C11   A    
C26   C27   S    
O8    Zn2   S    
N2    Zn1   S    
C18   N3    S    
O1    Zn1   S    
C4    C7    S    
C6    C8    A    
N1    Zn2   S    
C8    C10   A    
N1    O2    S    
C24   C26   D    
H8    N5    S    
C16   C23   A    
C24   H2    S    
C1    O1    A    
O5    Zn1   S    
C4    O7    A    
C11   C14   A    
C14   C16   A    
C23   H21   S    
C26   H23   S    
N2    O10   S    
C13   C19   A    
C2    N5    S    
O7    Zn2   S    
C3    O8    A    
C5    H1    S    
C7    C9    A    
C6    H12   S    
O4    Zn2   S    
C1    C24   S    
C15   C17   A    
C3    C8    S    
C2    N2    D    
C21   O2    S    
O9    Zn1   S    
C10   H19   S    
C20   H11   S    
C12   O5    A    
C14   C15   A    
C5    C16   A    
C2    C28   S    
O6    Zn1   S    
H3    N3    S    
C18   C22   A    
C20   O10   S    
C21   H15   S    
H9    N6    S    
C21   H17   S    
C10   C13   A    
