data_mof_unit_pretest_827.cif
_audit_creation_date              2012-10-26T19:59:39-0400
_audit_creation_method            fapswitch 2.2
_symmetry_space_group_name_H-M    P1
_symmetry_Int_Tables_number       1
_space_group_crystal_system       triclinic
_cell_length_a                    10.840005
_cell_length_b                    8.734485
_cell_length_c                    7.522657
_cell_angle_alpha                 103.271055
_cell_angle_beta                  95.545695
_cell_angle_gamma                 95.169554
_cell_volume                      685.342670612

loop_
_atom_site_label
_atom_site_type_symbol
_atom_type_description
_atom_site_fract_x
_atom_site_fract_y
_atom_site_fract_z
_atom_type_partial_charge
C1    C     C_R   0.499318 0.200179 0.453666 0.524387
C2    C     C_R   0.514533 0.800753 0.547043 0.559541
C3    C     C_R   0.738322 0.505527 0.502589 0.526120
C4    C     C_R   0.167983 0.739127 0.782149 -0.096633
C5    C     C_R   0.124492 0.829115 0.935484 -0.123870
C6    C     C_R   0.998998 0.810399 0.955549 -0.122497
C7    C     C_R   0.915969 0.705423 0.819552 -0.105435
C8    C     C_R   0.956691 0.612131 0.659552 -0.005561
C9    C     C_3   0.632758 0.068485 0.737024 -0.248955
C10   C     C_3   0.733900 0.979616 0.807317 -0.435996
C11   C     C_3   0.348754 0.368315 0.937013 -0.046579
C12   C     C_R   0.086534 0.623440 0.648361 0.010108
C13   C     C_3   0.311056 0.215171 0.993259 -0.409914
C14   C     C_R   0.131808 0.520238 0.502638 -0.052321
C15   C     C_R   0.050572 0.418946 0.360995 -0.094624
C16   C     C_R   0.923227 0.409876 0.364390 0.211649
C17   C     C_R   0.874060 0.509104 0.510471 -0.012033
C18   C     C_2   0.496796 0.032030 0.432968 -0.151476
C19   C     C_2   0.544007 0.970172 0.570272 -0.038004
C20   C     C_R   0.263751 0.506952 0.501007 0.529252
Cu1   Cu    Cu3+1 0.513920 0.517380 0.684380 0.902495
Cu2   Cu    Cu3+1 0.486080 0.482620 0.315620 0.934825
H1    H     H_    0.086567 0.339126 0.250423 0.141488
H2    H     H_    0.774841 0.909553 0.689512 0.146002
H3    H     H_    0.809344 0.065188 0.896844 0.181860
H4    H     H_    0.685410 0.168779 0.698600 0.186257
H5    H     H_    0.578628 0.116454 0.850981 0.175248
H6    H     H_    0.388164 0.139472 0.984779 0.150936
H7    H     H_    0.279678 0.236021 0.131019 0.180730
H8    H     H_    0.230436 0.147690 0.895594 0.088867
H9    H     H_    0.272145 0.444910 0.953939 0.144755
H10   H     H_    0.356688 0.322747 0.792916 0.195250
H11   H     H_    0.609376 0.611030 0.048003 0.226593
H12   H     H_    0.265730 0.763545 0.769431 0.151661
H13   H     H_    0.188418 0.913416 0.039230 0.106453
H14   H     H_    0.965080 0.879851 0.075718 0.120323
H15   H     H_    0.821181 0.701627 0.847467 0.146348
H16   H     H_    0.444928 0.957545 0.307231 0.111615
H17   H     H_    0.778683 0.253056 0.278561 0.333721
H18   H     H_    0.695355 0.902666 0.891940 0.163106
N1    N     N_2   0.465100 0.456430 0.038520 -0.139676
N2    N     N_2   0.534900 0.543570 0.961480 -0.245640
O1    O     O_R   0.509050 0.286130 0.619770 -0.522594
O2    O     O_R   0.485540 0.256780 0.308360 -0.509803
O3    O     O_R   0.331410 0.514680 0.655740 -0.538605
O4    O     O_R   0.307900 0.485330 0.344330 -0.513513
O5    O     O_R   0.514460 0.743220 0.691640 -0.509505
O6    O     O_R   0.490950 0.713870 0.380230 -0.509889
O7    O     O_R   0.692100 0.514670 0.655670 -0.524019
O8    O     O_R   0.668590 0.485320 0.344260 -0.480644
O9    O     O_3   0.850509 0.296811 0.226347 -0.711807

loop_
_geom_bond_atom_site_label_1
_geom_bond_atom_site_label_2
_ccdc_geom_bond_type
C9    H4    S    
Cu2   O6    S    
C13   H6    S    
C11   N1    S    
C6    C7    A    
C2    O5    A    
C4    C12   A    
N1    N2    D    
C1    O2    A    
H17   O9    S    
C8    C17   A    
C16   O9    S    
Cu2   O8    S    
C8    C12   A    
C2    O6    A    
C15   H1    S    
C3    O7    A    
C11   H9    S    
C7    C8    A    
Cu1   Cu2   S    
C11   C13   S    
C1    C18   S    
H11   N2    S    
C5    H13   S    
C10   H3    S    
Cu1   O7    S    
Cu2   O4    S    
C3    O8    A    
C12   C14   A    
C11   H10   S    
C3    C17   S    
Cu1   O3    S    
C18   H16   S    
C5    C6    A    
C4    H12   S    
Cu2   N1    S    
C15   C16   A    
C14   C20   S    
C13   H8    S    
C9    H5    S    
C10   H18   S    
C18   C19   D    
C9    C10   S    
C13   H7    S    
Cu1   O5    S    
C14   C15   A    
C16   C17   A    
Cu1   N2    S    
C10   H2    S    
C2    C19   S    
Cu1   O1    S    
C1    O1    A    
Cu2   O2    S    
C20   O3    A    
C9    C19   S    
C6    H14   S    
C4    C5    A    
C7    H15   S    
C20   O4    A    
