data_mof_unit_pretest_102.cif
_audit_creation_date              2012-12-10T18:18:27-0500
_audit_creation_method            fapswitch 2.2
_symmetry_space_group_name_H-M    P1
_symmetry_Int_Tables_number       1
_space_group_crystal_system       triclinic
_cell_length_a                    14.158774
_cell_length_b                    14.932838
_cell_length_c                    15.530842
_cell_angle_alpha                 88.964851
_cell_angle_beta                  66.651189
_cell_angle_gamma                 92.400954
_cell_volume                      3009.99288292

loop_
_atom_site_label
_atom_site_type_symbol
_atom_type_description
_atom_site_fract_x
_atom_site_fract_y
_atom_site_fract_z
_atom_type_partial_charge
C1    C     C_R   0.502405 0.673120 0.498177 0.892013
C2    C     C_R   0.507221 0.768900 0.494189 -0.065583
C3    C     C_R   0.450127 0.185128 0.449860 -0.271108
C4    C     C_R   0.558822 0.815444 0.540620 -0.296567
C5    C     C_R   0.451068 0.091963 0.447178 0.094494
C6    C     C_R   0.558391 0.908596 0.542729 0.096832
C7    C     C_R   0.502605 0.046716 0.495911 0.024562
C8    C     C_R   0.506162 0.953724 0.494574 0.024883
C9    C     C_R   0.550521 0.094711 0.546358 0.106511
C10   C     C_R   0.456628 0.905534 0.445580 0.103436
C11   C     C_R   0.402277 0.042877 0.397524 0.098786
C12   C     C_R   0.498339 0.326893 0.500561 0.889113
C13   C     C_R   0.607360 0.957678 0.592227 0.100833
C14   C     C_R   0.405739 0.949644 0.397762 -0.261329
C15   C     C_R   0.602274 0.050726 0.593427 -0.260673
C16   C     C_R   0.435159 0.500456 0.676192 0.863579
C17   C     C_R   0.564790 0.499096 0.323768 0.855201
C18   C     C_R   0.173231 0.437841 0.556950 0.161230
C19   C     C_R   0.826458 0.565314 0.448942 0.159495
C20   C     C_R   0.230356 0.555911 0.439376 -0.093632
C21   C     C_R   0.773124 0.434546 0.549942 -0.096208
C22   C     C_R   0.132481 0.553597 0.434895 0.012690
C23   C     C_R   0.395056 0.422277 0.095266 -0.329957
C24   C     C_R   0.872487 0.432720 0.551261 0.013181
C25   C     C_R   0.052754 0.493341 0.494126 0.065837
C26   C     C_R   0.952449 0.492918 0.492734 0.070972
C27   C     C_R   0.072287 0.435044 0.556198 0.015551
C28   C     C_R   0.931031 0.555748 0.436033 -0.002431
C29   C     C_R   0.112634 0.610619 0.372359 -0.222324
C30   C     C_R   0.892881 0.373427 0.611458 -0.234531
C31   C     C_R   0.013753 0.611617 0.372606 -0.228294
C32   C     C_R   0.989841 0.376029 0.615817 -0.240494
C33   C     C_R   0.393955 0.493965 0.778403 -0.057389
C34   C     C_R   0.623476 0.519864 0.892812 -0.320997
C35   C     C_R   0.606010 0.496123 0.221559 -0.057048
C36   C     C_R   0.270053 0.432115 0.926447 -0.157413
C37   C     C_R   0.740877 0.525675 0.067887 -0.149604
C38   C     C_R   0.296444 0.454490 0.831939 -0.229666
C39   C     C_R   0.709282 0.518383 0.165031 -0.232793
C40   C     C_R   0.461730 0.515693 0.820576 -0.220907
C41   C     C_R   0.536916 0.474867 0.180504 -0.227999
C42   C     C_R   0.442423 0.484606 0.911684 0.051652
C43   C     C_R   0.566524 0.480432 0.083418 0.049937
C44   C     C_R   0.343193 0.444331 0.966419 0.047873
C45   C     C_R   0.319396 0.415034 0.059088 0.500455
C46   C     C_R   0.669395 0.510312 0.026579 0.054568
C47   C     C_R   0.519838 0.490822 0.948456 0.000525
C48   C     C_R   0.493569 0.464135 0.043186 -0.004909
C49   C     C_3   0.168087 0.427711 0.185442 -0.318925
C50   C     C_3   0.845886 0.503524 0.800690 -0.313557
C51   C     C_3   0.194752 0.370192 0.620084 -0.390885
C52   C     C_3   0.201012 0.274781 0.582869 -0.356220
C53   C     C_3   0.224593 0.207894 0.646230 -0.863085
C54   C     C_3   0.800083 0.658873 0.428406 -0.366537
C55   C     C_3   0.792333 0.669951 0.332995 -0.325471
C56   C     C_R   0.698662 0.526398 0.930211 0.494805
C57   C     C_3   0.796283 0.768752 0.304065 -0.908758
C58   C     C_3   0.344161 0.086789 0.345748 -0.424066
C59   C     C_3   0.418254 0.127958 0.250260 -0.359431
C60   C     C_3   0.360467 0.180216 0.202895 -0.834584
C61   C     C_3   0.665259 0.913735 0.644200 -0.423489
C62   C     C_3   0.590786 0.871928 0.739263 -0.349795
C63   C     C_3   0.647760 0.817305 0.785639 -0.855173
C64   C     C_R   0.546393 0.186803 0.548995 -0.244928
C65   C     C_R   0.457270 0.813095 0.446101 -0.237205
C66   C     C_R   0.496540 0.231184 0.500927 -0.067236
H1    H     H_    0.291446 0.602165 0.393855 0.140900
H2    H     H_    0.242588 0.437887 0.800183 0.147775
H3    H     H_    0.194210 0.401193 0.966697 0.183322
H4    H     H_    0.820498 0.546265 0.025681 0.183548
H5    H     H_    0.375404 0.390790 0.163556 0.160222
H6    H     H_    0.649589 0.537174 0.819327 0.156995
H7    H     H_    0.582381 0.224336 0.588202 0.144649
H8    H     H_    0.418626 0.775223 0.409335 0.145001
H9    H     H_    0.415875 0.223315 0.411069 0.154300
H10   H     H_    0.595856 0.777605 0.577222 0.158549
H11   H     H_    0.368409 0.911037 0.360444 0.142284
H12   H     H_    0.712826 0.385955 0.592145 0.142837
H13   H     H_    0.638603 0.089238 0.631642 0.141658
H14   H     H_    0.162070 0.495980 0.158523 0.159174
H15   H     H_    0.202036 0.432279 0.238773 0.169664
H16   H     H_    0.088657 0.397492 0.221301 0.200865
H17   H     H_    0.821315 0.517482 0.742409 0.181216
H18   H     H_    0.831578 0.431082 0.822935 0.151619
H19   H     H_    0.930353 0.518347 0.773013 0.200249
H20   H     H_    0.296978 0.229057 0.653709 0.265964
H21   H     H_    0.160493 0.202979 0.716807 0.255051
H22   H     H_    0.233565 0.140679 0.615348 0.255636
H23   H     H_    0.173161 0.655835 0.324263 0.140586
H24   H     H_    0.128339 0.251182 0.577640 0.215797
H25   H     H_    0.261512 0.274660 0.510935 0.236540
H26   H     H_    0.266200 0.387589 0.627609 0.261786
H27   H     H_    0.135337 0.371856 0.692787 0.157064
H28   H     H_    0.733119 0.803578 0.357994 0.278106
H29   H     H_    0.871468 0.802071 0.294885 0.259629
H30   H     H_    0.787148 0.774368 0.236415 0.255991
H31   H     H_    0.856513 0.636961 0.278039 0.200167
H32   H     H_    0.719142 0.639105 0.336052 0.259441
H33   H     H_    0.733886 0.681610 0.487990 0.213313
H34   H     H_    0.832549 0.327127 0.658104 0.141167
H35   H     H_    0.859358 0.709075 0.430242 0.173215
H36   H     H_    0.302765 0.135186 0.190885 0.266377
H37   H     H_    0.320667 0.235794 0.247336 0.259316
H38   H     H_    0.415770 0.209221 0.134131 0.253466
H39   H     H_    0.477605 0.173993 0.258343 0.224965
H40   H     H_    0.458568 0.073539 0.204073 0.226726
H41   H     H_    0.291069 0.036494 0.333413 0.198426
H42   H     H_    0.293933 0.137823 0.389898 0.194933
H43   H     H_    0.685044 0.760980 0.741010 0.260309
H44   H     H_    0.707348 0.860511 0.796884 0.264424
H45   H     H_    0.002719 0.657269 0.322942 0.156987
H46   H     H_    0.592320 0.789030 0.854695 0.252923
H47   H     H_    0.551575 0.926189 0.786307 0.225584
H48   H     H_    0.530524 0.827338 0.730808 0.224848
H49   H     H_    0.716054 0.863115 0.599859 0.195445
H50   H     H_    0.717790 0.964103 0.657235 0.197016
H51   H     H_    0.997570 0.331517 0.667831 0.155326
H52   H     H_    0.457664 0.459926 0.226459 0.157309
H53   H     H_    0.531309 0.554312 0.778611 0.149058
H54   H     H_    0.764311 0.533656 0.195796 0.149177
N1    N     N_R   0.249980 0.499930 0.499960 -0.114217
N2    N     N_R   0.750020 0.500070 0.500040 -0.109037
O1    O     O_R   0.419720 0.632140 0.499980 -0.611708
O2    O     O_3   0.797976 0.560050 0.875810 -0.617832
O3    O     O_R   0.580280 0.367860 0.500020 -0.613530
O4    O     O_R   0.580270 0.632160 0.499970 -0.637948
O5    O     O_R   0.419730 0.367840 0.500030 -0.633361
O6    O     O_R   0.373870 0.499980 0.632250 -0.634486
O7    O     O_R   0.626130 0.500020 0.367750 -0.620553
O8    O     O_R   0.534420 0.500000 0.632240 -0.616958
O9    O     O_R   0.465580 0.500000 0.367760 -0.620769
O10   O     O_3   0.224512 0.372314 0.111894 -0.616702
Zn1   Zn    Zn3+2 0.392800 0.499980 0.500010 0.923815
Zn2   Zn    Zn3+2 0.607200 0.500020 0.499990 0.928577

loop_
_geom_bond_atom_site_label_1
_geom_bond_atom_site_label_2
_ccdc_geom_bond_type
O3    Zn2   S    
C19   N2    A    
C34   C56   A    
C23   C45   A    
C22   C29   A    
C17   O9    A    
C9    C64   A    
C54   H35   S    
C52   H24   S    
C32   H51   S    
C2    C65   A    
C29   H23   S    
C50   H18   S    
C7    C8    A    
C12   O5    A    
C52   C53   S    
C59   H39   S    
O1    Zn1   S    
C56   O2    S    
C24   C26   A    
C62   H48   S    
C16   C33   S    
C11   C14   A    
C39   H54   S    
C30   H34   S    
C21   N2    A    
C1    C2    S    
C14   H11   S    
C49   H15   S    
C63   H46   S    
N2    Zn2   S    
C20   H1    S    
C50   H19   S    
C15   H13   S    
C22   C25   A    
C21   H12   S    
C18   C51   S    
C64   H7    S    
C53   H20   S    
C41   H52   S    
C11   C58   S    
C16   O8    A    
C43   C48   A    
C61   C62   S    
C40   C42   A    
C59   C60   S    
C37   H4    S    
C41   C43   A    
O8    Zn2   S    
C42   C44   A    
C60   H36   S    
C50   H17   S    
C49   O10   S    
C59   H40   S    
C17   O7    A    
C51   C52   S    
C33   C40   A    
C23   H5    S    
C50   O2    S    
C1    O4    A    
C62   H47   S    
C4    C6    A    
C10   C14   A    
C5    C7    A    
C6    C8    A    
C12   O3    A    
C3    C5    A    
C25   C26   A    
C12   C66   S    
C57   H30   S    
C65   H8    S    
C64   C66   A    
C49   H16   S    
C63   H43   S    
C35   C39   A    
C1    O1    A    
C61   H49   S    
C62   C63   S    
C51   H26   S    
C47   C48   A    
C55   H31   S    
C61   H50   S    
C53   H21   S    
C19   C28   A    
C16   O6    A    
C20   N1    A    
C51   H27   S    
C19   C54   S    
C8    C10   A    
C38   H2    S    
C57   H28   S    
C55   C57   S    
C54   H33   S    
C36   C44   A    
C3    C66   A    
C60   H37   S    
C34   H6    S    
C58   H41   S    
C3    H9    S    
C44   C45   A    
C10   C65   A    
C7    C9    A    
C54   C55   S    
C23   C48   A    
C27   C32   A    
C28   C31   A    
C18   C27   A    
O5    Zn1   S    
C20   C22   A    
O9    Zn1   S    
C5    C11   A    
C25   C27   A    
C26   C28   A    
C33   C38   A    
C49   H14   S    
C63   H44   S    
C13   C15   A    
C58   C59   S    
C29   C31   A    
O6    Zn1   S    
C6    C13   A    
C30   C32   A    
C2    C4    A    
C55   H32   S    
C36   C38   A    
C53   H22   S    
C58   H42   S    
C42   C47   A    
C9    C15   A    
C36   H3    S    
C35   C41   A    
C43   C46   A    
C24   C30   A    
C4    H10   S    
C18   N1    A    
O7    Zn2   S    
C40   H53   S    
C13   C61   S    
O4    Zn2   S    
C45   O10   S    
C37   C39   A    
C57   H29   S    
C21   C24   A    
C46   C56   A    
C31   H45   S    
C52   H25   S    
C34   C47   A    
C17   C35   S    
N1    Zn1   S    
C37   C46   A    
C60   H38   S    
