data_mof_unit_pretest_962.cif
_audit_creation_date              2013-03-05T16:00:22-0500
_audit_creation_method            fapswitch 2.2
_symmetry_space_group_name_H-M    P1
_symmetry_Int_Tables_number       1
_space_group_crystal_system       triclinic
_cell_length_a                    8.341892
_cell_length_b                    12.972122
_cell_length_c                    26.946754
_cell_angle_alpha                 98.306927
_cell_angle_beta                  92.485738
_cell_angle_gamma                 80.598074
_cell_volume                      2846.02603555

loop_
_atom_site_label
_atom_site_type_symbol
_atom_site_description
_atom_site_fract_x
_atom_site_fract_y
_atom_site_fract_z
_atom_type_partial_charge
P1    P     P_3+3 0.072810 0.589830 0.610360 0.543979
O1    O     O_2   0.907040 0.557650 0.617910 -0.315761
O2    O     O_3   0.139040 0.557570 0.557730 -0.335568
O3    O     O_3   0.684960 0.360550 0.588460 -0.288739
O4    O     O_2   0.834568 0.433586 0.670790 -0.376596
O5    O     O_3   0.047376 0.725978 0.630031 -0.621484
O6    O     O_3   0.712665 0.272561 0.680111 -0.527044
H1    H     H_    0.549090 0.193639 0.637143 0.117390
C1    C     C_3   0.594377 0.139127 0.709819 -0.681619
H2    H     H_    0.505269 0.084776 0.698949 0.256475
H3    H     H_    0.717926 0.092365 0.706137 0.248178
P2    P     P_3+3 0.661990 0.251250 0.462170 0.502388
P3    P     P_3+3 0.141948 0.169293 0.564877 0.617683
O7    O     O_2   0.841490 0.235060 0.476710 -0.316920
O8    O     O_3   0.099640 0.305100 0.564190 -0.320643
O9    O     O_2   0.019072 0.120974 0.527883 -0.272262
O10   O     O_3   0.670135 0.215875 0.397170 -0.614713
O11   O     O_3   0.079604 0.145830 0.622866 -0.445244
C2    C     C_3   0.145999 0.211804 0.661519 0.281663
H4    H     H_    0.121307 0.295603 0.654924 0.060989
H5    H     H_    0.277767 0.185570 0.663160 0.048800
C3    C     C_3   0.071171 0.204969 0.711789 0.151724
H6    H     H_    0.036190 0.285420 0.732672 0.091838
H7    H     H_    0.961628 0.166529 0.705567 0.192590
C4    C     C_3   0.307739 0.232609 0.387090 0.397980
H8    H     H_    0.389682 0.256047 0.360762 0.058630
H9    H     H_    0.338729 0.259632 0.426823 0.095746
C5    C     C_3   0.327310 0.113808 0.379054 -0.228102
H10   H     H_    0.450171 0.079910 0.391687 0.119767
H11   H     H_    0.307472 0.085362 0.338744 0.166775
Ba1   Ba    Ba6+2 0.859560 0.448380 0.523550 1.698393
C6    C     C_3   0.926460 0.783103 0.603242 0.789192
H12   H     H_    0.830396 0.737078 0.588553 0.060696
C7    C     C_3   0.854007 0.882518 0.638664 -0.117298
H13   H     H_    0.755999 0.865416 0.661026 0.158694
H14   H     H_    0.945740 0.907676 0.666678 0.204517
C8    C     C_3   0.726267 0.293410 0.374888 0.396664
H15   H     H_    0.833364 0.319731 0.395420 0.145394
H16   H     H_    0.627171 0.361490 0.373905 0.069406
C9    C     C_3   0.775338 0.245885 0.321634 -0.937434
H17   H     H_    0.866949 0.173586 0.322465 0.291279
H18   H     H_    0.829511 0.302223 0.303009 0.223779
H19   H     H_    0.667207 0.224894 0.299382 0.243958
P4    P     P_3+3 0.116900 0.410080 0.389630 0.496017
O12   O     O_2   0.282660 0.442310 0.382060 -0.396046
O13   O     O_3   0.050670 0.442340 0.442260 -0.356769
O14   O     O_3   0.504750 0.639360 0.411530 -0.388040
O15   O     O_3   0.146280 0.272848 0.376515 -0.556483
P5    P     P_3+3 0.046972 0.828886 0.430229 0.559013
O16   O     O_3   0.618400 0.630290 0.524520 -0.374651
O17   O     O_3   0.090070 0.694820 0.435810 -0.348320
O18   O     O_2   0.170187 0.878885 0.466552 -0.281815
O19   O     O_3   0.112412 0.842570 0.371105 -0.470703
Ba2   Ba    Ba6+2 0.330270 0.551530 0.476440 1.650626
P6    P     P_3+3 0.676465 0.390107 0.654258 0.535665
C10   C     C_3   0.571565 0.226740 0.676713 0.335211
H20   H     H_    0.464386 0.284527 0.690267 0.065154
H21   H     H_    0.578757 0.173425 0.749786 0.301833
O20   O     O_3   0.571310 0.369620 0.475470 -0.342109
C11   C     C_3   0.472750 0.753070 0.630074 0.664877
H22   H     H_    0.394049 0.699945 0.608810 0.061502
C12   C     C_3   0.375276 0.825138 0.671688 -0.087109
H23   H     H_    0.295785 0.780740 0.689475 0.143952
H24   H     H_    0.456919 0.859288 0.701041 0.186267
P7    P     P_3+3 0.533338 0.766196 0.535929 0.486803
O21   O     O_2   0.348200 0.764910 0.523260 -0.303306
O22   O     O_3   0.540190 0.814878 0.600145 -0.582977
C13   C     C_3   0.004089 0.803362 0.334858 0.380697
H25   H     H_    0.982886 0.723052 0.340083 0.075394
H26   H     H_    0.888757 0.859127 0.336734 0.055305
C14   C     C_3   0.073498 0.796651 0.283047 -0.838782
H27   H     H_    0.186266 0.737719 0.279081 0.285851
H28   H     H_    0.983739 0.772001 0.253984 0.233687
H29   H     H_    0.101334 0.874819 0.277153 0.254985
P8    P     P_3+3 0.514047 0.607452 0.346165 0.481808
C15   C     C_3   0.561635 0.799514 0.349389 0.530341
H30   H     H_    0.686920 0.767687 0.361343 -0.040494
O23   O     O_2   0.355883 0.565035 0.328439 -0.381474
O24   O     O_3   0.490704 0.722564 0.318364 -0.496492
H31   H     H_    0.485730 0.830312 0.382879 0.120229
H32   H     H_    0.644485 0.860194 0.285920 0.281676
C16   C     C_3   0.569036 0.889386 0.319569 -1.001147
H33   H     H_    0.623140 0.953011 0.342981 0.210931
H34   H     H_    0.444907 0.921028 0.306816 0.276967
C17   C     C_R   0.048064 0.416798 0.179481 0.531005
O25   O     O_2   0.109275 0.343741 0.201604 -0.597931
N1    N     N_R   0.938959 0.498779 0.203936 -0.163434
C18   C     C_R   0.866338 0.579678 0.177796 0.540813
C19   C     C_2   0.738379 0.515195 0.270190 -0.162595
C20   C     C_3   0.695207 0.510513 0.323942 0.139177
C21   C     C_1   0.983803 0.476447 0.343549 0.281542
C22   C     C_2   0.025255 0.475889 0.296219 -0.209790
C23   C     C_2   0.896434 0.498032 0.256239 0.112755
C24   C     C_R   0.010757 0.495848 0.101636 -0.066583
C25   C     C_R   0.086899 0.415253 0.128587 -0.045281
C26   C     C_R   0.198964 0.333679 0.103907 -0.082263
C27   C     C_R   0.898098 0.577629 0.126325 -0.103314
C28   C     C_2   0.838965 0.522758 0.359018 -0.483381
H35   H     H_    0.151966 0.458303 0.286089 0.190650
H36   H     H_    0.261778 0.271331 0.123671 0.173151
C29   C     C_2   0.361666 0.496255 0.642028 -0.427860
C30   C     C_R   0.183166 0.403541 0.972432 -0.013693
C31   C     C_R   0.021836 0.579863 0.973597 0.075018
C32   C     C_R   0.121126 0.490880 0.947369 0.104739
C33   C     C_R   0.272911 0.314307 0.944215 -0.301207
C34   C     C_R   0.308515 0.311882 0.893827 0.598460
C35   C     C_R   0.254531 0.400713 0.868766 -0.208763
C36   C     C_R   0.161485 0.490485 0.896036 -0.115281
C37   C     C_R   0.110826 0.581055 0.872418 -0.046342
C38   C     C_R   0.150331 0.580945 0.821795 0.556977
N2    N     N_R   0.239426 0.492792 0.794921 -0.173148
C39   C     C_R   0.290970 0.403562 0.817755 0.596906
C40   C     C_2   0.447436 0.478749 0.731886 -0.245596
C41   C     C_3   0.499346 0.488992 0.679835 0.285402
C42   C     C_1   0.210482 0.527161 0.656751 0.272796
C43   C     C_2   0.164009 0.520663 0.702835 -0.235009
C44   C     C_2   0.287888 0.495710 0.743545 0.114497
O26   O     O_2   0.368683 0.326582 0.793414 -0.534786
C45   C     C_R   0.154906 0.408320 0.024831 0.105293
C46   C     C_R   0.045817 0.493947 0.049832 0.060856
C47   C     C_R   0.969240 0.576485 0.023225 -0.066744
C48   C     C_R   0.232682 0.330326 0.053419 -0.190650
H37   H     H_    0.540278 0.464099 0.760640 0.170051
H38   H     H_    0.315254 0.243033 0.960199 0.177799
H39   H     H_    0.323637 0.266157 0.038115 0.142605
O27   O     O_2   0.774216 0.654087 0.199340 -0.597087
C49   C     C_R   0.812490 0.652855 0.098448 -0.126972
H40   H     H_    0.641003 0.525528 0.242423 0.167336
H41   H     H_    0.715506 0.711207 0.115694 0.202428
C50   C     C_R   0.988408 0.671956 0.950408 -0.121791
C51   C     C_R   0.028009 0.671944 0.900679 -0.052869
O28   O     O_2   0.107692 0.660244 0.801942 -0.559593
C52   C     C_R   0.840389 0.650082 0.047417 0.283485
H42   H     H_    0.938815 0.746980 0.971102 0.181615
H43   H     H_    0.995983 0.744741 0.884690 0.186092
H44   H     H_    0.037138 0.541936 0.712599 0.205766
H45   H     H_    0.823148 0.565602 0.396652 0.157959
H46   H     H_    0.395365 0.507077 0.604957 0.206131
C53   C     C_R   0.745480 0.818688 0.469625 -0.426253
C54   C     C_R   0.443481 0.187436 0.524877 0.132326
C55   C     C_R   0.403417 0.009728 0.530872 -0.142882
C56   C     C_R   0.350227 0.117931 0.540764 0.098436
C57   C     C_R   0.577244 0.150780 0.493439 0.168154
C58   C     C_R   0.632315 0.038778 0.483179 -0.069742
C59   C     C_R   0.546087 0.968187 0.503745 -0.002514
C60   C     C_R   0.606837 0.857921 0.497835 0.259080
C61   C     C_R   0.835340 0.885970 0.450754 0.206706
C62   C     C_R   0.775804 0.995111 0.456017 -0.152571
H47   H     H_    0.329539 0.958811 0.543849 0.233485
H48   H     H_    0.846485 0.045308 0.441040 0.207802
H49   H     H_    0.793527 0.735414 0.466927 0.156633
Br1   Br    Br    0.167870 0.071587 0.417582 -0.466537
Cl1   Cl    Cl    0.021541 0.816656 0.552397 -0.543772
Br2   Br    Br    0.770705 0.002895 0.604739 -0.480497
Cl2   Cl    Cl    0.632457 0.679431 0.661235 -0.729027
Br3   Br    Br    0.247174 0.941937 0.645717 -0.439375
Cl3   Cl    Cl    0.206205 0.129424 0.750852 -0.521997
Cl4   Cl    Cl    0.425972 0.193900 0.865417 -0.501755
Br4   Br    Br    0.668121 0.730910 0.012568 -0.530085
Cl5   Cl    Cl    0.392976 0.322484 0.545153 -0.608170

loop_
_geom_bond_atom_site_label_1
_geom_bond_atom_site_label_2
_geom_bond_distance
_ccdc_geom_bond_type
O5    C6    1.390992 S    
N1    C18   1.390440 Am   
C53   C60   1.395214 A    
C35   C39   1.427538 A    
C25   C26   1.401183 A    
C15   O24   1.397991 S    
O6    P6    1.743519 S    
O7    Ba1   2.895487 S    
C58   C62   1.422678 A    
H1    C10   1.110477 S    
H32   C16   1.110922 S    
C55   H47   1.075535 S    
C17   O25   1.221885 D    
C10   H20   1.106775 S    
C4    C5    1.507642 S    
C53   C61   1.399044 A    
Ba2   O21   2.895809 S    
O16   Ba2   2.940948 S    
P3    O11   1.750590 S    
C5    H10   1.106974 S    
C2    H5    1.097229 S    
C62   H48   1.075425 S    
C7    H13   1.105154 S    
C8    C9    1.523106 S    
C51   H43   1.083465 S    
O2    Ba2   2.749879 S    
C34   C35   1.419729 A    
C52   Br4   1.929106 S    
C42   C43   1.334993 D    
C26   H36   1.083562 S    
P1    Ba1   3.386548 S    
C36   C37   1.412261 A    
P5    C61   1.873539 S    
C30   C33   1.410831 A    
C11   C12   1.523289 S    
P1    O1    1.537994 D    
Ba1   O20   2.941804 S    
O19   C13   1.399748 S    
C38   N2    1.383549 Am   
C18   O27   1.222181 D    
P8    C20   1.861113 S    
P2    O20   1.594821 S    
C24   C46   1.434566 A    
C9    H19   1.110606 S    
N2    C39   1.386901 Am   
C11   O22   1.408318 S    
C13   H25   1.114080 S    
P5    O17   1.744424 S    
Ba1   O13   2.749266 S    
P2    O10   1.746710 S    
C37   C51   1.402632 A    
C12   H24   1.111890 S    
C35   C36   1.416142 A    
C54   C57   1.407520 A    
C38   O28   1.222229 D    
C1    H2    1.108190 S    
C18   C27   1.418975 A    
C55   C59   1.411825 A    
C17   N1    1.388121 Am   
Ba1   Ba2   4.632500 S    
C29   C41   1.502236 S    
C50   H42   1.077462 S    
O6    C10   1.396646 S    
P8    O23   1.542163 D    
P4    O13   1.520730 S    
C59   C60   1.425667 A    
Ba2   O20   2.837020 S    
C7    Br2   1.939021 S    
C28   H45   1.086065 S    
C61   C62   1.410529 A    
P1    O5    1.749856 S    
C15   H31   1.112517 S    
C2    C3    1.535789 S    
C15   H30   1.111179 S    
C15   C16   1.518935 S    
C21   C22   1.334551 D    
C14   H28   1.109603 S    
O11   C2    1.404031 S    
C24   C27   1.405640 A    
P7    O22   1.756102 S    
C4    H8    1.111457 S    
C34   Cl4   1.767780 S    
C33   H38   1.077172 S    
C11   H22   1.111465 S    
P1    O2    1.520726 S    
C6    C7    1.542470 S    
C30   C32   1.416601 A    
C49   H41   1.083682 S    
C8    H15   1.105905 S    
C53   H49   1.082236 S    
C40   H37   1.085672 S    
C45   C46   1.422138 A    
P5    O18   1.543466 D    
O13   Ba2   2.968283 S    
C12   H23   1.110511 S    
C1    C10   1.526873 S    
O10   C8    1.394312 S    
P3    C56   1.865318 S    
O2    Ba1   2.967432 S    
C1    H3    1.107803 S    
C4    O15   1.395607 S    
P4    C21   1.841949 S    
O14   Ba2   2.795430 S    
C40   C44   1.356136 D    
C13   H26   1.103512 S    
C9    H17   1.111091 S    
P6    C41   1.875410 S    
P2    O7    1.519829 D    
O12   Ba2   2.772759 S    
C5    Br1   1.915428 S    
C16   H34   1.108967 S    
P3    O8    1.741896 S    
O3    P6    1.761048 S    
C29   C42   1.319437 D    
C3    H7    1.105985 S    
Ba1   O16   2.837597 S    
C31   C47   1.434196 A    
C32   C36   1.436868 A    
C46   C47   1.423769 A    
C40   C41   1.515860 S    
C45   C48   1.416128 A    
C27   C49   1.401469 A    
C1    H21   1.108882 S    
O4    P6    1.541251 D    
P4    O12   1.538311 D    
C49   C52   1.398994 A    
C54   C56   1.403903 A    
C58   C59   1.435095 A    
C14   H29   1.110862 S    
C29   H46   1.083709 S    
O8    Ba1   2.801157 S    
C43   H44   1.083150 S    
C3    Cl3   1.780938 S    
C4    H9    1.110504 S    
C33   C34   1.397279 A    
P2    C57   1.891652 S    
C26   C48   1.394292 A    
N2    C44   1.466349 S    
O17   Ba2   2.801703 S    
C6    H12   1.102646 S    
C2    H4    1.111384 S    
C5    H11   1.109955 S    
C50   C51   1.393990 A    
C19   C20   1.519601 S    
C11   Cl2   1.763922 S    
O14   P8    1.752265 S    
C14   H27   1.109469 S    
P2    Ba1   3.451022 S    
P4    O15   1.742756 S    
C55   C56   1.391671 A    
C54   Cl5   1.745639 S    
C39   O26   1.218111 D    
C17   C25   1.419384 A    
C48   H39   1.077152 S    
C13   C14   1.520054 S    
P5    O19   1.748310 S    
N1    C23   1.469973 S    
C9    H18   1.106235 S    
C22   C23   1.511975 S    
C12   Br3   1.907860 S    
C43   C44   1.506991 S    
C7    H14   1.105549 S    
P7    O21   1.569405 D    
C21   C28   1.314776 D    
C19   C23   1.360942 D    
C24   C25   1.409372 A    
O16   P7    1.777569 S    
O3    Ba1   2.796043 S    
C6    Cl1   1.753582 S    
P4    Ba2   3.387133 S    
C8    H16   1.109209 S    
C16   H33   1.108813 S    
P3    O9    1.542071 D    
C31   C32   1.421483 A    
C3    H6    1.111760 S    
O1    Ba1   2.772369 S    
P1    C42   1.845703 S    
C47   C52   1.427384 A    
P7    C60   1.868486 S    
C37   C38   1.416942 A    
P8    O24   1.744863 S    
C20   C28   1.509063 S    
C30   C45   1.432459 A    
C57   C58   1.440589 A    
C22   H35   1.082626 S    
C31   C50   1.409643 A    
C19   H40   1.085514 S    
