data_mof_unit_pretest_429.cif
_audit_creation_date              2012-10-26T21:33:16-0400
_audit_creation_method            fapswitch 2.2
_symmetry_space_group_name_H-M    P1
_symmetry_Int_Tables_number       1
_space_group_crystal_system       triclinic
_cell_length_a                    28.210908
_cell_length_b                    18.41818
_cell_length_c                    17.029934
_cell_angle_alpha                 90.021422
_cell_angle_beta                  60.890544
_cell_angle_gamma                 89.988704
_cell_volume                      7730.98808753

loop_
_atom_site_label
_atom_site_type_symbol
_atom_type_description
_atom_site_fract_x
_atom_site_fract_y
_atom_site_fract_z
_atom_type_partial_charge
C1    C     C_R   0.704161 0.273674 0.674744 0.903116
C2    C     C_R   0.083758 0.500029 0.546104 0.069183
C3    C     C_R   0.187892 0.224818 0.907554 0.054597
C4    C     C_R   0.074324 0.099843 0.934184 0.939101
C5    C     C_R   0.927823 0.897791 0.063850 0.931010
C6    C     C_R   0.926726 0.101080 0.064915 0.939118
C7    C     C_R   0.071531 0.897077 0.936741 0.927372
C8    C     C_R   0.574323 0.599844 0.934185 0.939107
C9    C     C_R   0.427823 0.397791 0.063850 0.931003
C10   C     C_R   0.426716 0.601069 0.064923 0.939122
C11   C     C_R   0.571533 0.397079 0.936739 0.927380
C12   C     C_R   0.538128 0.132094 0.531079 0.000763
C13   C     C_R   0.416004 0.999969 0.454875 0.068113
C14   C     C_R   0.461512 0.867902 0.470237 -0.001848
C15   C     C_R   0.461625 0.132045 0.469850 0.000428
C16   C     C_R   0.538039 0.867950 0.531412 0.001057
C17   C     C_R   0.038128 0.632093 0.531081 0.000762
C18   C     C_R   0.961511 0.367902 0.470239 -0.001848
C19   C     C_R   0.961625 0.632045 0.469852 0.000427
C20   C     C_R   0.038038 0.367950 0.531415 0.001058
C21   C     C_R   0.517710 0.198573 0.518858 0.340696
C22   C     C_R   0.481857 0.801417 0.482618 0.336850
C23   C     C_R   0.482049 0.198543 0.482001 0.340744
C24   C     C_R   0.583758 0.000029 0.546102 0.069183
C25   C     C_R   0.517541 0.801457 0.519428 0.340940
C26   C     C_R   0.017709 0.698573 0.518861 0.340694
C27   C     C_R   0.981856 0.301417 0.482621 0.336849
C28   C     C_R   0.982049 0.698543 0.482004 0.340743
C29   C     C_R   0.017541 0.301457 0.519431 0.340947
C30   C     C_R   0.479854 0.066108 0.487150 -0.049418
C31   C     C_R   0.519774 0.933888 0.514173 -0.049550
C32   C     C_R   0.519824 0.066128 0.513993 -0.048885
C33   C     C_R   0.479797 0.933869 0.487345 -0.048695
C34   C     C_R   0.979853 0.566108 0.487153 -0.049418
C35   C     C_R   0.077195 0.369506 0.559506 -0.131449
C36   C     C_R   0.019773 0.433888 0.514175 -0.049550
C37   C     C_R   0.019824 0.566128 0.513996 -0.048886
C38   C     C_R   0.979796 0.433869 0.487347 -0.048693
C39   C     C_R   0.959245 0.499980 0.474851 0.047844
C40   C     C_R   0.040412 0.500016 0.526399 0.047947
C41   C     C_R   0.459245 0.999980 0.474848 0.047843
C42   C     C_R   0.540413 0.000017 0.526396 0.047946
C43   C     C_R   0.893945 0.433854 0.446216 0.014955
C44   C     C_R   0.105883 0.566147 0.554589 0.015425
C45   C     C_R   0.105864 0.433918 0.554685 0.017017
C46   C     C_R   0.922610 0.630485 0.441455 -0.130079
C47   C     C_R   0.893978 0.566075 0.446082 0.015360
C48   C     C_R   0.393945 0.933854 0.446214 0.014954
C49   C     C_R   0.605884 0.066147 0.554587 0.015426
C50   C     C_R   0.605864 0.933918 0.554683 0.017019
C51   C     C_R   0.393979 0.066075 0.446080 0.015359
C52   C     C_R   0.843519 0.434835 0.444895 -0.105876
C53   C     C_R   0.156433 0.565176 0.555474 -0.111078
C54   C     C_R   0.156425 0.434870 0.555515 -0.107108
C55   C     C_R   0.843537 0.565120 0.444820 -0.109161
C56   C     C_R   0.343519 0.934835 0.444894 -0.105877
C57   C     C_R   0.922534 0.369422 0.441767 -0.138834
C58   C     C_R   0.656433 0.065176 0.555473 -0.111074
C59   C     C_R   0.656425 0.934870 0.555514 -0.107109
C60   C     C_R   0.343537 0.065120 0.444820 -0.109162
C61   C     C_R   0.820896 0.499978 0.440068 -0.273251
C62   C     C_R   0.179127 0.500020 0.560092 -0.271769
C63   C     C_R   0.320896 0.999978 0.440067 -0.273253
C64   C     C_R   0.679127 0.000020 0.560091 -0.271770
C65   C     C_R   0.077243 0.630578 0.559261 -0.130080
C66   C     C_R   0.577195 0.869506 0.559504 -0.131457
C67   C     C_R   0.422611 0.130485 0.441452 -0.130083
C68   C     C_R   0.422534 0.869422 0.441765 -0.138834
C69   C     C_R   0.299024 0.733394 0.323490 0.895582
C70   C     C_R   0.577244 0.130578 0.559259 -0.130079
C71   C     C_R   0.722159 0.271569 0.954628 0.107447
C72   C     C_R   0.282750 0.745851 0.044051 0.106510
C73   C     C_R   0.282498 0.263603 0.040191 0.020658
C74   C     C_R   0.721870 0.740726 0.950463 0.112791
C75   C     C_R   0.222150 0.771560 0.954638 0.107636
C76   C     C_R   0.782771 0.245854 0.044019 0.106313
C77   C     C_R   0.782497 0.763605 0.040192 0.020647
C78   C     C_R   0.221870 0.240725 0.950463 0.112781
C79   C     C_R   0.724160 0.201390 0.985177 0.534966
C80   C     C_R   0.297531 0.270000 0.324011 0.920661
C81   C     C_R   0.280741 0.816137 0.013440 0.539870
C82   C     C_R   0.286436 0.196934 0.997217 0.494003
C83   C     C_R   0.718476 0.807755 0.992447 0.535906
C84   C     C_R   0.224068 0.701426 0.985339 0.534799
C85   C     C_R   0.780677 0.316184 0.013562 0.540024
C86   C     C_R   0.786440 0.696938 0.997211 0.494031
C87   C     C_R   0.218481 0.307755 0.992439 0.535918
C88   C     C_R   0.754215 0.189212 0.030188 -0.374285
C89   C     C_R   0.250276 0.828431 0.968971 -0.376293
C90   C     C_R   0.256128 0.186124 0.952365 -0.358472
C91   C     C_R   0.700867 0.733716 0.676504 0.890015
C92   C     C_R   0.748925 0.818641 0.037135 -0.364349
C93   C     C_R   0.254118 0.689250 0.030358 -0.374300
C94   C     C_R   0.750206 0.328480 0.969103 -0.376311
C95   C     C_R   0.756132 0.686127 0.952358 -0.358480
C96   C     C_R   0.248930 0.318640 0.037127 -0.364313
C97   C     C_R   0.638683 0.317608 0.953087 0.089508
C98   C     C_R   0.361532 0.684422 0.046981 0.070985
C99   C     C_R   0.362754 0.315325 0.045483 0.135807
C100  C     C_R   0.642840 0.678503 0.949579 0.073145
C101  C     C_R   0.138675 0.817597 0.953092 0.089605
C102  C     C_R   0.204162 0.773675 0.674744 0.903111
C103  C     C_R   0.861563 0.184460 0.046956 0.070956
C104  C     C_R   0.862753 0.815326 0.045483 0.135811
C105  C     C_R   0.142841 0.178502 0.949578 0.073142
C106  C     C_R   0.613806 0.342681 0.902635 -0.130107
C107  C     C_R   0.385487 0.657166 0.098099 -0.130585
C108  C     C_R   0.386347 0.342252 0.097108 -0.139263
C109  C     C_R   0.616578 0.654512 0.900463 -0.127965
C110  C     C_R   0.113802 0.842675 0.902638 -0.130145
C111  C     C_R   0.885502 0.157184 0.098088 -0.130571
C112  C     C_R   0.886347 0.842252 0.097108 -0.139266
C113  C     C_R   0.799022 0.233388 0.323490 0.895605
C114  C     C_R   0.116579 0.154511 0.900463 -0.127964
C115  C     C_R   0.634435 0.323707 0.813918 -0.329293
C116  C     C_R   0.366727 0.678878 0.185631 -0.326733
C117  C     C_R   0.366135 0.322451 0.185440 -0.364570
C118  C     C_R   0.633679 0.678569 0.814275 -0.327551
C119  C     C_R   0.134432 0.823704 0.813920 -0.329269
C120  C     C_R   0.866728 0.178878 0.185630 -0.326737
C121  C     C_R   0.866135 0.822450 0.185440 -0.364566
C122  C     C_R   0.133679 0.178568 0.814275 -0.327540
C123  C     C_R   0.684058 0.290290 0.769093 -0.180389
C124  C     C_R   0.797531 0.770000 0.324011 0.920662
C125  C     C_R   0.323014 0.724811 0.226481 -0.196675
C126  C     C_R   0.319497 0.282171 0.227945 -0.114594
C127  C     C_R   0.677293 0.724571 0.773270 -0.197252
C128  C     C_R   0.184058 0.790291 0.769094 -0.180368
C129  C     C_R   0.823011 0.224805 0.226481 -0.196668
C130  C     C_R   0.819497 0.782172 0.227945 -0.114594
C131  C     C_R   0.177293 0.224572 0.773270 -0.197260
C132  C     C_R   0.714531 0.275664 0.814336 0.418490
C133  C     C_R   0.298268 0.753393 0.176970 0.435206
C134  C     C_R   0.291795 0.259152 0.180810 0.430833
C135  C     C_R   0.200867 0.233716 0.676504 0.890013
C136  C     C_R   0.702875 0.752075 0.821906 0.435984
C137  C     C_R   0.214530 0.775666 0.814338 0.418339
C138  C     C_R   0.798266 0.253383 0.176967 0.435230
C139  C     C_R   0.791793 0.759155 0.180812 0.430837
C140  C     C_R   0.202874 0.252076 0.821907 0.435993
C141  C     C_R   0.691266 0.129290 0.534690 0.892308
C142  C     C_R   0.308710 0.870733 0.465444 0.857204
C143  C     C_R   0.308723 0.129263 0.465393 0.880378
C144  C     C_R   0.691265 0.870727 0.534688 0.864528
C145  C     C_R   0.191265 0.629290 0.534691 0.892311
C146  C     C_R   0.916004 0.499968 0.454877 0.068114
C147  C     C_R   0.808710 0.370733 0.465444 0.857217
C148  C     C_R   0.808723 0.629263 0.465393 0.880381
C149  C     C_R   0.191265 0.370727 0.534688 0.864529
C150  C     C_R   0.690532 0.286405 0.907373 0.056167
C151  C     C_R   0.315538 0.729206 0.089096 0.055526
C152  C     C_R   0.313548 0.277183 0.088826 -0.003938
C153  C     C_R   0.687892 0.724818 0.907554 0.054598
C154  C     C_R   0.190526 0.786398 0.907378 0.056226
C155  C     C_R   0.815554 0.229219 0.089076 0.055479
C156  C     C_R   0.813546 0.777185 0.088827 -0.003937
H1    H     H_    0.782360 0.499985 0.440401 0.197976
H2    H     H_    0.415429 0.180095 0.415400 0.227654
H3    H     H_    0.415377 0.819762 0.415753 0.229088
H4    H     H_    0.584541 0.180246 0.585083 0.227892
H5    H     H_    0.748462 0.382416 0.945236 0.158658
H6    H     H_    0.255730 0.635262 0.054214 0.164268
H7    H     H_    0.246296 0.369933 0.070210 0.163902
H8    H     H_    0.758476 0.634597 0.919911 0.159865
H9    H     H_    0.248595 0.882333 0.944988 0.158615
H10   H     H_    0.755888 0.135192 0.053933 0.164297
H11   H     H_    0.746288 0.869932 0.070223 0.163898
H12   H     H_    0.217757 0.500011 0.559431 0.197896
H13   H     H_    0.258470 0.134593 0.919923 0.159873
H14   H     H_    0.613071 0.339033 0.777953 0.213696
H15   H     H_    0.384722 0.656693 0.224074 0.213380
H16   H     H_    0.385416 0.341994 0.223131 0.216199
H17   H     H_    0.614511 0.658154 0.776794 0.213325
H18   H     H_    0.113069 0.839031 0.777953 0.213694
H19   H     H_    0.884717 0.156685 0.224079 0.213381
H20   H     H_    0.885417 0.841993 0.223130 0.216199
H21   H     H_    0.114512 0.158154 0.776793 0.213330
H22   H     H_    0.004429 0.201264 0.560067 0.355489
H23   H     H_    0.282360 0.999985 0.440401 0.197976
H24   H     H_    0.995081 0.798802 0.441598 0.355451
H25   H     H_    0.994744 0.201026 0.442582 0.355085
H26   H     H_    0.004698 0.798891 0.559158 0.355445
H27   H     H_    0.504430 0.701264 0.560064 0.355487
H28   H     H_    0.495082 0.298802 0.441595 0.355453
H29   H     H_    0.494745 0.701026 0.442579 0.355086
H30   H     H_    0.504699 0.298891 0.559155 0.355445
H31   H     H_    0.701910 0.100344 0.996138 0.339150
H32   H     H_    0.303741 0.916877 0.000959 0.337510
H33   H     H_    0.317821 0.100199 0.967281 0.338440
H34   H     H_    0.717757 0.000011 0.559430 0.197897
H35   H     H_    0.686837 0.904315 0.022932 0.336546
H36   H     H_    0.201695 0.600449 0.996525 0.339178
H37   H     H_    0.803532 0.417004 0.001342 0.337490
H38   H     H_    0.817834 0.600207 0.967259 0.338427
H39   H     H_    0.186858 0.404325 0.022897 0.336552
H40   H     H_    0.787471 0.285653 0.717827 0.340769
H41   H     H_    0.266995 0.841044 0.243093 0.352706
H42   H     H_    0.231140 0.202927 0.185071 0.351592
H43   H     H_    0.732023 0.841142 0.757545 0.350861
H44   H     H_    0.287469 0.785660 0.717827 0.340783
H45   H     H_    0.084511 0.319888 0.585376 0.226437
H46   H     H_    0.766973 0.341028 0.243091 0.352738
H47   H     H_    0.731126 0.702950 0.185078 0.351576
H48   H     H_    0.232022 0.341142 0.757544 0.350864
H49   H     H_    0.915429 0.680094 0.415402 0.227655
H50   H     H_    0.915377 0.319762 0.415755 0.229089
H51   H     H_    0.084541 0.680246 0.585085 0.227893
H52   H     H_    0.584511 0.819888 0.585374 0.226435
I1    I     I_    0.599566 0.322563 0.097369 -0.272071
I2    I     I_    0.395073 0.667283 0.904423 -0.275310
I3    I     I_    0.400405 0.326387 0.901438 -0.256039
I4    I     I_    0.615629 0.652529 0.088775 -0.301337
I5    I     I_    0.099557 0.822559 0.097375 -0.271969
I6    I     I_    0.895168 0.167412 0.904365 -0.275421
I7    I     I_    0.900404 0.826387 0.901439 -0.256056
I8    I     I_    0.115630 0.152526 0.088772 -0.301311
O1    O     O_R   0.746490 0.236330 0.638080 -0.595507
O2    O     O_R   0.325830 0.813840 0.483730 -0.639929
O3    O     O_R   0.325830 0.186160 0.483730 -0.627528
O4    O     O_R   0.674170 0.813840 0.516270 -0.629826
O5    O     O_R   0.174170 0.686160 0.516270 -0.626192
O6    O     O_R   0.825830 0.313840 0.483730 -0.639928
O7    O     O_R   0.825830 0.686160 0.483730 -0.627528
O8    O     O_R   0.174170 0.313840 0.516270 -0.629826
O9    O     O_R   0.739960 0.127620 0.525000 -0.616440
O10   O     O_R   0.260040 0.872380 0.475000 -0.628759
O11   O     O_R   0.260040 0.127620 0.475000 -0.620813
O12   O     O_R   0.253510 0.763670 0.361920 -0.599323
O13   O     O_R   0.739960 0.872380 0.525000 -0.628412
O14   O     O_R   0.239960 0.627620 0.525000 -0.616439
O15   O     O_R   0.760040 0.372380 0.475000 -0.628757
O16   O     O_R   0.760040 0.627620 0.475000 -0.620814
O17   O     O_R   0.239960 0.372380 0.525000 -0.628412
O18   O     O_R   0.680700 0.294870 0.629350 -0.626887
O19   O     O_R   0.319300 0.705130 0.370650 -0.622554
O20   O     O_R   0.319300 0.294870 0.370650 -0.639866
O21   O     O_R   0.680700 0.705130 0.629350 -0.624254
O22   O     O_R   0.180700 0.794870 0.629350 -0.626885
O23   O     O_R   0.253510 0.236330 0.361920 -0.546713
O24   O     O_R   0.819300 0.205130 0.370650 -0.622562
O25   O     O_R   0.819300 0.794870 0.370650 -0.639866
O26   O     O_R   0.180700 0.205130 0.629350 -0.624250
O27   O     O_R   0.062020 0.072840 0.007170 -0.586043
O28   O     O_R   0.937980 0.927160 0.992830 -0.593033
O29   O     O_R   0.937980 0.072840 0.992830 -0.587088
O30   O     O_R   0.062020 0.927160 0.007170 -0.589712
O31   O     O_R   0.562020 0.572840 0.007170 -0.586039
O32   O     O_R   0.437980 0.427160 0.992830 -0.593028
O33   O     O_R   0.437980 0.572840 0.992830 -0.587087
O34   O     O_R   0.746490 0.763670 0.638080 -0.599471
O35   O     O_R   0.562020 0.427160 0.007170 -0.589708
O36   O     O_R   0.947860 0.073950 0.109290 -0.622784
O37   O     O_R   0.052140 0.926050 0.890710 -0.622919
O38   O     O_R   0.052140 0.073950 0.890710 -0.622857
O39   O     O_R   0.947860 0.926050 0.109290 -0.621183
O40   O     O_R   0.447860 0.573950 0.109290 -0.622784
O41   O     O_R   0.552140 0.426050 0.890710 -0.622923
O42   O     O_R   0.552140 0.573950 0.890710 -0.622861
O43   O     O_R   0.447860 0.426050 0.109290 -0.621188
O44   O     O_3   0.033608 0.237787 0.542605 -0.770911
O45   O     O_R   0.246490 0.736330 0.638080 -0.595513
O46   O     O_3   0.965951 0.762226 0.458908 -0.770231
O47   O     O_3   0.965657 0.237684 0.459796 -0.772537
O48   O     O_3   0.033834 0.762292 0.541844 -0.770475
O49   O     O_3   0.533609 0.737787 0.542602 -0.770918
O50   O     O_3   0.465952 0.262226 0.458906 -0.770231
O51   O     O_3   0.465658 0.737684 0.459793 -0.772538
O52   O     O_3   0.533834 0.262292 0.541841 -0.770474
O53   O     O_3   0.696364 0.145939 0.970707 -0.727268
O54   O     O_3   0.309376 0.871311 0.026310 -0.732800
O55   O     O_3   0.319742 0.143410 0.000381 -0.735717
O56   O     O_R   0.753510 0.263670 0.361920 -0.599324
O57   O     O_3   0.684577 0.860919 0.990425 -0.734568
O58   O     O_3   0.196198 0.646015 0.971002 -0.727378
O59   O     O_3   0.809234 0.371401 0.026573 -0.732718
O60   O     O_3   0.819749 0.643415 0.000368 -0.735711
O61   O     O_3   0.184586 0.360922 0.990410 -0.734553
O62   O     O_3   0.767726 0.252612 0.769706 -0.716589
O63   O     O_3   0.256513 0.803145 0.213084 -0.709876
O64   O     O_3   0.243602 0.220921 0.226613 -0.723194
O65   O     O_3   0.743320 0.803734 0.786966 -0.711526
O66   O     O_3   0.267726 0.752621 0.769709 -0.716628
O67   O     O_R   0.753510 0.736330 0.361920 -0.546713
O68   O     O_3   0.756494 0.303112 0.213095 -0.709807
O69   O     O_3   0.743600 0.720926 0.226615 -0.723186
O70   O     O_3   0.243317 0.303737 0.786969 -0.711522
O71   O     O_R   0.246490 0.263670 0.638080 -0.599476
O72   O     O_R   0.674170 0.186160 0.516270 -0.626192
Zn1   Zn    Zn3+2 0.792340 0.208750 0.507670 1.040892
Zn2   Zn    Zn3+2 0.494040 0.500000 0.919480 1.043170
Zn3   Zn    Zn3+2 0.005960 0.000000 0.080520 1.044690
Zn4   Zn    Zn3+2 0.994040 0.000000 0.919480 1.043162
Zn5   Zn    Zn3+2 0.207660 0.791250 0.492330 1.036784
Zn6   Zn    Zn3+2 0.207660 0.208750 0.492330 1.060001
Zn7   Zn    Zn3+2 0.792340 0.791250 0.507670 1.036977
Zn8   Zn    Zn3+2 0.292340 0.708750 0.507670 1.040885
Zn9   Zn    Zn3+2 0.707660 0.291250 0.492330 1.036786
Zn10  Zn    Zn3+2 0.707660 0.708750 0.492330 1.059997
Zn11  Zn    Zn3+2 0.292340 0.291250 0.507670 1.036976
Zn12  Zn    Zn3+2 0.505960 0.500000 0.080520 1.044690

loop_
_geom_bond_atom_site_label_1
_geom_bond_atom_site_label_2
_ccdc_geom_bond_type
C100  C153  A    
C46   H49   S    
C145  O14   A    
C31   C42   A    
C84   O58   S    
C132  C150  A    
C133  C151  A    
C113  O56   A    
C74   C83   A    
C14   C33   A    
C19   C46   A    
H46   O68   S    
C3    C105  A    
C16   C31   A    
C7    O30   A    
H48   O70   S    
C91   C127  S    
C50   C59   A    
C52   C61   A    
C77   C156  S    
C145  O5    A    
O13   Zn7   S    
C131  C140  A    
H36   O58   S    
C13   C51   A    
C147  O15   A    
C44   C53   A    
C118  H17   S    
C101  I5    S    
O7    Zn7   S    
C97   C150  A    
C117  C126  A    
C4    O27   A    
O3    Zn11  S    
C119  C128  A    
C47   C146  A    
O5    Zn5   S    
C100  C109  A    
C58   C64   A    
O38   Zn4   S    
C109  C118  A    
O27   Zn3   S    
O43   Zn12  S    
C115  C123  A    
C29   O44   S    
C144  O13   A    
C127  C136  A    
O15   Zn9   S    
C35   H45   S    
C101  C110  A    
C120  C129  A    
C116  H15   S    
C9    C108  S    
C120  H19   S    
O6    Zn1   S    
C72   C151  S    
C91   O21   A    
C124  C130  S    
C137  O66   S    
C35   C45   A    
O21   Zn10  S    
C15   C30   A    
C16   C25   A    
O34   Zn7   S    
O17   Zn11  S    
H32   O54   S    
H33   O55   S    
C143  O11   A    
C133  O63   S    
C132  O62   S    
C76   C155  S    
O35   Zn12  S    
H27   O49   S    
C106  C115  A    
O36   Zn3   S    
C18   C38   A    
C136  C153  A    
C117  H16   S    
C80   C126  S    
C81   O54   S    
C84   C93   A    
C8    O42   A    
C86   C95   A    
C2    C40   A    
C126  C134  A    
C76   C85   A    
C91   O34   A    
C78   C87   A    
C122  H21   S    
C62   H12   S    
C123  C132  A    
C27   C29   A    
C6    C111  S    
C80   O20   A    
C58   C141  S    
C4    O38   A    
C121  C130  A    
C71   C79   A    
C99   I3    S    
C99   C108  A    
C79   O53   S    
C97   I1    S    
C11   O41   A    
C77   C86   A    
C144  O4    A    
C37   C40   A    
C102  C128  S    
C60   C143  S    
C38   C39   A    
C75   C84   A    
C71   C150  S    
C53   C62   A    
C9    O32   A    
C142  O2    A    
O39   Zn3   S    
O2    Zn8   S    
C20   C35   A    
C8    O31   A    
C2    C44   A    
C22   C25   A    
C30   C41   A    
H47   O69   S    
C44   C65   A    
C115  H14   S    
C26   C28   A    
C2    C45   A    
C24   C50   A    
C34   C39   A    
C104  C112  A    
C57   H50   S    
C149  O17   A    
C82   O55   S    
C103  I6    S    
C15   C67   A    
C51   C67   A    
C19   C28   A    
C94   H5    S    
C147  O6    A    
O9    Zn1   S    
C116  C125  A    
C73   C152  S    
C118  C127  A    
C69   O12   A    
C122  C131  A    
H29   O51   S    
O16   Zn10  S    
H30   O52   S    
C12   C70   A    
C32   C42   A    
C141  O72   A    
C108  C117  A    
C110  C119  A    
C59   C144  S    
C65   H51   S    
C5    C112  S    
C99   C152  A    
C7    C110  S    
O31   Zn12  S    
C134  O64   S    
C14   C22   A    
C69   O19   A    
C56   C142  S    
C112  C121  A    
C55   C148  S    
C101  C154  A    
C55   C61   A    
C90   H13   S    
C70   H4    S    
C107  C116  A    
C75   C89   A    
C143  O3    A    
H41   O63   S    
H42   O64   S    
C138  O68   S    
C51   C60   A    
C140  O70   S    
C124  O25   A    
C83   O57   S    
H35   O57   S    
C138  C155  A    
C34   C37   A    
C24   C42   A    
C13   C41   A    
O23   Zn6   S    
C78   C90   A    
O24   Zn1   S    
O71   Zn11  S    
C10   O40   A    
C80   O23   A    
C4    C114  S    
C148  O7    A    
O40   Zn12  S    
H39   O61   S    
C103  C111  A    
O19   Zn8   S    
C21   O52   S    
C22   O51   S    
C113  O24   A    
O72   Zn9   S    
C148  O16   A    
C149  O8    A    
C72   C81   A    
C81   C89   A    
O42   Zn2   S    
C69   C125  S    
C105  I8    S    
C130  C139  A    
O1    Zn1   S    
C79   C88   A    
C142  O10   A    
C98   C151  A    
H44   O66   S    
C54   C62   A    
C98   C107  A    
C85   O59   S    
O12   Zn5   S    
C86   O60   S    
C1    C123  S    
C61   H1    S    
C66   H52   S    
C18   C57   A    
C64   H34   S    
C1    O18   A    
C27   O47   S    
C11   C106  S    
C53   C145  S    
C102  O45   A    
C48   C68   A    
C136  O65   S    
C97   C106  A    
C103  C155  A    
C49   C70   A    
C9    O43   A    
O37   Zn4   S    
C16   C66   A    
C73   C82   A    
C46   C47   A    
H38   O60   S    
C104  I7    S    
O25   Zn7   S    
C6    O36   A    
C82   C90   A    
O11   Zn6   S    
C33   C41   A    
C36   C38   A    
C119  H18   S    
C43   C146  A    
C95   H8    S    
C92   H11   S    
C5    O39   A    
C93   H6    S    
C28   O46   S    
O33   Zn2   S    
C39   C146  A    
C137  C154  A    
C5    O28   A    
C43   C52   A    
H40   O62   S    
C20   C36   A    
H31   O53   S    
C14   C68   A    
C1    O1    A    
C73   C96   A    
C3    C78   S    
C77   C92   A    
H28   O50   S    
C6    O29   A    
C75   C154  S    
C71   C94   A    
C83   C92   A    
C98   I2    S    
C59   C64   A    
C113  C129  S    
C60   C63   A    
C17   C26   A    
C135  O26   A    
C131  C135  S    
O22   Zn5   S    
C121  H20   S    
C26   O48   S    
H43   O65   S    
C63   H23   S    
C139  O69   S    
C87   O61   S    
O14   Zn8   S    
O28   Zn4   S    
C129  C138  A    
C31   C33   A    
C68   H3    S    
C76   C88   A    
C15   C23   A    
C134  C152  A    
C12   C32   A    
C10   C107  S    
O41   Zn2   S    
O26   Zn6   S    
C54   C149  S    
C20   C29   A    
O29   Zn4   S    
C141  O9    A    
O30   Zn3   S    
C102  O22   A    
O10   Zn5   S    
C105  C114  A    
C36   C40   A    
O20   Zn11  S    
O4    Zn10  S    
C43   C57   A    
C12   C21   A    
C100  I4    S    
C11   O35   A    
C49   C58   A    
C74   C153  S    
C111  C120  A    
C128  C137  A    
H24   O46   S    
C85   C94   A    
H25   O47   S    
H26   O48   S    
C87   C96   A    
C56   C63   A    
C17   C37   A    
C104  C156  A    
C50   C66   A    
C89   H9    S    
H22   O44   S    
C45   C54   A    
C52   C147  S    
C88   H10   S    
O18   Zn9   S    
O8    Zn6   S    
C135  O71   A    
C72   C93   A    
C47   C55   A    
C124  O67   A    
C125  C133  A    
C24   C49   A    
C48   C56   A    
C74   C95   A    
C18   C27   A    
C19   C34   A    
C13   C48   A    
C25   O49   S    
H37   O59   S    
C23   O50   S    
C17   C65   A    
C96   H7    S    
O32   Zn2   S    
C10   O33   A    
C21   C23   A    
C8    C109  S    
C30   C32   A    
O67   Zn10  S    
C139  C156  A    
C67   H2    S    
C114  C122  A    
O45   Zn8   S    
C3    C140  A    
O56   Zn9   S    
C7    O37   A    
