data_mof_unit_pretest_1901.cif
_audit_creation_date              2012-12-10T19:58:44-0500
_audit_creation_method            fapswitch 2.2
_symmetry_space_group_name_H-M    P1
_symmetry_Int_Tables_number       1
_space_group_crystal_system       triclinic
_cell_length_a                    15.011159
_cell_length_b                    14.18306
_cell_length_c                    19.158369
_cell_angle_alpha                 89.865511
_cell_angle_beta                  90.29475
_cell_angle_gamma                 90.011524
_cell_volume                      4078.83134467

loop_
_atom_site_label
_atom_site_type_symbol
_atom_type_description
_atom_site_fract_x
_atom_site_fract_y
_atom_site_fract_z
_atom_type_partial_charge
C1    C     C_R   0.327795 0.499981 0.499929 0.867029
C2    C     C_R   0.672223 0.499993 0.499990 0.865367
C3    C     C_R   0.185938 0.578926 0.474867 -0.117883
C4    C     C_R   0.813651 0.420255 0.476059 -0.137426
C5    C     C_R   0.814340 0.579436 0.523256 -0.146192
C6    C     C_R   0.186230 0.420589 0.524142 -0.156589
C7    C     C_R   0.232034 0.499868 0.499685 -0.030420
C8    C     C_R   0.768022 0.499908 0.499778 -0.032766
C9    C     C_R   0.048133 0.499595 0.499193 0.102745
C10   C     C_R   0.951942 0.499700 0.499304 0.103897
C11   C     C_R   0.454979 0.105669 0.447844 -0.328729
C12   C     C_R   0.567903 0.894443 0.533630 -0.326998
C13   C     C_R   0.545362 0.105339 0.551907 -0.334315
C14   C     C_R   0.432176 0.894676 0.466358 -0.331407
C15   C     C_R   0.454761 0.204704 0.449350 0.696263
C16   C     C_R   0.565932 0.795414 0.533917 0.684860
C17   C     C_R   0.545604 0.204355 0.550394 0.691215
C18   C     C_R   0.434015 0.795652 0.466175 0.716996
C19   C     C_R   0.500106 0.053456 0.499914 0.031655
C20   C     C_R   0.500085 0.946608 0.499945 0.044308
C21   C     C_R   0.497963 0.500143 0.365489 1.036860
C22   C     C_R   0.497937 0.499981 0.634495 1.047553
C23   C     C_R   0.515185 0.425677 0.751009 0.530204
C24   C     C_R   0.434905 0.574084 0.259274 0.513483
C25   C     C_R   0.514388 0.425082 0.249606 0.536368
C26   C     C_R   0.432924 0.572878 0.739569 0.505680
C27   C     C_R   0.497597 0.424551 0.822093 0.523538
C28   C     C_R   0.417290 0.572567 0.188205 0.524118
C29   C     C_R   0.497113 0.424024 0.178323 0.532557
C30   C     C_R   0.415188 0.571417 0.810502 0.531881
C31   C     C_R   0.447900 0.497663 0.851961 -0.404747
C32   C     C_R   0.448823 0.497992 0.147492 -0.404055
C33   C     C_R   0.483518 0.500221 0.709493 -0.542058
C34   C     C_R   0.484022 0.500562 0.290322 -0.534464
C35   C     C_R   0.471247 0.579443 0.963417 -0.097170
C36   C     C_R   0.401142 0.425102 0.036014 -0.081949
C37   C     C_R   0.471662 0.579438 0.035648 -0.100689
C38   C     C_R   0.400832 0.425058 0.963510 -0.087653
C39   C     C_R   0.438221 0.501551 0.072057 0.251897
C40   C     C_R   0.437495 0.501515 0.927270 0.253922
C41   C     C_R   0.093984 0.578567 0.474243 -0.160633
C42   C     C_R   0.905615 0.420372 0.475449 -0.150982
C43   C     C_R   0.906295 0.579114 0.523399 -0.157851
C44   C     C_R   0.094261 0.420680 0.524273 -0.147616
H1    H     H_    0.500751 0.638280 0.935724 0.182508
H2    H     H_    0.374746 0.364888 0.063993 0.184230
H3    H     H_    0.501478 0.638295 0.063142 0.182108
H4    H     H_    0.374321 0.364764 0.935686 0.180728
H5    H     H_    0.058683 0.639361 0.453819 0.156195
H6    H     H_    0.940539 0.359147 0.455835 0.151672
H7    H     H_    0.941756 0.640246 0.542891 0.156445
H8    H     H_    0.059180 0.359822 0.544565 0.151321
H9    H     H_    0.220820 0.640214 0.455153 0.223196
H10   H     H_    0.778353 0.358655 0.457195 0.178005
H11   H     H_    0.779649 0.641089 0.542312 0.215874
H12   H     H_    0.221399 0.359360 0.543989 0.168534
H13   H     H_    0.420621 0.070988 0.405362 0.202812
H14   H     H_    0.623172 0.929144 0.559222 0.193775
H15   H     H_    0.579949 0.070428 0.594282 0.205265
H16   H     H_    0.376903 0.929573 0.440809 0.195800
N1    N     N_R   0.500000 0.252470 0.500000 -0.217811
N2    N     N_R   0.500000 0.747530 0.500000 -0.201864
O1    O     O_R   0.369060 0.579480 0.500010 -0.568374
O2    O     O_R   0.630940 0.420520 0.499990 -0.598506
O3    O     O_R   0.630940 0.579480 0.499990 -0.596116
O4    O     O_R   0.369060 0.420520 0.500010 -0.622393
O5    O     O_R   0.500020 0.579510 0.398180 -0.564822
O6    O     O_R   0.499980 0.420490 0.601820 -0.548693
O7    O     O_R   0.499980 0.579510 0.601820 -0.547887
O8    O     O_R   0.500020 0.420490 0.398180 -0.532033
Zn1   Zn    Zn3+2 0.500000 0.606140 0.500000 1.113367
Zn2   Zn    Zn3+2 0.500000 0.393860 0.500000 1.097543
F1    F     F_    0.565172 0.355532 0.723267 -0.526098
F2    F     F_    0.401657 0.646065 0.297837 -0.543118
F3    F     F_    0.562520 0.353714 0.278428 -0.566258
F4    F     F_    0.398560 0.643986 0.700167 -0.576915
F5    F     F_    0.532033 0.354275 0.862249 -0.569794
F6    F     F_    0.369064 0.643606 0.159011 -0.575214
F7    F     F_    0.530346 0.352809 0.138976 -0.571975
F8    F     F_    0.365878 0.641757 0.838865 -0.576841
F9    F     F_    0.409209 0.252952 0.399575 -0.606314
F10   F     F_    0.630501 0.747349 0.568476 -0.642576
F11   F     F_    0.592075 0.252234 0.599614 -0.565529
F12   F     F_    0.369117 0.747851 0.431970 -0.600051

loop_
_geom_bond_atom_site_label_1
_geom_bond_atom_site_label_2
_ccdc_geom_bond_type
C10   C42   A    
C14   C18   A    
C19   C20   S    
C4    C8    A    
C2    O3    A    
C43   H7    S    
C15   F9    S    
C11   C19   A    
C35   C37   A    
C29   C32   A    
C3    C7    A    
C30   C31   A    
C31   C40   S    
C32   C39   S    
O7    Zn1   S    
C17   N1    A    
C11   C15   A    
O4    Zn2   S    
C12   C16   A    
C23   C33   A    
C26   F4    S    
C36   H2    S    
C23   C27   A    
C37   H3    S    
C28   F6    S    
C9    C10   S    
C22   O7    A    
C38   H4    S    
C25   C34   A    
C30   F8    S    
C44   H8    S    
C5    C43   A    
C6    C44   A    
C21   O5    A    
C16   N2    A    
C23   F1    S    
C1    O1    A    
C41   H5    S    
C2    O2    A    
C25   C29   A    
C13   C19   A    
C27   C31   A    
C14   C20   A    
C28   C32   A    
C18   N2    A    
C21   C34   S    
O3    Zn1   S    
C24   C34   A    
C25   F3    S    
C26   C33   A    
C18   F12   S    
C29   F7    S    
O6    Zn2   S    
C12   C20   A    
C16   F10   S    
C1    O4    A    
C15   N1    A    
C22   O6    A    
C42   H6    S    
N1    Zn2   S    
O1    Zn1   S    
C26   C30   A    
C35   H1    S    
C22   C33   S    
C3    C41   A    
C9    C44   A    
C4    H10   S    
C10   C43   A    
C1    C7    S    
C5    H11   S    
C36   C39   A    
C2    C8    S    
C24   C28   A    
C6    H12   S    
C27   F5    S    
C5    C8    A    
C6    C7    A    
C13   H15   S    
C14   H16   S    
C9    C41   A    
C13   C17   A    
C21   O8    A    
C36   C38   A    
C35   C40   A    
C12   H14   S    
C37   C39   A    
C38   C40   A    
C3    H9    S    
C24   F2    S    
C4    C42   A    
N2    Zn1   S    
O5    Zn1   S    
O2    Zn2   S    
O8    Zn2   S    
C17   F11   S    
C11   H13   S    
