data_mof_unit_pretest_444.cif
_audit_creation_date              2013-03-05T15:59:40-0500
_audit_creation_method            fapswitch 2.2
_symmetry_space_group_name_H-M    P1
_symmetry_Int_Tables_number       1
_space_group_crystal_system       triclinic
_cell_length_a                    15.046565
_cell_length_b                    13.693755
_cell_length_c                    27.764567
_cell_angle_alpha                 90.020738
_cell_angle_beta                  89.485889
_cell_angle_gamma                 90.297225
_cell_volume                      5720.41418885

loop_
_atom_site_label
_atom_site_type_symbol
_atom_site_description
_atom_site_fract_x
_atom_site_fract_y
_atom_site_fract_z
_atom_type_partial_charge
O1    O     O_R   0.370260 0.582280 0.500010 -0.580981
O2    O     O_R   0.629740 0.417720 0.499990 -0.586012
O3    O     O_R   0.629740 0.582280 0.499990 -0.582588
O4    O     O_R   0.370260 0.417720 0.500010 -0.599081
C1    C     C_R   0.329060 0.499700 0.497575 0.821644
C2    C     C_R   0.671088 0.500302 0.501273 0.818314
O5    O     O_R   0.500020 0.582260 0.430260 -0.581790
O6    O     O_R   0.499980 0.417740 0.569740 -0.584790
O7    O     O_R   0.499980 0.582260 0.569740 -0.586667
O8    O     O_R   0.500020 0.417740 0.430260 -0.597916
C3    C     C_R   0.499259 0.499928 0.407361 0.807024
C4    C     C_R   0.500117 0.499933 0.592689 0.801094
Cu1   Cu    Cu3+1 0.500000 0.597420 0.500000 0.931875
Cu2   Cu    Cu3+1 0.500000 0.402580 0.500000 0.923728
C5    C     C_R   0.417788 0.518928 0.177668 0.520299
C6    C     C_R   0.576201 0.512084 0.822742 0.521227
O9    O     O_2   0.343111 0.541238 0.202512 -0.547095
O10   O     O_2   0.652919 0.525613 0.798030 -0.545757
N1    N     N_R   0.494142 0.498031 0.201825 -0.467864
N2    N     N_R   0.498250 0.500212 0.798452 -0.468004
C7    C     C_R   0.571330 0.476305 0.177849 0.532682
C8    C     C_R   0.419088 0.487763 0.822306 0.531934
C9    C     C_R   0.509612 0.584341 0.278221 -0.125627
C10   C     C_R   0.495659 0.586626 0.721629 -0.125127
C11   C     C_R   0.511163 0.585614 0.328307 -0.222593
C12   C     C_R   0.496409 0.587282 0.671537 -0.228002
C13   C     C_R   0.479261 0.411844 0.329638 -0.216976
C14   C     C_R   0.505209 0.410527 0.671003 -0.201861
C15   C     C_R   0.476808 0.409520 0.278975 0.182614
C16   C     C_R   0.505542 0.408733 0.721729 0.184829
C17   C     C_R   0.493063 0.497188 0.253476 0.313613
C18   C     C_R   0.499803 0.498336 0.746801 0.312340
C19   C     C_R   0.495187 0.492646 0.101720 -0.050043
C20   C     C_R   0.496166 0.494419 0.898553 -0.050048
C21   C     C_R   0.416727 0.516243 0.127142 -0.004410
C22   C     C_R   0.576731 0.509012 0.873255 -0.005003
C23   C     C_R   0.339583 0.537655 0.101596 -0.149961
C24   C     C_R   0.655576 0.521030 0.898903 -0.149422
C25   C     C_R   0.573299 0.473248 0.127313 -0.076769
C26   C     C_R   0.416575 0.484619 0.872848 -0.076745
C27   C     C_R   0.496696 0.499293 0.354382 -0.081640
C28   C     C_R   0.500565 0.499367 0.645782 -0.089496
H1    H     H_    0.467275 0.346165 0.350293 0.169653
H2    H     H_    0.508663 0.343269 0.650736 0.169281
H3    H     H_    0.279400 0.560199 0.120096 0.185645
H4    H     H_    0.717830 0.536684 0.880510 0.185846
C29   C     C_R   0.413172 0.484466 0.974904 -0.008663
C30   C     C_R   0.576549 0.474329 0.025295 -0.008559
C31   C     C_R   0.576991 0.490455 0.974735 0.052675
C32   C     C_R   0.414391 0.499470 0.025560 0.052784
C33   C     C_R   0.495353 0.489619 0.949519 0.049247
C34   C     C_R   0.495429 0.488598 0.050737 0.049251
C35   C     C_R   0.334270 0.465067 0.948130 0.131385
C36   C     C_R   0.652883 0.445230 0.051918 0.131185
C37   C     C_R   0.337013 0.467621 0.897884 -0.125434
C38   C     C_R   0.650495 0.447292 0.102164 -0.125618
O11   O     O_2   0.343273 0.477762 0.797125 -0.546815
O12   O     O_2   0.645691 0.457196 0.202910 -0.547150
C39   C     C_R   0.338766 0.530451 0.051636 -0.226510
C40   C     C_R   0.655483 0.512979 0.948825 -0.226430
H5    H     H_    0.493393 0.656609 0.652991 0.160254
H6    H     H_    0.524639 0.653941 0.346580 0.157183
H7    H     H_    0.491753 0.655025 0.741105 0.144483
H8    H     H_    0.521848 0.651247 0.258404 0.143034
H9    H     H_    0.276237 0.453113 0.878408 0.198033
H10   H     H_    0.709374 0.425447 0.121537 0.197726
H11   H     H_    0.279158 0.553369 0.033802 0.151014
H12   H     H_    0.717091 0.528502 0.966783 0.151126
C41   C     C_R   0.812343 0.446354 0.468417 -0.287085
C42   C     C_R   0.187736 0.552813 0.530142 -0.283586
C43   C     C_R   0.767510 0.501028 0.503199 -0.096505
C44   C     C_R   0.232722 0.499139 0.495041 -0.093262
C45   C     C_R   0.814279 0.556013 0.538143 0.087935
C46   C     C_R   0.186073 0.447637 0.458702 0.102049
C47   C     C_R   0.908602 0.556437 0.536200 0.088294
C48   C     C_R   0.091633 0.447032 0.460715 0.093912
C49   C     C_R   0.953221 0.501532 0.499921 0.037135
C50   C     C_R   0.046966 0.500836 0.497383 0.033475
C51   C     C_R   0.904406 0.446800 0.466235 0.116370
C52   C     C_R   0.095725 0.554369 0.531528 0.112845
C53   C     C_R   0.959923 0.609709 0.569472 -0.211177
C54   C     C_R   0.040221 0.394005 0.427354 -0.212858
C55   C     C_R   0.052088 0.608360 0.567140 -0.202019
C56   C     C_R   0.948054 0.393621 0.430330 -0.207384
H13   H     H_    0.774822 0.404697 0.442152 0.150932
H14   H     H_    0.225125 0.592758 0.557099 0.146172
H15   H     H_    0.930380 0.653308 0.597702 0.159105
H16   H     H_    0.069676 0.351752 0.398605 0.158784
H17   H     H_    0.089463 0.649872 0.593427 0.144997
H18   H     H_    0.910681 0.351722 0.404191 0.145331
C57   C     C_R   0.441445 0.792424 0.528534 0.024964
C58   C     C_R   0.560041 0.207687 0.472359 0.019089
C59   C     C_R   0.558638 0.792982 0.471491 0.005822
C60   C     C_R   0.439462 0.206986 0.527259 0.015654
N3    N     N_R   0.500000 0.743810 0.500000 -0.190902
N4    N     N_R   0.500000 0.256190 0.500000 -0.193511
C61   C     C_R   0.560197 0.896605 0.469838 -0.043767
C62   C     C_R   0.435817 0.103435 0.527463 -0.046472
C63   C     C_R   0.439325 0.896031 0.529813 -0.037270
C64   C     C_R   0.563495 0.104143 0.471854 -0.035284
C65   C     C_R   0.499747 0.948321 0.499783 0.001708
C66   C     C_R   0.499736 0.051754 0.499722 0.000467
C67   C     C_R   0.621089 0.948835 0.439639 0.121305
C68   C     C_R   0.370921 0.051299 0.555045 0.121560
C69   C     C_R   0.377665 0.947633 0.559612 0.129660
C70   C     C_R   0.627923 0.052742 0.443800 0.127648
H19   H     H_    0.396490 0.748478 0.549903 0.145224
H20   H     H_    0.604552 0.251649 0.450727 0.145848
H21   H     H_    0.604872 0.749447 0.450983 0.146490
H22   H     H_    0.395388 0.250381 0.549208 0.149527
C71   C     C_3   0.763758 0.609029 0.578212 -0.386882
C72   C     C_3   0.754881 0.718043 0.567484 -0.784673
H23   H     H_    0.821028 0.753503 0.563767 0.237826
H24   H     H_    0.717707 0.729466 0.533657 0.262755
H25   H     H_    0.717985 0.753985 0.597360 0.239124
H26   H     H_    0.696314 0.577790 0.583867 0.202908
H27   H     H_    0.796380 0.597957 0.613456 0.194439
C73   C     C_3   0.236146 0.399290 0.416900 -0.441576
C74   C     C_3   0.232409 0.461784 0.371397 -0.797431
H28   H     H_    0.162805 0.474272 0.360187 0.258653
H29   H     H_    0.265094 0.533494 0.377876 0.255288
H30   H     H_    0.268253 0.424337 0.341577 0.251610
H31   H     H_    0.307161 0.387420 0.424409 0.225685
H32   H     H_    0.209980 0.324771 0.409992 0.193908
C75   C     C_3   0.674850 0.894092 0.401438 -0.417973
C76   C     C_3   0.764243 0.860039 0.420825 -0.813538
H33   H     H_    0.805308 0.923156 0.432402 0.256428
H34   H     H_    0.754447 0.810376 0.452014 0.244566
H35   H     H_    0.800878 0.820045 0.392154 0.245902
H36   H     H_    0.637199 0.830651 0.387251 0.185442
H37   H     H_    0.684443 0.938414 0.368410 0.193112
C77   C     C_3   0.291827 0.105732 0.576775 -0.416926
C78   C     C_3   0.310729 0.141545 0.627814 -0.817826
H38   H     H_    0.325526 0.079501 0.652052 0.257467
H39   H     H_    0.368155 0.192647 0.627778 0.239143
H40   H     H_    0.251701 0.180554 0.642211 0.249331
H41   H     H_    0.272730 0.168434 0.553871 0.190773
H42   H     H_    0.230501 0.060622 0.576198 0.191990
C79   C     C_3   0.322606 0.892134 0.597489 -0.415082
C80   C     C_3   0.380916 0.857574 0.638942 -0.833269
H43   H     H_    0.436315 0.811297 0.625958 0.242711
H44   H     H_    0.409481 0.921470 0.658108 0.256266
H45   H     H_    0.340140 0.814407 0.664880 0.244449
H46   H     H_    0.269413 0.935720 0.614366 0.218842
H47   H     H_    0.286847 0.829809 0.580856 0.180595
C81   C     C_3   0.705327 0.108916 0.420247 -0.422736
C82   C     C_3   0.770471 0.147372 0.457927 -0.822481
H48   H     H_    0.738299 0.198601 0.483515 0.254948
H49   H     H_    0.798478 0.085542 0.478638 0.255454
H50   H     H_    0.825957 0.186719 0.439626 0.237280
H51   H     H_    0.745684 0.064818 0.395177 0.219626
H52   H     H_    0.680225 0.169398 0.397634 0.182224
C83   C     C_3   0.457442 0.316421 0.250862 -0.384060
C84   C     C_3   0.437635 0.225350 0.281079 -0.862634
H53   H     H_    0.495934 0.206204 0.303390 0.251072
H54   H     H_    0.378289 0.237132 0.304420 0.252422
H55   H     H_    0.423487 0.162838 0.256787 0.253169
H56   H     H_    0.399176 0.329369 0.227434 0.216837
H57   H     H_    0.515373 0.300190 0.227146 0.221840
C85   C     C_3   0.512131 0.314294 0.750415 -0.384136
C86   C     C_3   0.522974 0.220787 0.720862 -0.856345
H58   H     H_    0.463741 0.208238 0.698128 0.251530
H59   H     H_    0.583914 0.224810 0.698056 0.257492
H60   H     H_    0.529385 0.157560 0.745598 0.252198
H61   H     H_    0.570076 0.319958 0.774819 0.216770
H62   H     H_    0.451437 0.306152 0.773168 0.222960
N5    N     N_3   0.254110 0.426967 0.969561 -0.597919
H63   H     H_    0.208755 0.483593 0.974719 0.216385
H64   H     H_    0.266888 0.390193 0.001705 0.239077
N6    N     N_3   0.728418 0.398253 0.030266 -0.597723
H65   H     H_    0.779613 0.449202 0.025381 0.216641
H66   H     H_    0.711784 0.363978 0.997931 0.239277

loop_
_geom_bond_atom_site_label_1
_geom_bond_atom_site_label_2
_geom_bond_distance
_ccdc_geom_bond_type
C65   C66   1.416390 A    
C13   C15   1.407798 A    
C36   N6    1.435967 S    
C35   C37   1.395747 A    
C82   H48   1.108216 S    
C80   H45   1.110465 S    
O3    C2    1.286941 A    
N1    C17   1.434050 S    
C8    O11   1.349630 S    
C72   H24   1.108995 S    
C86   H58   1.109363 S    
N5    H64   1.044717 S    
C49   C50   1.411746 A    
C19   C34   1.416555 A    
C16   C85   1.523161 S    
C58   C64   1.419190 A    
C20   C33   1.416553 A    
C76   H33   1.109032 S    
C31   C40   1.410175 A    
C46   C48   1.421569 A    
Cu1   N3    2.004629 S    
O1    C1    1.288825 A    
C32   C39   1.410311 A    
C48   C50   1.422442 A    
C82   H49   1.110642 S    
C12   H5    1.081505 S    
C80   H44   1.110570 S    
C1    C44   1.451873 S    
C51   C56   1.395748 A    
C50   C52   1.407417 A    
N6    H65   1.044585 S    
C60   C62   1.418788 A    
C77   H42   1.107989 S    
C58   N4    1.356340 A    
C5    C21   1.403547 A    
C83   H56   1.111355 S    
C41   C43   1.393278 A    
O7    Cu1   1.947467 S    
C73   C74   1.527802 S    
C68   C69   1.429487 A    
C4    C28   1.474215 S    
C39   H11   1.076607 S    
C75   H36   1.108811 S    
C35   N5    1.435917 S    
C79   H47   1.109321 S    
C71   C72   1.529108 S    
C77   C78   1.527998 S    
C31   C33   1.419316 A    
C78   H40   1.110120 S    
C32   C34   1.419449 A    
C38   H10   1.084015 S    
C86   H59   1.110787 S    
C71   H26   1.109115 S    
C85   H62   1.110936 S    
C84   H54   1.111032 S    
O3    Cu1   1.964185 S    
C6    N2    1.367121 A    
C29   C35   1.430039 A    
C49   C51   1.407856 A    
C13   C27   1.405067 A    
C73   H32   1.109110 S    
C59   N3    1.356489 A    
Cu1   Cu2   2.668090 S    
C45   C47   1.419757 A    
O2    C2    1.288506 A    
C56   H18   1.084332 S    
C52   C55   1.395771 A    
C46   C73   1.530328 S    
Cu2   N4    2.004629 S    
C72   H23   1.109150 S    
C53   C55   1.387913 A    
C58   H20   1.077283 S    
C45   C71   1.527275 S    
C29   C32   1.421560 A    
C74   H29   1.111280 S    
C2    C43   1.452269 S    
C55   H17   1.084360 S    
C79   C80   1.530077 S    
C36   C38   1.395464 A    
C42   C52   1.384915 A    
C57   H19   1.077271 S    
C30   C36   1.429882 A    
C82   H50   1.110603 S    
C80   H43   1.107366 S    
C84   H55   1.110514 S    
C44   C46   1.419541 A    
O8    Cu2   1.947472 S    
C11   C27   1.401393 A    
N5    H63   1.044575 S    
C43   C45   1.417618 A    
C47   C53   1.410081 A    
C29   C33   1.419249 A    
C76   H35   1.110139 S    
C77   H41   1.109257 S    
C62   C66   1.418600 A    
C14   H2    1.080378 S    
C9    C17   1.399211 A    
C83   H57   1.111026 S    
C5    N1    1.367112 A    
C10   C18   1.398648 A    
C69   C79   1.532403 S    
C19   C25   1.405434 A    
C79   H46   1.101998 S    
C75   H37   1.107801 S    
O5    C3    1.294188 A    
C25   C38   1.397360 A    
C7    C25   1.403765 A    
C30   C34   1.419109 A    
O6    C4    1.293166 A    
C26   C37   1.397426 A    
C8    C26   1.404111 A    
C64   C66   1.419031 A    
C61   C67   1.426126 A    
C85   H61   1.111381 S    
C60   N4    1.355794 A    
C47   C49   1.422375 A    
C84   H53   1.110941 S    
C23   C39   1.390743 A    
C24   C40   1.390471 A    
C9    H8    1.082970 S    
C63   C65   1.419337 A    
N2    C8    1.367589 A    
C10   H7    1.082948 S    
C54   C56   1.388506 A    
O8    C3    1.292974 A    
C78   H38   1.108764 S    
C81   H52   1.109366 S    
C41   C51   1.385996 A    
O1    Cu1   1.962047 S    
C48   C54   1.410740 A    
C42   H14   1.086245 S    
C59   C61   1.419812 A    
C86   H60   1.110459 S    
C41   H13   1.086120 S    
C76   H34   1.109601 S    
C12   C28   1.401409 A    
C15   C83   1.522800 S    
C81   C82   1.531428 S    
N2    C18   1.434277 S    
C74   H30   1.110794 S    
C5    O9    1.349502 S    
C30   C31   1.421062 A    
O6    Cu2   1.947318 S    
C14   C28   1.406275 A    
C21   C23   1.398157 A    
C37   H9    1.084005 S    
C10   C12   1.390765 A    
O4    C1    1.287306 A    
C74   H28   1.109380 S    
C11   H6    1.083274 S    
C64   C70   1.426551 A    
C70   C81   1.534028 S    
C71   H27   1.109462 S    
C85   C86   1.529204 S    
C22   C24   1.398085 A    
C7    O12   1.349688 S    
C15   C17   1.413049 A    
C6    C22   1.403213 A    
C16   C18   1.413141 A    
C53   H15   1.079138 S    
C75   C76   1.528413 S    
N6    H66   1.044719 S    
C54   H16   1.079023 S    
C14   C16   1.408677 A    
C19   C21   1.408959 A    
C60   H22   1.077427 S    
C3    C27   1.471803 S    
C67   C70   1.430754 A    
C20   C22   1.408938 A    
C73   H31   1.103389 S    
C9    C11   1.391123 A    
O4    Cu2   1.964186 S    
O2    Cu2   1.962046 S    
C63   C69   1.427309 A    
C24   H4    1.083315 S    
O7    C4    1.295182 A    
C57   N3    1.356552 A    
C81   H51   1.101709 S    
C13   H1    1.080357 S    
O5    Cu1   1.947323 S    
C40   H12   1.076686 S    
C6    O10   1.349521 S    
C68   C77   1.527069 S    
C78   H39   1.109058 S    
C20   C26   1.405388 A    
C42   C44   1.393188 A    
C57   C63   1.419711 A    
C83   C84   1.529822 S    
C67   C75   1.526958 S    
C23   H3    1.083320 S    
C62   C68   1.424555 A    
C72   H25   1.110303 S    
C61   C65   1.418726 A    
C59   H21   1.077272 S    
N1    C7    1.367511 A    
