data_mof_unit_pretest_1140.cif
_audit_creation_date              2012-12-10T17:52:16-0500
_audit_creation_method            fapswitch 2.2
_symmetry_space_group_name_H-M    P1
_symmetry_Int_Tables_number       1
_space_group_crystal_system       triclinic
_cell_length_a                    18.972909
_cell_length_b                    10.729676
_cell_length_c                    9.927948
_cell_angle_alpha                 89.386847
_cell_angle_beta                  89.942699
_cell_angle_gamma                 95.571484
_cell_volume                      2011.39658506

loop_
_atom_site_label
_atom_site_type_symbol
_atom_type_description
_atom_site_fract_x
_atom_site_fract_y
_atom_site_fract_z
_atom_type_partial_charge
C1    C     C_R   0.503957 0.260821 0.501284 0.867410
C2    C     C_R   0.844074 0.384431 0.491808 0.087687
C3    C     C_R   0.590096 0.142245 0.708071 -0.178781
C4    C     C_R   0.364764 0.504166 0.500307 0.879181
C5    C     C_R   0.629839 0.083345 0.802478 -0.163698
C6    C     C_R   0.641813 0.959350 0.785563 -0.169717
C7    C     C_R   0.612428 0.892716 0.675834 0.009616
C8    C     C_R   0.560979 0.944207 0.593494 0.057475
C9    C     C_R   0.553509 0.073478 0.603543 0.090940
C10   C     C_R   0.512875 0.129583 0.503536 -0.101550
C11   C     C_R   0.481617 0.059795 0.398035 -0.199083
C12   C     C_R   0.286130 0.494226 0.500297 -0.137872
C13   C     C_R   0.483100 0.933319 0.396339 -0.210251
C14   C     C_R   0.519498 0.874299 0.495982 -0.118594
C15   C     C_R   0.410354 0.302866 0.129825 0.000420
C16   C     C_R   0.507906 0.740051 0.499290 0.885840
C17   C     C_R   0.379779 0.205424 0.049379 -0.226226
C18   C     C_R   0.381456 0.214666 0.912017 -0.206693
C19   C     C_R   0.416236 0.318754 0.852314 -0.118818
C20   C     C_R   0.458178 0.408757 0.926181 0.157958
C21   C     C_R   0.456778 0.406090 0.071484 0.132207
C22   C     C_R   0.540277 0.587395 0.070474 -0.112845
C23   C     C_R   0.919711 0.368038 0.490047 0.289855
C24   C     C_R   0.540266 0.587260 0.927681 -0.104149
C25   C     C_R   0.633727 0.489749 0.499663 0.872434
C26   C     C_R   0.247125 0.469815 0.621525 -0.021437
C27   C     C_R   0.175045 0.431779 0.616436 -0.197256
C28   C     C_R   0.139487 0.422489 0.493306 0.050071
C29   C     C_R   0.176019 0.458145 0.374499 -0.195453
C30   C     C_R   0.248227 0.496319 0.377076 -0.009682
C31   C     C_1   0.277490 0.488517 0.753872 0.195035
C32   C     C_1   0.654115 0.798370 0.626306 0.136305
C33   C     C_1   0.379520 0.287221 0.261437 0.257900
C34   C     C_R   0.062764 0.389688 0.490817 0.310506
C35   C     C_1   0.280688 0.542196 0.252047 0.195355
C36   C     C_R   0.807973 0.389003 0.614946 -0.156204
C37   C     C_R   0.739753 0.425662 0.618026 -0.189085
C38   C     C_R   0.706784 0.457911 0.498032 -0.012332
C39   C     C_R   0.741910 0.449102 0.374669 -0.187191
C40   C     C_R   0.809902 0.412247 0.371524 -0.162994
H1    H     H_    0.591402 0.241995 0.718553 0.177168
H2    H     H_    0.573326 0.658745 0.873325 0.146686
H3    H     H_    0.148110 0.458477 0.279241 0.156801
H4    H     H_    0.833026 0.367837 0.709314 0.149539
H5    H     H_    0.712986 0.428861 0.714173 0.151245
H6    H     H_    0.717109 0.471268 0.280315 0.157206
H7    H     H_    0.836358 0.409515 0.275049 0.151129
H8    H     H_    0.452960 0.101709 0.318548 0.165442
H9    H     H_    0.656421 0.137000 0.882600 0.144927
H10   H     H_    0.680165 0.919639 0.850041 0.140033
H11   H     H_    0.453218 0.880996 0.318865 0.173771
H12   H     H_    0.573298 0.658869 0.123163 0.144002
H13   H     H_    0.348061 0.125008 0.092771 0.154351
H14   H     H_    0.352127 0.144041 0.851498 0.163787
H15   H     H_    0.407371 0.327377 0.747384 0.211350
H16   H     H_    0.146379 0.411497 0.709937 0.157444
N1    N     N_R   0.026774 0.390990 0.373072 -0.175437
N2    N     N_1   0.306724 0.579563 0.152248 -0.180534
N3    N     N_R   0.956517 0.380525 0.372741 -0.177346
N4    N     N_R   0.955669 0.360608 0.607266 -0.176557
N5    N     N_R   0.025929 0.370999 0.607587 -0.175780
N6    N     N_R   0.499340 0.498800 0.142780 -0.118090
N7    N     N_R   0.499320 0.498720 0.857170 -0.125080
N8    N     N_1   0.301077 0.504480 0.860369 -0.178485
N9    N     N_1   0.691265 0.727905 0.586815 -0.213534
N10   N     N_1   0.351623 0.263711 0.363741 -0.240414
O1    O     O_R   0.500000 0.316780 0.614690 -0.662306
O2    O     O_R   0.499990 0.316750 0.385360 -0.620151
O3    O     O_R   0.398140 0.500000 0.614700 -0.624482
O4    O     O_R   0.398130 0.499970 0.385370 -0.599546
O5    O     O_R   0.500010 0.683250 0.614640 -0.605230
O6    O     O_R   0.500000 0.683220 0.385310 -0.618852
O7    O     O_R   0.601870 0.500030 0.614630 -0.626148
O8    O     O_R   0.601860 0.500000 0.385300 -0.625038
Zn1   Zn    Zn3+2 0.500000 0.500020 0.653130 0.941271
Zn2   Zn    Zn3+2 0.500000 0.499980 0.346870 0.960573

loop_
_geom_bond_atom_site_label_1
_geom_bond_atom_site_label_2
_ccdc_geom_bond_type
C40   H7    S    
C24   H2    S    
C19   C20   A    
C16   O6    A    
O6    Zn2   S    
C5    H9    S    
C4    O4    A    
C7    C8    A    
C23   N3    A    
C26   C27   A    
C29   C30   A    
O8    Zn2   S    
C30   C35   S    
C35   N2    T    
C28   C29   A    
C18   C19   A    
C5    C6    A    
N1    N3    A    
C19   H15   S    
C1    O2    A    
C25   O8    A    
C13   H11   S    
C3    H1    S    
C8    C9    A    
C34   N1    A    
C14   C16   S    
C4    C12   S    
C9    C10   A    
C28   C34   S    
C26   C31   S    
C13   C14   A    
C29   H3    S    
O7    Zn1   S    
N6    Zn2   S    
C11   H8    S    
C16   O5    A    
C4    O3    A    
C33   N10   T    
C23   N4    A    
C39   C40   A    
C27   H16   S    
C34   N5    A    
C12   C26   A    
N4    N5    A    
C37   C38   A    
C3    C9    A    
C25   C38   S    
C22   N6    A    
C17   C18   A    
C6    H10   S    
C21   N6    A    
C39   H6    S    
C24   N7    A    
O4    Zn2   S    
C22   C24   A    
C36   H4    S    
O1    Zn1   S    
C37   H5    S    
C17   H13   S    
C27   C28   A    
C22   H12   S    
C2    C36   A    
C15   C17   A    
C36   C37   A    
C8    C14   A    
C7    C32   S    
C12   C30   A    
C31   N8    T    
C1    C10   S    
C3    C5    A    
C6    C7    A    
O2    Zn2   S    
C20   N7    A    
O5    Zn1   S    
C11   C13   A    
C38   C39   A    
N7    Zn1   S    
C1    O1    A    
O3    Zn1   S    
C25   O7    A    
C10   C11   A    
C18   H14   S    
C2    C40   A    
C15   C21   A    
C20   C21   A    
C2    C23   S    
C15   C33   S    
C32   N9    T    
