data_mof_unit_pretest_1159.cif
_audit_creation_date              2012-12-10T19:25:49-0500
_audit_creation_method            fapswitch 2.2
_symmetry_space_group_name_H-M    P1
_symmetry_Int_Tables_number       1
_space_group_crystal_system       triclinic
_cell_length_a                    9.748409
_cell_length_b                    10.499695
_cell_length_c                    16.675363
_cell_angle_alpha                 89.85522
_cell_angle_beta                  84.7581
_cell_angle_gamma                 90.275768
_cell_volume                      1699.64676877

loop_
_atom_site_label
_atom_site_type_symbol
_atom_type_description
_atom_site_fract_x
_atom_site_fract_y
_atom_site_fract_z
_atom_type_partial_charge
C1    C     C_R   0.500472 0.742610 0.499832 0.845429
C2    C     C_R   0.499526 0.257479 0.500409 0.857783
C3    C     C_3   0.447527 0.958409 0.433381 -0.192978
C4    C     C_3   0.552729 0.042082 0.567304 -0.187259
C5    C     C_3   0.576716 0.043605 0.434775 -0.172559
C6    C     C_3   0.423512 0.956711 0.565940 -0.172571
C7    C     C_3   0.498687 0.122441 0.500654 0.031559
C8    C     C_3   0.501458 0.877795 0.499960 0.036575
C9    C     C_3   0.369349 0.039865 0.499319 -0.140887
C10   C     C_3   0.630877 0.960446 0.501371 -0.137505
C11   C     C_3   0.944263 0.586315 0.547846 -0.065456
C12   C     C_3   0.055724 0.413695 0.452168 -0.064232
C13   C     C_3   0.052908 0.608930 0.476581 -0.079266
C14   C     C_3   0.947095 0.391093 0.523452 -0.076790
C15   C     C_3   0.037231 0.477384 0.571348 -0.072778
C16   C     C_3   0.962770 0.522657 0.428664 -0.072083
C17   C     C_R   0.480460 0.499676 0.653382 0.849734
C18   C     C_R   0.519485 0.509396 0.347087 0.850824
C19   C     C_R   0.468470 0.517747 0.740205 -0.117755
C20   C     C_R   0.533396 0.553727 0.263679 -0.105091
C21   C     C_R   0.574509 0.477622 0.786695 0.213282
C22   C     C_R   0.435217 0.637883 0.234954 0.205633
C23   C     C_R   0.572460 0.521261 0.866069 -0.178613
C24   C     C_R   0.458236 0.684004 0.156060 -0.189275
C25   C     C_R   0.467364 0.602352 0.898232 0.151771
C26   C     C_R   0.572627 0.643946 0.105839 0.153498
C27   C     C_R   0.358286 0.633186 0.853427 -0.186150
C28   C     C_R   0.672366 0.567096 0.136174 -0.175552
C29   C     C_R   0.358971 0.591588 0.774649 -0.241250
C30   C     C_R   0.653115 0.522530 0.214773 -0.244028
C31   C     C_2   0.462396 0.643756 0.981868 -0.220032
C32   C     C_2   0.577442 0.661560 0.018755 -0.232488
H1    H     H_    0.892181 0.658891 0.588084 0.121339
H2    H     H_    0.107786 0.341080 0.411955 0.119820
H3    H     H_    0.073389 0.458321 0.631441 0.123376
H4    H     H_    0.926570 0.541825 0.368595 0.123598
H5    H     H_    0.730288 0.460895 0.236848 0.156531
H6    H     H_    0.277109 0.622486 0.739424 0.161661
H7    H     H_    0.677576 0.660892 0.984261 0.147020
H8    H     H_    0.361691 0.643162 0.015657 0.149749
H9    H     H_    0.274324 0.692038 0.878858 0.133306
H10   H     H_    0.761336 0.535759 0.097688 0.129573
H11   H     H_    0.386149 0.748999 0.132420 0.142895
H12   H     H_    0.649909 0.489669 0.903922 0.141561
H13   H     H_    0.638906 0.083712 0.381445 0.130718
H14   H     H_    0.361360 0.916486 0.619253 0.130310
H15   H     H_    0.405043 0.922139 0.378351 0.126582
H16   H     H_    0.595323 0.081162 0.621715 0.124594
H17   H     H_    0.262647 0.076080 0.498502 0.136391
H18   H     H_    0.737557 0.924160 0.502153 0.135734
H19   H     H_    0.102442 0.700660 0.457000 0.122491
H20   H     H_    0.897569 0.299492 0.543341 0.121886
N1    N     N_3   0.136700 0.499970 0.500060 -0.071079
N2    N     N_3   0.863300 0.500030 0.499940 -0.071625
O1    O     O_R   0.383390 0.686040 0.500000 -0.632496
O2    O     O_R   0.616610 0.313960 0.500000 -0.623645
O3    O     O_R   0.616650 0.686050 0.499970 -0.622595
O4    O     O_R   0.383350 0.313950 0.500030 -0.623136
O5    O     O_R   0.369590 0.500020 0.615820 -0.620557
O6    O     O_R   0.630410 0.499980 0.384180 -0.619141
O7    O     O_R   0.602840 0.500020 0.615790 -0.592901
O8    O     O_R   0.397160 0.499980 0.384210 -0.596686
Zn1   Zn    Zn3+2 0.344250 0.499990 0.500020 0.934817
Zn2   Zn    Zn3+2 0.655750 0.500010 0.499980 0.939875
N3    N     N_2   0.679613 0.393626 0.752512 -0.285029
H21   H     H_    0.645026 0.318937 0.719535 0.215261
C33   C     C_3   0.798854 0.365530 0.795058 -0.824863
H22   H     H_    0.874313 0.310710 0.755077 0.236122
H23   H     H_    0.768203 0.307153 0.849457 0.235618
H24   H     H_    0.849840 0.455171 0.811911 0.243958
N4    N     N_2   0.317766 0.677607 0.286569 -0.282698
H25   H     H_    0.340187 0.719459 0.339625 0.229464
C34   C     C_3   0.198367 0.729170 0.252529 -0.835221
H26   H     H_    0.110704 0.732947 0.299867 0.235853
H27   H     H_    0.167846 0.667205 0.203181 0.249260
H28   H     H_    0.220248 0.827487 0.230008 0.230819

loop_
_geom_bond_atom_site_label_1
_geom_bond_atom_site_label_2
_ccdc_geom_bond_type
C25   C31   S    
C26   C32   S    
C27   C29   A    
C1    C8    S    
C11   C13   S    
C34   H26   S    
C2    C7    S    
C6    C9    S    
C20   C30   A    
C15   N1    S    
C19   C21   A    
C24   C26   A    
C31   H8    S    
C32   H7    S    
C28   H10   S    
C17   O7    A    
C13   H19   S    
C11   C15   S    
C14   H20   S    
C12   C16   S    
N3    C33   S    
O1    Zn1   S    
C29   H6    S    
O2    Zn2   S    
C12   N1    S    
C34   H27   S    
C4    C7    S    
C15   H3    S    
C13   N1    S    
C33   H22   S    
C11   H1    S    
C9    H17   S    
C4    C6    S    
C3    C8    S    
C5    C7    S    
C18   O8    A    
C6    C8    S    
C5    H13   S    
C23   H12   S    
C30   H5    S    
C33   H23   S    
O7    Zn2   S    
O8    Zn1   S    
C3    C9    S    
C1    O3    A    
C27   H9    S    
C31   C32   D    
C11   N2    S    
C17   O5    A    
C18   O6    A    
C14   N2    S    
C12   C14   S    
C21   C23   A    
C34   H28   S    
C22   C24   A    
C4    C10   S    
C19   C29   A    
C22   N4    S    
O3    Zn2   S    
N4    C34   S    
C4    H16   S    
O4    Zn1   S    
C7    C9    S    
C6    H14   S    
C21   N3    S    
C26   C28   A    
C20   C22   A    
C3    C5    S    
C2    O4    A    
C25   C27   A    
O5    Zn1   S    
O6    Zn2   S    
C33   H24   S    
C28   C30   A    
C1    O1    A    
N4    H25   S    
C2    O2    A    
C16   H4    S    
N1    Zn1   S    
N2    Zn2   S    
C3    H15   S    
C17   C19   S    
C18   C20   S    
C23   C25   A    
C16   N2    S    
C5    C10   S    
C8    C10   S    
N3    H21   S    
C13   C16   S    
C24   H11   S    
C14   C15   S    
C12   H2    S    
C10   H18   S    
