data_mof_unit_pretest_673.cif
_audit_creation_date              2012-12-10T19:07:02-0500
_audit_creation_method            fapswitch 2.2
_symmetry_space_group_name_H-M    P1
_symmetry_Int_Tables_number       1
_space_group_crystal_system       triclinic
_cell_length_a                    27.732336
_cell_length_b                    10.824874
_cell_length_c                    9.534842
_cell_angle_alpha                 90.238976
_cell_angle_beta                  89.736788
_cell_angle_gamma                 89.638358
_cell_volume                      2862.23797733

loop_
_atom_site_label
_atom_site_type_symbol
_atom_type_description
_atom_site_fract_x
_atom_site_fract_y
_atom_site_fract_z
_atom_type_partial_charge
C1    C     C_R   0.498905 0.262369 0.499615 0.831445
C2    C     C_R   0.278707 0.493655 0.371673 0.639190
C3    C     C_R   0.252736 0.506967 0.497187 0.005997
C4    C     C_R   0.100760 0.519895 0.493142 -0.055633
C5    C     C_R   0.125180 0.407300 0.470869 -0.095375
C6    C     C_R   0.098750 0.298907 0.452051 -0.248278
C7    C     C_R   0.127410 0.628206 0.517260 -0.020255
C8    C     C_R   0.354056 0.501405 0.500879 -0.352783
C9    C     C_R   0.645018 0.512854 0.498329 -0.195042
C10   C     C_R   0.973135 0.430095 0.431893 0.021849
C11   C     C_R   0.974280 0.635561 0.542954 -0.062449
C12   C     C_R   0.407317 0.500177 0.500383 0.909326
C13   C     C_R   0.948340 0.535316 0.484467 0.005644
C14   C     C_R   0.947209 0.343631 0.352114 -0.220352
C15   C     C_R   0.897189 0.350790 0.339275 0.448332
C16   C     C_R   0.871437 0.444930 0.410521 -0.122630
C17   C     C_R   0.897249 0.539354 0.479548 -0.114418
C18   C     C_R   0.871961 0.637407 0.544444 -0.077789
C19   C     C_R   0.821340 0.636945 0.545176 0.605174
C20   C     C_R   0.820645 0.448712 0.414104 0.630724
C21   C     C_R   0.723920 0.451155 0.582926 0.542963
C22   C     C_R   0.673737 0.434571 0.581284 0.407047
C23   C     C_R   0.498533 0.737361 0.500146 0.807397
C24   C     C_R   0.666782 0.601003 0.411610 -0.329562
C25   C     C_R   0.716785 0.612722 0.408588 -0.190884
C26   C     C_R   0.745449 0.537655 0.493797 0.187483
C27   C     C_R   0.023429 0.417298 0.455027 -0.015584
C28   C     C_R   0.049751 0.524256 0.492191 0.015968
C29   C     C_R   0.025381 0.635808 0.528447 0.063784
C30   C     C_R   0.048004 0.301594 0.443826 0.424246
C31   C     C_R   0.103095 0.740143 0.539743 -0.166015
C32   C     C_R   0.947866 0.729647 0.615463 0.397622
C33   C     C_R   0.897537 0.730998 0.612146 -0.208375
C34   C     C_R   0.592388 0.502556 0.499648 0.866789
C35   C     C_R   0.053008 0.743990 0.545013 -0.177752
C36   C     C_R   0.495692 0.063841 0.624143 -0.055713
C37   C     C_R   0.494418 0.129353 0.498654 -0.204310
C38   C     C_R   0.486202 0.063190 0.372972 0.595254
C39   C     C_R   0.485976 0.934195 0.374196 -0.270097
C40   C     C_R   0.494081 0.870076 0.499975 -0.187074
C41   C     C_R   0.496185 0.937469 0.624338 0.007065
C42   C     C_3   0.525659 0.932728 0.756484 0.308508
C43   C     C_3   0.525367 0.074269 0.754493 -0.415577
C44   C     C_R   0.527205 0.583086 0.073924 0.144159
C45   C     C_R   0.175845 0.404969 0.473191 0.677456
C46   C     C_R   0.469937 0.425498 0.075273 -0.137136
C47   C     C_R   0.469508 0.424427 0.923927 0.583133
C48   C     C_R   0.527773 0.581785 0.926593 0.068135
C49   C     C_3   0.581597 0.590493 0.923908 0.445456
C50   C     C_3   0.580531 0.596559 0.082371 -0.494378
C51   C     C_R   0.177969 0.622029 0.516756 0.652562
C52   C     C_R   0.277328 0.516767 0.624686 0.538138
C53   C     C_R   0.327641 0.514213 0.627015 0.502571
C54   C     C_R   0.328975 0.490864 0.373518 -0.367597
Cu1   Cu    Cu3+1 0.500000 0.499980 0.640670 1.071435
Cu2   Cu    Cu3+1 0.500000 0.500020 0.359330 0.978676
H1    H     H_    0.348207 0.480721 0.274964 0.227640
H2    H     H_    0.122686 0.825548 0.553798 0.189603
H3    H     H_    0.644995 0.660989 0.346573 0.179799
H4    H     H_    0.878607 0.804694 0.667013 0.205536
H5    H     H_    0.733323 0.679299 0.339242 0.181985
H6    H     H_    0.036708 0.834048 0.556269 0.205224
H7    H     H_    0.481529 0.885197 0.275855 0.192630
H8    H     H_    0.504125 0.895763 0.845380 0.116146
H9    H     H_    0.504420 0.115467 0.842850 0.201506
H10   H     H_    0.561002 0.117698 0.736033 0.212514
H11   H     H_    0.447157 0.365339 0.136095 0.159649
H12   H     H_    0.595446 0.675155 0.873116 0.130911
H13   H     H_    0.598778 0.516366 0.132110 0.255107
H14   H     H_    0.590976 0.688383 0.124605 0.145353
H15   H     H_    0.117783 0.211518 0.447505 0.183793
H16   H     H_    0.965498 0.272233 0.292893 0.185131
N1    N     N_R   0.201043 0.511464 0.495244 -0.413478
N2    N     N_R   0.796971 0.542414 0.482796 -0.439382
N3    N     N_R   0.500300 0.500930 0.147930 -0.182050
N4    N     N_R   0.500310 0.500890 0.852020 -0.196260
O1    O     O_R   0.500000 0.319640 0.618810 -0.535295
O2    O     O_2   0.794844 0.359065 0.351228 -0.484117
O3    O     O_2   0.203911 0.725539 0.537436 -0.502029
O4    O     O_2   0.796636 0.728905 0.609720 -0.536824
O5    O     O_R   0.500010 0.319680 0.381230 -0.530428
O6    O     O_R   0.430260 0.500000 0.618780 -0.488776
O7    O     O_R   0.430270 0.500040 0.381190 -0.601622
O8    O     O_R   0.499990 0.680320 0.618770 -0.585774
O9    O     O_R   0.500000 0.680360 0.381190 -0.592279
O10   O     O_R   0.569730 0.499960 0.618810 -0.502493
O11   O     O_R   0.569740 0.500000 0.381220 -0.601675
O12   O     O_2   0.199782 0.297232 0.453969 -0.507708
F1    F     F_    0.252309 0.528896 0.746695 -0.571681
O13   O     O_3   0.970097 0.817886 0.697428 -0.593340
C55   C     C_3   0.977835 0.768133 0.832208 0.065013
H17   H     H_    0.000977 0.683672 0.826710 0.155109
H18   H     H_    0.942907 0.745068 0.883781 0.145966
C56   C     C_3   0.003408 0.863293 0.922492 -0.744973
H19   H     H_    0.980786 0.947897 0.933077 0.249487
H20   H     H_    0.010044 0.824655 0.028397 0.195683
H21   H     H_    0.038522 0.887877 0.873892 0.258095
F2    F     F_    0.480467 0.121560 0.248329 -0.678604
F3    F     F_    0.255196 0.484603 0.247597 -0.591776
O14   O     O_3   0.572540 0.877381 0.752598 -0.584471
C57   C     C_3   0.598230 0.890428 0.624908 0.067473
H22   H     H_    0.593123 0.982493 0.576669 0.145654
H23   H     H_    0.587145 0.818068 0.549416 0.142428
C58   C     C_3   0.651723 0.870809 0.652318 -0.749199
H24   H     H_    0.658237 0.775390 0.690647 0.260032
H25   H     H_    0.672526 0.884265 0.553810 0.213662
H26   H     H_    0.664479 0.937481 0.732506 0.250553
O15   O     O_3   0.440611 0.346894 0.843098 -0.540125
C59   C     C_3   0.408073 0.273729 0.920095 0.031447
H27   H     H_    0.383115 0.332865 0.983354 0.186458
H28   H     H_    0.427947 0.207588 0.988089 0.166391
C60   C     C_3   0.377945 0.198720 0.818046 -0.653560
H29   H     H_    0.401664 0.137619 0.753760 0.229781
H30   H     H_    0.351965 0.140799 0.876983 0.217803
H31   H     H_    0.357606 0.261342 0.747449 0.265127
F4    F     F_    0.603405 0.482441 0.877317 -0.591654
O16   O     O_3   0.652221 0.342697 0.660141 -0.504504
C61   C     C_3   0.663377 0.224907 0.602540 0.107529
H32   H     H_    0.651679 0.154603 0.679542 0.176235
H33   H     H_    0.702732 0.210019 0.586587 0.201004
C62   C     C_3   0.636594 0.200884 0.465262 -0.883592
H34   H     H_    0.648749 0.265374 0.382309 0.258349
H35   H     H_    0.644146 0.105295 0.428403 0.223791
H36   H     H_    0.597264 0.212299 0.481897 0.240364
F5    F     F_    0.751968 0.381945 0.669049 -0.650101
O17   O     O_3   0.873725 0.260475 0.263145 -0.529503
C63   C     C_3   0.876397 0.290827 0.119412 0.059383
H37   H     H_    0.914462 0.289570 0.081589 0.117917
H38   H     H_    0.860203 0.383655 0.099643 0.155769
C64   C     C_3   0.848400 0.195944 0.035117 -0.650143
H39   H     H_    0.810046 0.195786 0.069202 0.272422
H40   H     H_    0.850162 0.219043 0.921836 0.213490
H41   H     H_    0.864140 0.102435 0.050855 0.231480
O18   O     O_3   0.021343 0.192875 0.450786 -0.571168
C65   C     C_3   0.040596 0.097541 0.364873 0.043456
H42   H     H_    0.069004 0.046328 0.422967 0.161871
H43   H     H_    0.055645 0.133519 0.264440 0.145516
C66   C     C_3   0.000788 0.006509 0.329236 -0.759938
H44   H     H_    0.973607 0.050847 0.260360 0.242673
H45   H     H_    0.016413 0.925185 0.273662 0.198116
H46   H     H_    0.982651 0.974649 0.426538 0.278231
F6    F     F_    0.350169 0.525581 0.752495 -0.596228

loop_
_geom_bond_atom_site_label_1
_geom_bond_atom_site_label_2
_ccdc_geom_bond_type
C10   C27   A    
C65   C66   S    
C21   C26   A    
O17   C63   S    
C49   H12   S    
C22   O16   S    
C1    O1    A    
C41   C42   S    
C48   N4    A    
C38   F2    S    
C43   H9    S    
C60   H30   S    
C52   F1    S    
C65   H42   S    
C57   H22   S    
C31   H2    S    
C16   C20   A    
C50   H13   S    
C47   N4    A    
C18   C19   A    
C59   H28   S    
C5    C6    A    
Cu1   O1    S    
C9    C22   A    
C1    O5    A    
C15   C16   A    
O15   C59   S    
C45   N1    A    
C53   F6    S    
C34   O10   A    
C61   H32   S    
C46   N3    A    
C62   H36   S    
C32   O13   S    
C16   C17   A    
C30   O18   S    
C15   O17   S    
C1    C37   S    
C57   H23   S    
Cu2   N3    S    
C43   H10   S    
C21   C22   A    
C27   C30   A    
C36   C41   A    
C56   H19   S    
C4    C7    A    
C58   H25   S    
C58   H24   S    
C4    C28   A    
C61   H33   S    
C6    H15   S    
C7    C31   A    
C23   O8    A    
C12   O6    A    
Cu2   O5    S    
C45   O12   S    
C24   C25   A    
C2    C54   A    
C59   C60   S    
C8    C54   A    
C55   H17   S    
Cu2   O11   S    
C56   H21   S    
C25   C26   A    
C5    C45   A    
C66   H46   S    
C12   O7    A    
C61   C62   S    
C44   N3    A    
C64   H40   S    
C63   H38   S    
C37   C38   A    
C42   O14   S    
C55   H18   S    
C8    C12   S    
Cu1   Cu2   S    
C17   C18   A    
C20   N2    A    
C25   H5    S    
Cu1   O6    S    
C56   H20   S    
C62   H34   S    
C66   H45   S    
Cu1   N4    S    
C40   C41   A    
C6    C30   A    
C2    F3    S    
C49   C50   S    
C57   C58   S    
C10   C14   A    
C9    C34   S    
C31   C35   A    
C64   H41   S    
C42   C43   S    
C21   F5    S    
C63   H37   S    
C42   H8    S    
C39   C40   A    
C52   C53   A    
Cu2   O7    S    
C44   C50   S    
C65   H43   S    
C46   C47   A    
C28   C29   A    
C14   H16   S    
C19   N2    A    
C51   N1    A    
C4    C5    A    
C10   C13   A    
C8    C53   A    
C11   C32   A    
C3    C52   A    
C9    C24   A    
O18   C65   S    
C20   O2    S    
C33   H4    S    
C39   H7    S    
C29   C35   A    
Cu2   O9    S    
C13   C17   A    
C32   C33   A    
Cu1   O10   S    
C64   H39   S    
C50   H14   S    
C63   C64   S    
C7    C51   A    
C46   H11   S    
O16   C61   S    
C55   C56   S    
C11   C13   A    
O13   C55   S    
C38   C39   A    
C24   H3    S    
C48   C49   S    
O14   C57   S    
C26   N2    S    
C2    C3    A    
C35   H6    S    
C60   H29   S    
C34   O11   A    
C58   H26   S    
C19   O4    S    
C3    N1    S    
C18   C33   A    
C51   O3    S    
C62   H35   S    
C66   H44   S    
C44   C48   A    
C49   F4    S    
C11   C29   A    
C36   C37   A    
C47   O15   S    
C23   O9    A    
C27   C28   A    
C14   C15   A    
C36   C43   S    
Cu1   O8    S    
C59   H27   S    
C60   H31   S    
C23   C40   S    
C54   H1    S    
