data_mof_unit_pretest_427.cif
_audit_creation_date              2013-03-05T15:50:05-0500
_audit_creation_method            fapswitch 2.2
_symmetry_space_group_name_H-M    P1
_symmetry_Int_Tables_number       1
_space_group_crystal_system       triclinic
_cell_length_a                    18.248072
_cell_length_b                    26.015887
_cell_length_c                    18.274923
_cell_angle_alpha                 89.786789
_cell_angle_beta                  89.682489
_cell_angle_gamma                 89.96808
_cell_volume                      8675.63837646

loop_
_atom_site_label
_atom_site_type_symbol
_atom_site_description
_atom_site_fract_x
_atom_site_fract_y
_atom_site_fract_z
_atom_type_partial_charge
Zn1   Zn    Zn3+2 0.249990 0.293780 0.913250 1.052674
Zn2   Zn    Zn3+2 0.249990 0.706220 0.086750 0.994837
Zn3   Zn    Zn3+2 0.249990 0.706220 0.913250 1.061356
Zn4   Zn    Zn3+2 0.249990 0.293780 0.086750 1.014699
Zn5   Zn    Zn3+2 0.749990 0.793780 0.413250 1.052572
Zn6   Zn    Zn3+2 0.749990 0.206220 0.586750 0.994828
Zn7   Zn    Zn3+2 0.749990 0.206220 0.413250 1.061295
Zn8   Zn    Zn3+2 0.749990 0.793780 0.586750 1.014853
Zn9   Zn    Zn3+2 0.336760 0.206240 0.000000 1.059958
Zn10  Zn    Zn3+2 0.336760 0.793760 0.000000 1.059082
Zn11  Zn    Zn3+2 0.836760 0.706240 0.500000 1.059920
Zn12  Zn    Zn3+2 0.836760 0.293760 0.500000 1.058908
Zn13  Zn    Zn3+2 0.163250 0.206230 0.000000 1.042791
Zn14  Zn    Zn3+2 0.163250 0.793770 0.000000 1.054456
Zn15  Zn    Zn3+2 0.663250 0.706230 0.500000 1.042856
Zn16  Zn    Zn3+2 0.663250 0.293770 0.500000 1.054535
O1    O     O_3   0.249990 0.250010 0.000000 -0.507764
O2    O     O_3   0.249990 0.749990 0.000000 -0.514083
O3    O     O_3   0.749990 0.750010 0.500000 -0.507741
O4    O     O_3   0.749990 0.249990 0.500000 -0.514090
O5    O     O_R   0.335430 0.280650 0.146160 -0.653176
O6    O     O_R   0.335430 0.719350 0.853840 -0.611309
O7    O     O_R   0.335430 0.719350 0.146160 -0.640427
O8    O     O_R   0.335430 0.280650 0.853840 -0.617062
O9    O     O_R   0.835430 0.780650 0.646160 -0.653231
O10   O     O_R   0.835430 0.219350 0.353840 -0.611298
O11   O     O_R   0.835430 0.219350 0.646160 -0.640421
O12   O     O_R   0.835430 0.780650 0.353840 -0.617313
O13   O     O_R   0.164550 0.280640 0.853840 -0.625188
O14   O     O_R   0.164550 0.719360 0.146160 -0.628305
O15   O     O_R   0.164550 0.719360 0.853840 -0.595329
O16   O     O_R   0.164550 0.280640 0.146160 -0.631961
O17   O     O_R   0.664550 0.780640 0.353840 -0.625165
O18   O     O_R   0.664550 0.219360 0.646160 -0.628362
O19   O     O_R   0.664550 0.219360 0.353840 -0.595308
O20   O     O_R   0.664550 0.780640 0.646160 -0.631859
O21   O     O_R   0.396160 0.219380 0.914560 -0.605861
O22   O     O_R   0.396160 0.780620 0.085440 -0.610580
O23   O     O_R   0.396160 0.780620 0.914560 -0.606365
O24   O     O_R   0.396160 0.219380 0.085440 -0.621712
O25   O     O_R   0.896160 0.719380 0.414560 -0.605763
O26   O     O_R   0.896160 0.280620 0.585440 -0.610665
O27   O     O_R   0.896160 0.280620 0.414560 -0.606363
O28   O     O_R   0.896160 0.719380 0.585440 -0.621699
O29   O     O_R   0.103840 0.219370 0.085450 -0.610683
O30   O     O_R   0.103840 0.780630 0.914550 -0.652184
O31   O     O_R   0.103840 0.780630 0.085450 -0.588686
O32   O     O_R   0.103840 0.219370 0.914550 -0.649065
O33   O     O_R   0.603840 0.719370 0.585450 -0.610719
O34   O     O_R   0.603840 0.280630 0.414550 -0.652218
O35   O     O_R   0.603840 0.280630 0.585450 -0.588448
O36   O     O_R   0.603840 0.719370 0.414550 -0.649023
O37   O     O_R   0.310730 0.133160 0.000000 -0.582444
O38   O     O_R   0.310730 0.866840 0.000000 -0.588716
O39   O     O_R   0.810730 0.633160 0.500000 -0.582415
O40   O     O_R   0.810730 0.366840 0.500000 -0.588818
O41   O     O_R   0.249970 0.366860 0.060720 -0.639580
O42   O     O_R   0.249970 0.633140 0.939280 -0.590140
O43   O     O_R   0.249970 0.633140 0.060720 -0.656084
O44   O     O_R   0.249970 0.366860 0.939280 -0.612165
O45   O     O_R   0.749970 0.866860 0.560720 -0.639515
O46   O     O_R   0.749970 0.133140 0.439280 -0.590319
O47   O     O_R   0.749970 0.133140 0.560720 -0.656158
O48   O     O_R   0.749970 0.866860 0.439280 -0.612220
O49   O     O_R   0.189290 0.133150 0.000000 -0.631826
O50   O     O_R   0.189290 0.866850 0.000000 -0.633186
O51   O     O_R   0.689290 0.633150 0.500000 -0.631859
O52   O     O_R   0.689290 0.366850 0.500000 -0.633199
C1    C     C_R   0.385409 0.245580 0.143961 0.867259
C2    C     C_R   0.389423 0.750619 0.859824 0.878058
C3    C     C_R   0.386320 0.753533 0.143912 0.852563
C4    C     C_R   0.387871 0.248661 0.858305 0.872008
C5    C     C_R   0.885412 0.745581 0.643961 0.867093
C6    C     C_R   0.889424 0.250618 0.359825 0.877888
C7    C     C_R   0.886314 0.253538 0.643915 0.852984
C8    C     C_R   0.887873 0.748667 0.358305 0.871944
C9    C     C_R   0.113165 0.246901 0.856223 0.871165
C10   C     C_R   0.111555 0.750956 0.141154 0.843931
C11   C     C_R   0.109171 0.749443 0.859935 0.880389
C12   C     C_R   0.110556 0.249354 0.140046 0.805401
C13   C     C_R   0.613168 0.746899 0.356222 0.871035
C14   C     C_R   0.611550 0.250949 0.641149 0.843733
C15   C     C_R   0.609168 0.249443 0.359937 0.880615
C16   C     C_R   0.610558 0.749352 0.640048 0.805509
C17   C     C_R   0.250015 0.108622 0.999339 0.854419
C18   C     C_R   0.249817 0.890473 0.990533 0.926151
C19   C     C_R   0.750017 0.608622 0.499340 0.854374
C20   C     C_R   0.749817 0.390473 0.490536 0.925802
C21   C     C_R   0.251425 0.391243 0.999577 0.801425
C22   C     C_R   0.249372 0.608699 0.999711 0.762658
C23   C     C_R   0.751473 0.891243 0.499572 0.802288
C24   C     C_R   0.749409 0.108699 0.499710 0.763173
C25   C     C_3   0.171430 0.469085 0.979659 -0.249670
C26   C     C_3   0.304634 0.530447 0.937953 -0.275521
C27   C     C_3   0.168416 0.529119 0.987690 -0.256085
C28   C     C_3   0.311416 0.470726 0.943546 -0.288353
C29   C     C_3   0.671326 0.969077 0.480285 -0.249706
C30   C     C_3   0.804148 0.030450 0.437448 -0.275707
C31   C     C_3   0.668370 0.029113 0.488369 -0.255821
C32   C     C_3   0.811004 0.970734 0.443002 -0.288558
H1    H     H_    0.135412 0.453891 0.024268 0.132091
H2    H     H_    0.359094 0.545889 0.954522 0.134791
H3    H     H_    0.141496 0.536301 0.041665 0.114617
H4    H     H_    0.364338 0.463649 0.972204 0.163067
H5    H     H_    0.635657 0.953875 0.525168 0.132168
H6    H     H_    0.858755 0.045908 0.453513 0.134885
H7    H     H_    0.641905 0.036280 0.542571 0.114727
H8    H     H_    0.864173 0.963670 0.471212 0.163441
H9    H     H_    0.105226 0.915587 0.938392 0.197947
H10   H     H_    0.124481 0.078645 0.072015 0.209184
H11   H     H_    0.605229 0.415590 0.438392 0.197939
H12   H     H_    0.624488 0.578644 0.572024 0.209190
H13   H     H_    0.228143 0.458691 0.115478 0.209128
H14   H     H_    0.333715 0.541382 0.082008 0.193209
H15   H     H_    0.243011 0.545315 0.118697 0.209081
H16   H     H_    0.323511 0.454031 0.093769 0.196728
H17   H     H_    0.729179 0.958707 0.615634 0.209323
H18   H     H_    0.834510 0.041377 0.581229 0.192918
H19   H     H_    0.744138 0.045322 0.618735 0.209290
H20   H     H_    0.824365 0.954021 0.593126 0.196432
C33   C     C_3   0.270498 0.470266 0.074532 -0.407425
C34   C     C_3   0.275938 0.529534 0.072477 -0.423170
C35   C     C_3   0.771196 0.970268 0.574332 -0.407534
C36   C     C_3   0.776641 0.029537 0.572220 -0.423475
C37   C     C_3   0.250789 0.448812 0.997275 -0.009749
C38   C     C_3   0.248517 0.551072 0.997287 0.020546
C39   C     C_3   0.750830 0.948812 0.497251 -0.009813
C40   C     C_3   0.748550 0.051071 0.497278 0.020625
H21   H     H_    0.937170 0.101887 0.890120 0.228731
H22   H     H_    0.146218 0.896625 0.319597 0.195357
H23   H     H_    0.869011 0.782476 0.983233 0.224211
H24   H     H_    0.211337 0.184693 0.374075 0.197922
H25   H     H_    0.437168 0.601884 0.390125 0.228736
H26   H     H_    0.646778 0.396195 0.820144 0.195268
H27   H     H_    0.369017 0.282620 0.483196 0.224264
H28   H     H_    0.711310 0.684637 0.874066 0.197906
C41   C     C_R   0.127206 0.305975 0.714595 -0.096926
C42   C     C_R   0.010615 0.668592 0.151412 -0.107464
C43   C     C_R   0.128783 0.709379 0.708827 -0.104671
C44   C     C_R   0.967758 0.282574 0.104611 -0.132090
C45   C     C_R   0.627225 0.805948 0.214578 -0.096480
C46   C     C_R   0.510513 0.168637 0.651314 -0.107514
C47   C     C_R   0.628763 0.209355 0.208841 -0.104835
C48   C     C_R   0.467773 0.782599 0.604621 -0.131922
C49   C     C_R   0.124364 0.348794 0.668797 -0.130755
C50   C     C_R   0.951889 0.635672 0.140315 -0.173750
C51   C     C_R   0.136181 0.675707 0.650039 -0.167507
C52   C     C_R   0.898846 0.299696 0.084930 -0.169532
C53   C     C_R   0.624389 0.848764 0.168773 -0.130446
C54   C     C_R   0.451754 0.135754 0.640179 -0.173740
C55   C     C_R   0.636151 0.175670 0.150068 -0.167840
C56   C     C_R   0.398867 0.799733 0.584942 -0.169496
C57   C     C_R   0.557016 0.868325 0.147397 -0.128031
C58   C     C_R   0.384690 0.146418 0.672634 -0.060475
C59   C     C_R   0.574672 0.150695 0.123158 -0.144761
C60   C     C_R   0.343969 0.802850 0.636907 -0.132699
C61   C     C_R   0.056988 0.368347 0.647417 -0.128356
C62   C     C_R   0.884814 0.646319 0.172757 -0.060400
C63   C     C_R   0.074709 0.650730 0.623119 -0.144914
C64   C     C_R   0.843950 0.302816 0.136897 -0.132674
C65   C     C_R   0.492624 0.842126 0.165333 0.304033
C66   C     C_R   0.377640 0.187133 0.721862 0.296062
C67   C     C_R   0.505082 0.164582 0.148262 0.331839
C68   C     C_R   0.356793 0.788951 0.709592 0.267284
C69   C     C_R   0.992602 0.342139 0.665346 0.304104
C70   C     C_R   0.877721 0.687058 0.221937 0.296065
C71   C     C_R   0.005115 0.664601 0.648229 0.331703
C72   C     C_R   0.856783 0.288932 0.209586 0.267254
C73   C     C_R   0.496171 0.794013 0.202541 0.010724
C74   C     C_R   0.440421 0.216880 0.741307 0.001985
C75   C     C_R   0.497378 0.205969 0.198255 -0.003359
C76   C     C_R   0.427134 0.768464 0.731034 0.026250
C77   C     C_R   0.996157 0.294025 0.702550 0.010826
C78   C     C_R   0.940473 0.716843 0.241357 0.001979
C79   C     C_R   0.997399 0.705980 0.698235 -0.003498
C80   C     C_R   0.927128 0.268455 0.231030 0.026334
C81   C     C_R   0.062349 0.280597 0.737446 0.002601
C82   C     C_R   0.003857 0.711822 0.197978 0.080638
C83   C     C_R   0.058798 0.720255 0.739103 0.038423
C84   C     C_R   0.983098 0.265908 0.177045 0.039094
C85   C     C_R   0.562362 0.780581 0.237436 0.002646
C86   C     C_R   0.503796 0.211848 0.697916 0.080739
C87   C     C_R   0.558781 0.220245 0.239116 0.038634
C88   C     C_R   0.483105 0.765919 0.677051 0.039066
C89   C     C_R   0.436261 0.759687 0.207526 -0.128046
C90   C     C_R   0.443360 0.250985 0.801393 -0.118094
C91   C     C_R   0.432320 0.234904 0.208358 -0.125497
C92   C     C_R   0.445201 0.752347 0.803397 -0.108206
C93   C     C_R   0.936252 0.259694 0.707531 -0.127903
C94   C     C_R   0.943341 0.751007 0.301372 -0.118180
C95   C     C_R   0.932332 0.734904 0.708353 -0.125429
C96   C     C_R   0.945201 0.252348 0.303398 -0.108051
C97   C     C_R   0.435027 0.722464 0.264267 0.031089
C98   C     C_R   0.500534 0.287519 0.808099 0.038763
C99   C     C_R   0.417674 0.255325 0.279188 0.063840
C100  C     C_R   0.517336 0.736357 0.822488 0.037702
C101  C     C_R   0.935021 0.222470 0.764270 0.031024
C102  C     C_R   0.000368 0.787665 0.307935 0.038714
C103  C     C_R   0.917682 0.755302 0.779196 0.063833
C104  C     C_R   0.017342 0.236373 0.322491 0.037652
C105  C     C_R   0.001043 0.208163 0.798510 0.007763
C106  C     C_R   0.056435 0.790117 0.254063 -0.001149
C107  C     C_R   0.972958 0.751061 0.833134 0.011110
C108  C     C_R   0.070707 0.229857 0.267184 0.033149
C109  C     C_R   0.501048 0.708156 0.298510 0.007804
C110  C     C_R   0.556546 0.290013 0.754178 -0.001162
C111  C     C_R   0.472949 0.251099 0.333129 0.011156
C112  C     C_R   0.570703 0.729844 0.767182 0.033064
C113  C     C_R   0.061719 0.242297 0.793300 -0.110862
C114  C     C_R   0.057420 0.751062 0.199358 -0.104174
C115  C     C_R   0.046876 0.742097 0.809486 -0.122495
C116  C     C_R   0.053843 0.247563 0.195713 -0.101339
C117  C     C_R   0.561726 0.742287 0.293297 -0.111000
C118  C     C_R   0.557410 0.251049 0.699348 -0.104246
C119  C     C_R   0.546866 0.242105 0.309489 -0.122441
C120  C     C_R   0.553845 0.747563 0.695716 -0.101414
C121  C     C_R   0.368972 0.699989 0.289058 -0.156876
C122  C     C_R   0.500922 0.322738 0.867098 -0.194702
C123  C     C_R   0.348203 0.275185 0.300114 -0.147792
C124  C     C_R   0.537004 0.725931 0.896274 -0.201509
C125  C     C_R   0.868967 0.199993 0.789061 -0.156858
C126  C     C_R   0.000537 0.823057 0.366728 -0.194052
C127  C     C_R   0.848212 0.775153 0.800136 -0.147771
C128  C     C_R   0.037019 0.225963 0.396279 -0.201788
C129  C     C_R   0.369151 0.658308 0.337631 -0.039185
C130  C     C_R   0.553151 0.361655 0.871942 0.009056
C131  C     C_R   0.332865 0.289280 0.372319 -0.046325
C132  C     C_R   0.607908 0.711100 0.915478 -0.017973
C133  C     C_R   0.869149 0.158311 0.837632 -0.039187
C134  C     C_R   0.052582 0.862105 0.371398 0.009324
C135  C     C_R   0.832867 0.789202 0.872359 -0.046236
C136  C     C_R   0.107930 0.211149 0.415484 -0.017934
C137  C     C_R   0.936417 0.137221 0.858529 -0.219448
C138  C     C_R   0.105884 0.866080 0.316825 -0.203381
C139  C     C_R   0.884049 0.777545 0.926228 -0.177492
C140  C     C_R   0.158162 0.200395 0.359996 -0.211084
C141  C     C_R   0.436418 0.637218 0.358532 -0.219462
C142  C     C_R   0.606350 0.365717 0.817280 -0.203459
C143  C     C_R   0.384050 0.277653 0.426196 -0.177474
C144  C     C_R   0.658141 0.700349 0.859989 -0.211054
C145  C     C_R   0.002755 0.160286 0.836942 -0.025565
C146  C     C_R   0.109218 0.830944 0.259044 -0.019432
C147  C     C_R   0.951104 0.754441 0.907964 -0.014075
C148  C     C_R   0.139285 0.206332 0.286293 -0.003201
C149  C     C_R   0.502757 0.660281 0.336946 -0.025554
C150  C     C_R   0.609427 0.330768 0.759259 -0.019409
C151  C     C_R   0.451093 0.254524 0.407954 -0.014074
C152  C     C_R   0.639274 0.706309 0.786287 -0.003159
H29   H     H_    0.180818 0.292379 0.729874 0.218799
H30   H     H_    0.060598 0.660407 0.121755 0.126434
H31   H     H_    0.178331 0.726016 0.729563 0.197686
H32   H     H_    0.008627 0.282839 0.061628 0.147504
H33   H     H_    0.680833 0.792345 0.229859 0.218609
H34   H     H_    0.560503 0.160436 0.621675 0.126332
H35   H     H_    0.678315 0.225995 0.229563 0.197641
H36   H     H_    0.508645 0.782866 0.561640 0.147594
H37   H     H_    0.174396 0.368298 0.652891 0.200612
H38   H     H_    0.957335 0.603563 0.103154 0.174814
H39   H     H_    0.190081 0.666331 0.628919 0.180517
H40   H     H_    0.888360 0.311645 0.029135 0.169387
H41   H     H_    0.674425 0.868262 0.152861 0.200378
H42   H     H_    0.457170 0.103659 0.602990 0.175104
H43   H     H_    0.690048 0.166282 0.128950 0.180384
H44   H     H_    0.388387 0.811693 0.529151 0.169351
H45   H     H_    0.554749 0.904505 0.118021 0.186702
H46   H     H_    0.337584 0.123178 0.658785 0.191229
H47   H     H_    0.581201 0.119869 0.084024 0.178621
H48   H     H_    0.291064 0.817783 0.620595 0.178837
H49   H     H_    0.054715 0.404528 0.618045 0.186764
H50   H     H_    0.837729 0.623052 0.158927 0.191209
H51   H     H_    0.081247 0.619912 0.583973 0.178674
H52   H     H_    0.791042 0.317742 0.120584 0.178900
H53   H     H_    0.316890 0.716155 0.272814 0.229698
H54   H     H_    0.459544 0.320853 0.909607 0.169441
H55   H     H_    0.303024 0.277368 0.263034 0.232412
H56   H     H_    0.498064 0.729677 0.940434 0.185867
H57   H     H_    0.816884 0.216159 0.772817 0.229641
H58   H     H_    0.959108 0.821220 0.409190 0.169393
H59   H     H_    0.803042 0.777365 0.763048 0.232416
H60   H     H_    0.998082 0.229708 0.440441 0.185874
C153  C     C_R   0.373219 0.054131 0.927601 0.330448
C154  C     C_R   0.378753 0.949103 0.926539 0.324337
C155  C     C_R   0.873275 0.554115 0.427700 0.330562
C156  C     C_R   0.878760 0.449090 0.426579 0.324416
C157  C     C_R   0.440784 0.029962 0.920666 -0.187512
C158  C     C_R   0.443726 0.976947 0.921306 -0.194467
C159  C     C_R   0.940835 0.529934 0.420803 -0.187496
C160  C     C_R   0.943750 0.476918 0.421401 -0.194511
C161  C     C_R   0.313460 0.972927 0.953447 -0.017970
C162  C     C_R   0.312214 0.027258 0.957582 -0.010794
C163  C     C_R   0.813469 0.472921 0.453475 -0.017995
C164  C     C_R   0.812237 0.527250 0.457628 -0.010816
C165  C     C_R   0.248217 0.945529 0.970731 -0.129370
C166  C     C_R   0.249846 0.052506 0.988900 -0.109519
C167  C     C_R   0.748218 0.445528 0.470737 -0.129264
C168  C     C_R   0.749856 0.552504 0.488916 -0.109534
C169  C     C_R   0.181660 0.972895 0.980030 0.032939
C170  C     C_R   0.185009 0.023890 0.003622 0.035304
C171  C     C_R   0.681664 0.472896 0.480032 0.032898
C172  C     C_R   0.685014 0.523890 0.503626 0.035270
C173  C     C_R   0.111746 0.950507 0.969571 -0.184108
C174  C     C_R   0.122372 0.044082 0.039960 -0.162417
C175  C     C_R   0.611749 0.450510 0.469571 -0.184051
C176  C     C_R   0.622377 0.544083 0.539964 -0.162420
C177  C     C_R   0.048588 0.973513 0.997525 0.279796
C178  C     C_R   0.054641 0.019317 0.036599 0.306697
C179  C     C_R   0.548592 0.473516 0.497526 0.279891
C180  C     C_R   0.554646 0.519319 0.536603 0.306704
H61   H     H_    0.488068 0.051217 0.901137 0.183472
H62   H     H_    0.493806 0.958353 0.903398 0.188063
H63   H     H_    0.988143 0.551183 0.401317 0.183476
H64   H     H_    0.993829 0.458317 0.403505 0.188057
C181  C     C_2   0.799030 0.135298 0.863144 0.929939
O53   O     O_2   0.799278 0.098880 0.905692 -0.586062
O54   O     O_R   0.732263 0.155300 0.838726 -0.800583
H65   H     H_    0.688430 0.136406 0.859998 0.349902
C182  C     C_2   0.050296 0.899228 0.433011 0.976734
O55   O     O_2   0.095613 0.933750 0.436642 -0.604254
O56   O     O_R   0.996078 0.894951 0.487140 -0.823607
H66   H     H_    0.999893 0.922708 0.525731 0.343566
C183  C     C_2   0.760205 0.811145 0.892322 0.942408
O57   O     O_2   0.745008 0.819920 0.956361 -0.596717
O58   O     O_R   0.708785 0.821937 0.837855 -0.805577
H67   H     H_    0.661092 0.835936 0.858403 0.355835
C184  C     C_2   0.128333 0.204899 0.493702 0.965373
O59   O     O_2   0.189940 0.190523 0.510192 -0.596349
O60   O     O_R   0.077373 0.216012 0.548944 -0.813531
H68   H     H_    0.097932 0.210617 0.599840 0.364347
C185  C     C_2   0.299031 0.635294 0.363139 0.929970
O61   O     O_2   0.299277 0.598880 0.405693 -0.586010
O62   O     O_R   0.232266 0.655293 0.338711 -0.800517
H69   H     H_    0.188431 0.636400 0.359981 0.349900
C186  C     C_2   0.551143 0.398571 0.933812 0.977086
O63   O     O_2   0.596653 0.432956 0.937626 -0.604287
O64   O     O_R   0.496967 0.394255 0.987978 -0.822991
H70   H     H_    0.500982 0.421868 0.026755 0.343892
C187  C     C_2   0.260203 0.311233 0.392262 0.942441
O65   O     O_2   0.245009 0.320043 0.456292 -0.596610
O66   O     O_R   0.208780 0.321995 0.337786 -0.805583
H71   H     H_    0.161087 0.336004 0.358322 0.355831
C188  C     C_2   0.628300 0.704830 0.993696 0.965437
O67   O     O_2   0.689907 0.690450 0.010186 -0.596268
O68   O     O_R   0.577333 0.715926 0.048938 -0.813533
H72   H     H_    0.597887 0.710520 0.099833 0.364339
C189  C     C_2   0.071268 0.129714 0.845298 0.961348
O69   O     O_2   0.074556 0.095330 0.890967 -0.622820
O70   O     O_R   0.131258 0.138948 0.799254 -0.782765
H73   H     H_    0.174149 0.115378 0.810134 0.370271
C190  C     C_2   0.169374 0.839846 0.206458 0.887913
O71   O     O_2   0.165546 0.875682 0.163170 -0.585830
O72   O     O_R   0.231751 0.808849 0.208635 -0.801038
H74   H     H_    0.268016 0.818240 0.168689 0.334520
C191  C     C_2   0.987282 0.724124 0.966280 0.928683
O73   O     O_2   0.979510 0.736598 0.030164 -0.629179
O74   O     O_R   0.026509 0.679609 0.948615 -0.805540
H75   H     H_    0.048643 0.662199 0.992925 0.312274
C192  C     C_2   0.188150 0.180119 0.233151 0.881619
O75   O     O_2   0.254589 0.185183 0.237226 -0.651337
O76   O     O_R   0.158501 0.146304 0.182121 -0.777529
H76   H     H_    0.197834 0.129208 0.151327 0.330538
C193  C     C_2   0.571269 0.629708 0.345307 0.961367
O77   O     O_2   0.574551 0.595322 0.390973 -0.622846
O78   O     O_R   0.631263 0.638942 0.299269 -0.782752
H77   H     H_    0.674151 0.615370 0.310151 0.370254
C194  C     C_2   0.669357 0.339822 0.706472 0.887964
O79   O     O_2   0.665198 0.375651 0.663204 -0.585642
O80   O     O_R   0.731875 0.308956 0.708394 -0.801054
H78   H     H_    0.767916 0.318399 0.668272 0.334537
C195  C     C_2   0.487237 0.224217 0.466296 0.928589
O81   O     O_2   0.479465 0.236717 0.530170 -0.629093
O82   O     O_R   0.526433 0.179684 0.448666 -0.805092
H79   H     H_    0.548563 0.162288 0.492987 0.312414
C196  C     C_2   0.688147 0.680112 0.733136 0.881575
O83   O     O_2   0.754584 0.685194 0.737203 -0.651353
O84   O     O_R   0.658510 0.646296 0.682099 -0.777579
H80   H     H_    0.697845 0.629237 0.651274 0.330527
Br1   Br    Br    0.971473 0.050790 0.082774 -0.358930
Br2   Br    Br    0.956247 0.939809 0.984214 -0.382731
Br3   Br    Br    0.471481 0.550791 0.582782 -0.358955
Br4   Br    Br    0.456250 0.439812 0.484216 -0.382458
Br5   Br    Br    0.359501 0.108158 0.858224 -0.517226
Br6   Br    Br    0.378565 0.890836 0.863533 -0.458729
Br7   Br    Br    0.859626 0.608131 0.358295 -0.517190
Br8   Br    Br    0.878558 0.390846 0.363525 -0.458705
C197  C     C_2   0.137163 0.446367 0.911106 1.026947
O85   O     O_2   0.138211 0.469323 0.852696 -0.504995
O86   O     O_R   0.101787 0.398774 0.916087 -0.817138
H81   H     H_    0.081002 0.387115 0.867545 0.351108
C198  C     C_2   0.295399 0.550939 0.860388 1.029717
O87   O     O_2   0.241834 0.540019 0.823980 -0.495016
O88   O     O_R   0.350023 0.582399 0.830305 -0.784587
H82   H     H_    0.338353 0.593995 0.778629 0.363455
C199  C     C_2   0.114411 0.555932 0.936956 0.959474
O89   O     O_2   0.133868 0.587867 0.891827 -0.523890
O90   O     O_R   0.040035 0.543663 0.943429 -0.798736
H83   H     H_    0.008404 0.563606 0.907771 0.378753
C200  C     C_2   0.323941 0.443394 0.870820 0.971584
O91   O     O_2   0.274536 0.438152 0.826721 -0.536072
O92   O     O_R   0.393500 0.423811 0.854685 -0.798695
H84   H     H_    0.395705 0.406169 0.805336 0.359188
C201  C     C_2   0.636548 0.946341 0.412001 1.026992
O93   O     O_2   0.636882 0.969374 0.353645 -0.504810
O94   O     O_R   0.601556 0.898618 0.417184 -0.817522
H85   H     H_    0.580386 0.886950 0.368813 0.350984
C202  C     C_2   0.794197 0.050912 0.359953 1.029929
O95   O     O_2   0.740237 0.040044 0.324092 -0.495387
O96   O     O_R   0.848610 0.082281 0.329288 -0.784011
H86   H     H_    0.836452 0.093865 0.277720 0.363267
C203  C     C_2   0.613960 0.055950 0.438099 0.959254
O97   O     O_2   0.633038 0.088039 0.393028 -0.524383
O98   O     O_R   0.539658 0.043564 0.444992 -0.799053
H87   H     H_    0.507737 0.063552 0.409641 0.378630
C204  C     C_2   0.822922 0.943411 0.370167 0.971987
O99   O     O_2   0.773154 0.938206 0.326464 -0.536816
O100  O     O_R   0.892326 0.923775 0.353482 -0.798367
H88   H     H_    0.894109 0.906111 0.304132 0.359292
Br9   Br    Br    0.403202 0.880692 0.155168 -0.464802
Br10  Br    Br    0.278236 0.203491 0.747823 -0.486042
Br11  Br    Br    0.427134 0.116266 0.131418 -0.427226
Br12  Br    Br    0.274153 0.805620 0.771297 -0.542262
Br13  Br    Br    0.903176 0.380699 0.655177 -0.464958
Br14  Br    Br    0.778299 0.703416 0.247839 -0.486086
Br15  Br    Br    0.927187 0.616271 0.631381 -0.427511
Br16  Br    Br    0.774149 0.305614 0.271294 -0.542190

loop_
_geom_bond_atom_site_label_1
_geom_bond_atom_site_label_2
_geom_bond_distance
_ccdc_geom_bond_type
C48   C88   1.420678 A    
C192  O75   1.222302 D    
C32   C39   1.580589 S    
C129  C141  1.398769 A    
C163  C164  1.415913 A    
C90   C98   1.417839 A    
C187  O65   1.223509 D    
C21   C37   1.498191 S    
C186  O63   1.223398 D    
C62   C70   1.397670 A    
O26   C7    1.289600 A    
C23   C39   1.498216 S    
C75   C87   1.401012 A    
C166  C170  1.422115 A    
C109  C149  1.428055 A    
C200  O92   1.397833 S    
O30   C11   1.291825 A    
C170  C174  1.420178 A    
C145  C189  1.489655 S    
C53   C57   1.387891 A    
Zn12  O26   1.934978 S    
C100  C124  1.422391 A    
C155  Br7   1.906675 S    
C56   C60   1.379109 A    
C55   C59   1.389916 A    
C112  C120  1.418694 A    
C29   H5    1.115710 S    
C110  C118  1.428008 A    
C47   C55   1.394663 A    
C204  O100  1.397892 S    
C179  Br4   1.917076 S    
H26   C142  1.084934 S    
C52   H40   1.082904 S    
O11   C7    1.286532 A    
C53   H41   1.082589 S    
C191  O74   1.398947 S    
O34   C15   1.291798 A    
C63   H51   1.082625 S    
C64   H52   1.083382 S    
H16   C33   1.113572 S    
C49   H37   1.082590 S    
O58   H67   1.013953 S    
Zn1   O44   1.961564 S    
C25   H1    1.115694 S    
Zn2   O43   1.961565 S    
C167  C171  1.417187 A    
H23   C139  1.083895 S    
C161  C165  1.421393 A    
Zn5   O48   1.961564 S    
C57   C65   1.395590 A    
Zn6   O47   1.961565 S    
Zn15  O3    1.950550 S    
Zn7   O46   1.958130 S    
O16   C12   1.283964 A    
C193  O78   1.397390 S    
C15   C119  1.480563 S    
O74   H75   1.012276 S    
C173  C177  1.393730 A    
Zn16  O4    1.949519 S    
C108  C116  1.418684 A    
C123  H55   1.071433 S    
C22   C38   1.500134 S    
C141  C149  1.405294 A    
H18   C36   1.113454 S    
C26   C28   1.561550 S    
H24   C140  1.084511 S    
C139  C147  1.402178 A    
Zn4   O16   1.924979 S    
C46   C86   1.417718 A    
C147  C191  1.481425 S    
H28   C144  1.084516 S    
C198  O87   1.219744 D    
C128  C136  1.396268 A    
O86   H81   1.014226 S    
Zn6   O4    1.948478 S    
C105  C145  1.428058 A    
C93   C101  1.416253 A    
C68   Br12  1.928183 S    
C7    C93   1.490277 S    
C28   C200  1.525699 S    
C111  C151  1.425378 A    
C175  C179  1.393728 A    
O84   H80   1.013178 S    
C31   C40   1.580458 S    
C155  C164  1.421094 A    
C199  O89   1.220024 D    
C174  C178  1.395883 A    
C30   H6    1.115985 S    
Zn10  O22   1.934978 S    
C202  O95   1.219762 D    
O25   C8    1.286874 A    
Zn13  O29   1.927571 S    
C157  H61   1.083189 S    
Zn10  O2    1.950845 S    
C177  Br2   1.917081 S    
H12   C176  1.075839 S    
C63   C71   1.395658 A    
C134  C138  1.392835 A    
O29   C12   1.275240 A    
C45   C85   1.415741 A    
Zn15  O33   1.927571 S    
C146  C190  1.472778 S    
C8    C94   1.448677 S    
O64   H70   1.013918 S    
C169  C170  1.397986 A    
C26   H2    1.115960 S    
C183  O57   1.223506 D    
O76   H76   1.013257 S    
O37   C17   1.279133 A    
O48   C23   1.273854 A    
C203  O97   1.220066 D    
C194  O79   1.222675 D    
C122  C130  1.394249 A    
C156  Br8   1.907059 S    
C197  O86   1.399108 S    
C190  O71   1.222689 D    
C144  C152  1.400087 A    
O72   H74   1.011943 S    
Zn16  O35   1.925724 S    
C99   C123  1.419725 A    
C201  O93   1.221313 D    
C35   C36   1.545511 S    
C97   C121  1.411682 A    
Zn7   O10   1.924935 S    
O33   C16   1.275247 A    
C132  C144  1.392236 A    
C101  C125  1.411684 A    
C52   C64   1.379108 A    
C180  Br3   1.917103 S    
O40   C20   1.282200 A    
C127  H59   1.071433 S    
O92   H84   1.014036 S    
C106  C146  1.437720 A    
C136  C140  1.392231 A    
C82   C114  1.414113 A    
C131  C187  1.487445 S    
C184  O60   1.399635 S    
C153  Br5   1.906729 S    
C44   C84   1.420679 A    
C13   C117  1.493677 S    
O100  H88   1.014069 S    
Zn5   O17   1.936127 S    
C102  C106  1.417215 A    
C1    C91   1.484371 S    
C2    C92   1.445489 S    
C12   C116  1.447816 S    
C65   C73   1.423855 A    
C96   C104  1.425090 A    
Zn15  O51   1.959465 S    
C25   C27   1.570174 S    
C47   H35   1.074202 S    
C74   C86   1.404921 A    
C185  O62   1.399252 S    
C107  C115  1.433360 A    
C184  O59   1.223531 D    
H25   C141  1.083817 S    
C3    C89   1.490279 S    
C31   C203  1.523755 S    
C105  C113  1.422284 A    
C27   H3    1.115832 S    
C188  O68   1.399634 S    
C32   H8    1.116028 S    
Zn8   O3    1.955361 S    
C97   C109  1.409873 A    
C164  C168  1.431479 A    
C43   C83   1.417769 A    
C29   C31   1.570287 S    
C61   C69   1.395580 A    
O38   C18   1.282204 A    
C135  C183  1.487438 S    
C59   C67   1.395662 A    
O5    C1    1.290259 A    
C30   C202  1.522881 S    
O32   C9    1.292523 A    
C100  C112  1.410251 A    
C112  C152  1.436987 A    
C33   C37   1.563961 S    
C35   C39   1.563931 S    
C60   H48   1.083380 S    
C104  C108  1.410247 A    
C61   H49   1.082729 S    
C161  C162  1.415932 A    
Zn11  O28   1.937243 S    
Zn12  O40   1.959424 S    
C138  C146  1.400262 A    
C150  C194  1.472733 S    
Zn7   O4    1.955362 S    
C50   H38   1.082714 S    
O8    C4    1.270634 A    
C71   C79   1.421100 A    
Zn9   O1    1.949815 S    
C72   C80   1.445149 A    
C162  C166  1.431441 A    
C58   C66   1.397683 A    
C129  C185  1.484999 S    
C42   H30   1.079902 S    
O50   C18   1.274922 A    
C154  Br6   1.907023 S    
C50   C62   1.385340 A    
Zn1   O1    1.948479 S    
C19   C168  1.473053 S    
C46   H34   1.079901 S    
Zn13  O1    1.950550 S    
Zn2   O14   1.926105 S    
C20   C167  1.476315 S    
C121  H53   1.081680 S    
C48   C56   1.382848 A    
C200  O91   1.220592 D    
C48   H36   1.080168 S    
C27   C38   1.580520 S    
C42   C50   1.388427 A    
O9    C5    1.290284 A    
O39   C19   1.279102 A    
O36   C13   1.292508 A    
C68   C76   1.445150 A    
C176  C180  1.395879 A    
O13   C9    1.285198 A    
C126  C134  1.394210 A    
Zn1   O8    1.926060 S    
Zn2   O7    1.936083 S    
C169  C173  1.416959 A    
Zn3   O6    1.924935 S    
C135  C139  1.393218 A    
O18   C14   1.272286 A    
O31   C10   1.283639 A    
O6    C2    1.283447 A    
Zn4   O41   1.958130 S    
C121  C129  1.398804 A    
C195  O82   1.398916 S    
C204  O99   1.220639 D    
C44   H32   1.080167 S    
C134  C182  1.486549 S    
C191  O73   1.220402 D    
Zn14  O30   1.937496 S    
C64   C72   1.396320 A    
C11   C115  1.480522 S    
C158  H62   1.083334 S    
Zn11  O3    1.949815 S    
O41   C21   1.282982 A    
C41   C49   1.391968 A    
C110  C150  1.437656 A    
Zn16  O34   1.937496 S    
C196  O84   1.395931 S    
C88   C120  1.419051 A    
Zn2   O2    1.948478 S    
C152  C196  1.482567 S    
O82   H79   1.012242 S    
C124  C132  1.396266 A    
C143  C151  1.402177 A    
Zn8   O20   1.924979 S    
C182  O56   1.399366 S    
C69   Br13  1.924559 S    
C187  O66   1.399299 S    
C125  H57   1.081683 S    
C67   Br11  1.925524 S    
O80   H78   1.011935 S    
C65   Br9   1.924590 S    
O78   H77   1.014115 S    
C189  O70   1.397394 S    
C67   C75   1.421098 A    
C78   C82   1.404913 A    
H20   C35   1.113601 S    
C55   H43   1.082651 S    
C153  C162  1.421090 A    
C36   C40   1.566545 S    
C56   H44   1.082900 S    
C30   C40   1.582441 S    
C109  C117  1.422278 A    
O54   H65   1.013952 S    
C192  O76   1.395928 S    
C103  C107  1.418218 A    
Zn8   O9    1.934350 S    
C178  Br1   1.917109 S    
C133  C181  1.484999 S    
C108  C148  1.436982 A    
C127  C135  1.397659 A    
C186  O64   1.399367 S    
C153  C157  1.389068 A    
H9    C173  1.081150 S    
C70   C78   1.430097 A    
C155  C159  1.389081 A    
C179  C180  1.396234 A    
O7    C3    1.286533 A    
C156  C160  1.392395 A    
O70   H73   1.014114 S    
O19   C15   1.282488 A    
O44   C21   1.273927 A    
C18   C165  1.476348 S    
H22   C138  1.084938 S    
Zn9   O24   1.937243 S    
Zn6   O18   1.926105 S    
Zn10  O23   1.927323 S    
C47   C87   1.417779 A    
C57   H45   1.082727 S    
O62   H69   1.013950 S    
C157  C158  1.380264 A    
C148  C192  1.482569 S    
C199  O90   1.398689 S    
C159  C160  1.380264 A    
C66   C74   1.430127 A    
C149  C193  1.489658 S    
C131  C143  1.393188 A    
C142  C150  1.400212 A    
C111  C119  1.433426 A    
Zn15  O36   1.935231 S    
O49   C17   1.278425 A    
O42   C22   1.272281 A    
C4    C90   1.448640 S    
C33   C34   1.545463 S    
C78   C94   1.415487 A    
Zn4   O1    1.955361 S    
C30   C32   1.561501 S    
C71   Br15  1.925527 S    
C72   Br16  1.928188 S    
Zn9   O37   1.959938 S    
O12   C8    1.270554 A    
C136  C184  1.487429 S    
Zn11  O39   1.959938 S    
C94   C102  1.417810 A    
C197  O85   1.221273 D    
C32   C204  1.525769 S    
C41   H29   1.077994 S    
O90   H83   1.014047 S    
C130  C186  1.486530 S    
Zn5   O3    1.948479 S    
C31   H7    1.115856 S    
C62   H50   1.082886 S    
C45   H33   1.078019 S    
C46   C54   1.388413 A    
C194  O80   1.395271 S    
O60   H68   1.014089 S    
C181  O53   1.223441 D    
C165  C169  1.417201 A    
O28   C5    1.284445 A    
C25   C37   1.575423 S    
C27   C199  1.523796 S    
C181  O54   1.399253 S    
O56   H66   1.013938 S    
Zn3   O42   1.958130 S    
C168  C172  1.422115 A    
C99   C111  1.418216 A    
C177  C178  1.396232 A    
O21   C4    1.286793 A    
C125  C133  1.398804 A    
O98   H87   1.014094 S    
C198  O88   1.399010 S    
C123  C131  1.397639 A    
C171  C175  1.416955 A    
C172  C176  1.420179 A    
C128  H60   1.076966 S    
O68   H72   1.014093 S    
C130  C142  1.392855 A    
C124  H56   1.076973 S    
C185  O61   1.223440 D    
Zn14  O2    1.949519 S    
C163  C167  1.421352 A    
O94   H85   1.014260 S    
C29   C39   1.575361 S    
C51   C63   1.389914 A    
C44   C52   1.382851 A    
C45   C53   1.391978 A    
O88   H82   1.014004 S    
C98   C122  1.417591 A    
Zn13  O49   1.959465 S    
H19   C36   1.113455 S    
C151  C195  1.481353 S    
C43   C51   1.394662 A    
Zn12  O4    1.950845 S    
C51   H39   1.082647 S    
C102  C126  1.417610 A    
C95   C103  1.424896 A    
Zn12  O27   1.927323 S    
C202  O96   1.399037 S    
C79   C95   1.416991 A    
H11   C175  1.081152 S    
C80   C96   1.426157 A    
C107  C147  1.425366 A    
C69   C77   1.423863 A    
C83   C115  1.423678 A    
C49   C61   1.387874 A    
Zn3   O2    1.955362 S    
C84   C116  1.419055 A    
C81   C113  1.423792 A    
C41   C81   1.415755 A    
C14   C118  1.447631 S    
C29   C201  1.524649 S    
C80   C84   1.417773 A    
O66   H71   1.013969 S    
C156  C163  1.428435 A    
C183  O58   1.399300 S    
O46   C24   1.272266 A    
O47   C24   1.285668 A    
O96   H86   1.014049 S    
C101  C105  1.409866 A    
Zn16  O52   1.959979 S    
C203  O98   1.398710 S    
C9    C113  1.493683 S    
Zn8   O45   1.958130 S    
O27   C6    1.277553 A    
C122  H54   1.081326 S    
H15   C34   1.113433 S    
C133  C137  1.398773 A    
C74   C90   1.415567 A    
C106  C114  1.428093 A    
C24   C40   1.500150 S    
Zn1   O13   1.936127 S    
C201  O94   1.399095 S    
C26   C38   1.582304 S    
C98   C110  1.417178 A    
C132  C188  1.487428 S    
O24   C1    1.284453 A    
C104  C128  1.422399 A    
C70   Br14  1.920380 S    
C171  C172  1.397983 A    
C79   C83   1.401017 A    
H21   C137  1.083819 S    
C66   Br10  1.920327 S    
O43   C22   1.285652 A    
O14   C10   1.272308 A    
C34   C38   1.566553 S    
Zn3   O15   1.934393 S    
Zn5   O12   1.926060 S    
C76   C88   1.417773 A    
C154  C161  1.428448 A    
Zn6   O11   1.936083 S    
C77   C81   1.412135 A    
C73   C85   1.412127 A    
C87   C119  1.423684 A    
Zn9   O21   1.925475 S    
Zn14  O50   1.959979 S    
H13   C33   1.113623 S    
O35   C14   1.283646 A    
C92   C100  1.425085 A    
C5    C95   1.484400 S    
C6    C96   1.445493 S    
C137  C145  1.405296 A    
C54   H42   1.082711 S    
C154  C158  1.392413 A    
H10   C174  1.075837 S    
O52   C20   1.274903 A    
C126  H58   1.081317 S    
C42   C82   1.417772 A    
C26   C198  1.522766 S    
C195  O81   1.220400 D    
C10   C114  1.447648 S    
O22   C3    1.289600 A    
C91   C99   1.424879 A    
Zn7   O19   1.934393 S    
C43   H31   1.074192 S    
O20   C16   1.283959 A    
C89   C97   1.416262 A    
C58   H46   1.082884 S    
Zn13  O32   1.935231 S    
C85   C117  1.423766 A    
O15   C11   1.282440 A    
Zn14  O31   1.925724 S    
C193  O77   1.222796 D    
O51   C19   1.278461 A    
C75   C91   1.416972 A    
C140  C148  1.400092 A    
C28   H4    1.116035 S    
H17   C35   1.113652 S    
C73   C89   1.414344 A    
C196  O83   1.222303 D    
Zn4   O5    1.934350 S    
C76   C92   1.426156 A    
C25   C197  1.524606 S    
C17   C166  1.473045 S    
C77   C93   1.414345 A    
O10   C6    1.283456 A    
O23   C2    1.277560 A    
H27   C143  1.083896 S    
C28   C37   1.580376 S    
Zn11  O25   1.925475 S    
C182  O55   1.223414 D    
Zn10  O38   1.959424 S    
H14   C34   1.113431 S    
O45   C23   1.283081 A    
C103  C127  1.419697 A    
C60   C68   1.396320 A    
C190  O72   1.395275 S    
C54   C58   1.385341 A    
C86   C118  1.414050 A    
C188  O67   1.223528 D    
C159  H63   1.083190 S    
C189  O69   1.222801 D    
O17   C13   1.285209 A    
C160  H64   1.083333 S    
C59   H47   1.082624 S    
C16   C120  1.447817 S    
