data_mof_unit_pretest_1733.cif
_audit_creation_date              2012-12-10T18:01:01-0500
_audit_creation_method            fapswitch 2.2
_symmetry_space_group_name_H-M    P1
_symmetry_Int_Tables_number       1
_space_group_crystal_system       triclinic
_cell_length_a                    38.478159
_cell_length_b                    21.657902
_cell_length_c                    21.661905
_cell_angle_alpha                 90.03704
_cell_angle_beta                  55.828327
_cell_angle_gamma                 89.954686
_cell_volume                      14935.5240666

loop_
_atom_site_label
_atom_site_type_symbol
_atom_type_description
_atom_site_fract_x
_atom_site_fract_y
_atom_site_fract_z
_atom_type_partial_charge
C1    C     C_R   0.999069 0.499981 0.381080 0.929852
C2    C     C_3   0.236579 0.513735 0.206706 0.488652
C3    C     C_3   0.736168 0.042031 0.302872 0.344372
C4    C     C_1   0.874297 0.500152 0.626359 -0.026207
C5    C     C_1   0.125710 0.499883 0.373319 -0.023744
C6    C     C_1   0.374296 0.000140 0.626363 -0.026022
C7    C     C_1   0.625710 0.999886 0.373296 -0.023703
C8    C     C_1   0.625651 0.501006 0.874760 -0.090566
C9    C     C_1   0.374354 0.500555 0.125478 -0.082861
C10   C     C_1   0.125650 0.000996 0.874754 -0.090258
C11   C     C_1   0.874354 0.000559 0.125482 -0.082794
C12   C     C_3   0.763928 0.444194 0.753387 -0.311377
C13   C     C_3   0.263726 0.041441 0.778101 0.488917
C14   C     C_3   0.236139 0.443350 0.279448 -0.298666
C15   C     C_3   0.263915 0.943821 0.752225 -0.310345
C16   C     C_3   0.736136 0.943450 0.279746 -0.298725
C17   C     C_3   0.791326 0.500581 0.709536 -0.144226
C18   C     C_3   0.208694 0.499840 0.290384 -0.149291
C19   C     C_3   0.291322 0.000530 0.709530 -0.144461
C20   C     C_3   0.708695 0.999849 0.290353 -0.149290
C21   C     C_3   0.735906 0.486640 0.822314 -0.232385
C22   C     C_3   0.264425 0.457445 0.194316 -0.224227
C23   C     C_3   0.235893 0.985432 0.821998 -0.232772
C24   C     C_3   0.736590 0.013432 0.206598 0.488708
C25   C     C_3   0.764432 0.957227 0.194536 -0.224233
C26   C     C_1   0.574215 0.685233 0.963210 0.180356
C27   C     C_1   0.425837 0.685484 0.036896 0.185794
C28   C     C_1   0.074221 0.185232 0.963177 0.180476
C29   C     C_1   0.925831 0.185483 0.036930 0.185877
C30   C     C_1   0.073470 0.535824 0.242044 0.208006
C31   C     C_1   0.922540 0.491166 0.761850 0.199292
C32   C     C_1   0.573532 0.035517 0.241990 0.207994
C33   C     C_1   0.422617 0.990048 0.761768 0.199927
C34   C     C_3   0.735729 0.557640 0.749067 -0.311352
C35   C     C_3   0.264242 0.556690 0.218820 -0.317509
C36   C     C_3   0.235733 0.057913 0.750199 -0.310983
C37   C     C_3   0.764247 0.056605 0.218490 -0.317510
C38   C     C_1   0.836793 0.500304 0.663997 0.169116
C39   C     C_1   0.163218 0.499799 0.335680 0.171743
C40   C     C_1   0.336791 0.000271 0.663999 0.169496
C41   C     C_R   0.000630 0.500025 0.619153 0.938441
C42   C     C_1   0.663219 0.999805 0.335647 0.171713
C43   C     C_1   0.663135 0.501168 0.837777 0.117556
C44   C     C_1   0.336874 0.500342 0.162839 0.126468
C45   C     C_1   0.163132 0.001143 0.837760 0.117583
C46   C     C_1   0.836874 0.000348 0.162844 0.126311
C47   C     C_R   0.035845 0.517343 0.247119 -0.065620
C48   C     C_R   0.962157 0.495870 0.754684 -0.057913
C49   C     C_R   0.535874 0.017189 0.247096 -0.065666
C50   C     C_R   0.462195 0.995332 0.754646 -0.058077
C51   C     C_R   0.036165 0.516701 0.182992 -0.171723
C52   C     C_R   0.499067 0.999982 0.381083 0.929996
C53   C     C_R   0.962070 0.496055 0.818568 -0.175661
C54   C     C_R   0.536192 0.016546 0.182971 -0.171687
C55   C     C_R   0.462102 0.995541 0.818536 -0.175592
C56   C     C_R   0.999992 0.499464 0.186961 -0.117805
C57   C     C_R   0.000056 0.500178 0.812774 -0.121083
C58   C     C_R   0.499985 0.999462 0.186972 -0.117901
C59   C     C_R   0.500057 0.000192 0.812777 -0.121009
C60   C     C_R   0.963440 0.482440 0.254680 -0.223970
C61   C     C_R   0.038299 0.504188 0.743130 -0.224244
C62   C     C_R   0.463397 0.982600 0.254732 -0.223914
C63   C     C_R   0.500642 0.000025 0.619142 0.938355
C64   C     C_R   0.538274 0.004715 0.743164 -0.224372
C65   C     C_R   0.962544 0.482432 0.319429 0.338424
C66   C     C_R   0.039021 0.504135 0.678556 0.336099
C67   C     C_R   0.462502 0.982599 0.319482 0.338484
C68   C     C_R   0.539002 0.004655 0.678584 0.336157
C69   C     C_R   0.918771 0.500046 0.581651 0.937685
C70   C     C_R   0.081231 0.499972 0.418159 0.946099
C71   C     C_R   0.418770 0.000044 0.581654 0.937863
C72   C     C_R   0.581231 0.999973 0.418153 0.946076
C73   C     C_R   0.999071 0.499897 0.315152 -0.175959
C74   C     C_3   0.708542 0.501098 0.792706 -0.084481
C75   C     C_R   0.000661 0.500063 0.684906 -0.174936
C76   C     C_R   0.499065 0.999901 0.315162 -0.175904
C77   C     C_R   0.500672 0.000061 0.684898 -0.175016
C78   C     C_R   0.499916 0.379988 0.000073 1.053000
C79   C     C_R   0.999918 0.879989 0.000069 1.053118
C80   C     C_R   0.581216 0.500577 0.918897 0.938245
C81   C     C_R   0.418785 0.500540 0.081134 0.939836
C82   C     C_R   0.081216 0.000578 0.918896 0.938489
C83   C     C_R   0.918785 0.000541 0.081135 0.940004
C84   C     C_R   0.500026 0.619732 0.999992 0.834300
C85   C     C_3   0.291475 0.500078 0.208094 -0.088114
C86   C     C_R   0.000026 0.119732 0.999992 0.834245
C87   C     C_R   0.000022 0.379320 0.999969 0.883393
C88   C     C_R   0.500022 0.879320 0.999969 0.883383
C89   C     C_R   0.000035 0.499817 0.120558 0.905929
C90   C     C_R   0.999979 0.500009 0.879352 0.908265
C91   C     C_R   0.500034 0.999813 0.120561 0.905971
C92   C     C_R   0.499979 0.000014 0.879353 0.908223
C93   C     C_R   0.999971 0.620503 0.000041 0.941537
C94   C     C_R   0.499969 0.120502 0.000042 0.941554
C95   C     C_R   0.461269 0.282641 0.037589 0.397052
C96   C     C_3   0.208539 0.001054 0.792679 -0.084632
C97   C     C_R   0.538495 0.282494 0.962759 0.387256
C98   C     C_R   0.961273 0.782643 0.037847 0.396983
C99   C     C_R   0.038507 0.782499 0.962433 0.387394
C100  C     C_R   0.961727 0.718784 0.037370 -0.212664
C101  C     C_R   0.038076 0.718666 0.962907 -0.214417
C102  C     C_R   0.461723 0.218782 0.037110 -0.212571
C103  C     C_R   0.538064 0.218662 0.963217 -0.214453
C104  C     C_R   0.999915 0.686982 0.000115 -0.192486
C105  C     C_R   0.499908 0.186980 0.000128 -0.192451
C106  C     C_3   0.735924 0.459201 0.725031 0.424168
C107  C     C_3   0.791476 0.000085 0.208093 -0.088105
C108  C     C_3   0.263850 0.486116 0.291795 0.433524
C109  C     C_3   0.235918 0.959979 0.724168 0.424189
C110  C     C_3   0.763841 0.986437 0.291871 0.433625
C111  C     C_R   0.499888 0.314226 0.000104 -0.294632
C112  C     C_R   0.999894 0.814227 0.000086 -0.294620
C113  C     C_R   0.536382 0.717309 0.982374 -0.017976
C114  C     C_R   0.463689 0.717429 0.017639 -0.016520
C115  C     C_R   0.036385 0.217308 0.982358 -0.017926
C116  C     C_R   0.963685 0.217428 0.017656 -0.016535
C117  C     C_R   0.036236 0.281153 0.982063 -0.192372
C118  C     C_3   0.763732 0.542315 0.777275 0.489079
C119  C     C_R   0.963856 0.281264 0.017848 -0.192610
C120  C     C_R   0.536233 0.781153 0.982079 -0.192384
C121  C     C_R   0.463859 0.781264 0.017831 -0.192667
C122  C     C_R   0.000050 0.312939 0.999932 -0.067632
C123  C     C_R   0.500050 0.812939 0.999932 -0.067623
C124  C     C_R   0.500031 0.685655 0.000022 -0.078882
C125  C     C_R   0.000031 0.185654 0.000023 -0.078829
C126  C     C_3   0.763521 0.514863 0.681314 0.342423
C127  C     C_3   0.236174 0.541801 0.303120 0.344398
C128  C     C_3   0.263526 0.015954 0.681590 0.342631
H1    H     H_    0.932308 0.693792 0.066002 0.218202
H2    H     H_    0.276022 0.602969 0.193543 0.222009
H3    H     H_    0.223937 0.104629 0.749907 0.220584
H4    H     H_    0.776030 0.102808 0.192959 0.222012
H5    H     H_    0.724036 0.475762 0.881084 0.205705
H6    H     H_    0.276577 0.423198 0.148455 0.208419
H7    H     H_    0.224011 0.973603 0.880539 0.205790
H8    H     H_    0.776590 0.922793 0.148865 0.208404
H9    H     H_    0.775842 0.397711 0.754192 0.220494
H10   H     H_    0.224252 0.397228 0.305141 0.223394
H11   H     H_    0.275818 0.897088 0.752092 0.220893
H12   H     H_    0.067507 0.693588 0.934285 0.217598
H13   H     H_    0.724246 0.897407 0.305692 0.223356
H14   H     H_    0.064375 0.530302 0.130309 0.180221
H15   H     H_    0.932436 0.492741 0.872603 0.180822
H16   H     H_    0.564430 0.030026 0.130264 0.180283
H17   H     H_    0.432491 0.991807 0.872548 0.180809
H18   H     H_    0.935634 0.469193 0.256889 0.207395
H19   H     H_    0.067581 0.507248 0.739130 0.211125
H20   H     H_    0.435561 0.969476 0.256977 0.207444
H21   H     H_    0.567532 0.008175 0.739194 0.211082
H22   H     H_    0.753019 0.561409 0.530658 0.397129
H23   H     H_    0.432307 0.193789 0.065526 0.218189
H24   H     H_    0.244909 0.665828 0.407865 0.397697
H25   H     H_    0.253082 0.066092 0.531951 0.397074
H26   H     H_    0.744872 0.166631 0.407025 0.397735
H27   H     H_    0.933112 0.369657 0.406278 0.353691
H28   H     H_    0.091175 0.409278 0.572634 0.358496
H29   H     H_    0.432884 0.869972 0.406582 0.353757
H30   H     H_    0.591698 0.910333 0.572308 0.358599
H31   H     H_    0.380033 0.379637 0.051217 0.377277
H32   H     H_    0.619542 0.379838 0.949055 0.381235
H33   H     H_    0.879823 0.879418 0.051977 0.377293
H34   H     H_    0.567491 0.193583 0.934821 0.217550
H35   H     H_    0.119844 0.879557 0.948043 0.381039
H36   H     H_    0.744341 0.337395 0.600571 0.399280
H37   H     H_    0.254798 0.443728 0.463381 0.397277
H38   H     H_    0.244423 0.842636 0.595271 0.399703
H39   H     H_    0.754757 0.944994 0.463729 0.397223
H40   H     H_    0.753877 0.666060 0.900484 0.396631
H41   H     H_    0.248029 0.550692 0.031955 0.395267
H42   H     H_    0.253839 0.163067 0.903611 0.396632
H43   H     H_    0.748084 0.049331 0.031574 0.395254
H44   H     H_    0.064157 0.306000 0.968509 0.172659
H45   H     H_    0.935932 0.306192 0.031388 0.171602
H46   H     H_    0.564151 0.806001 0.968538 0.172652
H47   H     H_    0.435938 0.806192 0.031358 0.171588
H48   H     H_    0.723922 0.604098 0.747834 0.220482
N1    N     N_1   0.604477 0.659550 0.947849 -0.164928
N2    N     N_1   0.395564 0.659898 0.052335 -0.172638
N3    N     N_1   0.104485 0.159548 0.947803 -0.165177
N4    N     N_1   0.895555 0.159898 0.052383 -0.172652
N5    N     N_1   0.103487 0.550715 0.238220 -0.090319
N6    N     N_1   0.890850 0.487326 0.767597 -0.146854
N7    N     N_1   0.603575 0.050287 0.238143 -0.090394
N8    N     N_1   0.390959 0.985737 0.767470 -0.146160
O1    O     O_R   0.000010 0.448280 0.408380 -0.603773
O2    O     O_R   0.034780 0.499940 0.873570 -0.618625
O3    O     O_2   0.190801 0.481315 0.153629 -0.293137
O4    O     O_2   0.194269 0.591810 0.175753 -0.260663
O5    O     O_3   0.260168 0.540310 0.060648 -0.524992
O6    O     O_2   0.306522 0.063166 0.839858 -0.278763
O7    O     O_2   0.310700 0.141609 0.754062 -0.255410
O8    O     O_3   0.241314 0.133504 0.886474 -0.526124
O9    O     O_2   0.690758 0.980541 0.153785 -0.293153
O10   O     O_2   0.694391 0.091182 0.175054 -0.260667
O11   O     O_3   0.760210 0.039165 0.060343 -0.525018
O12   O     O_R   0.465220 0.999940 0.126430 -0.614961
O13   O     O_R   0.534780 0.999940 0.873570 -0.618687
O14   O     O_R   0.034810 0.591520 0.965270 -0.619769
O15   O     O_R   0.965190 0.591520 0.034730 -0.617784
O16   O     O_R   0.534810 0.091520 0.965270 -0.619802
O17   O     O_R   0.465190 0.091520 0.034730 -0.617731
O18   O     O_R   0.000010 0.551730 0.408430 -0.609318
O19   O     O_R   0.999990 0.551730 0.591570 -0.591106
O20   O     O_R   0.500010 0.051730 0.408430 -0.609221
O21   O     O_R   0.999990 0.448280 0.591620 -0.619661
O22   O     O_R   0.499990 0.051730 0.591570 -0.590811
O23   O     O_R   0.938390 0.448280 0.561610 -0.591558
O24   O     O_R   0.061610 0.448280 0.438390 -0.609590
O25   O     O_R   0.438390 0.948280 0.561610 -0.591606
O26   O     O_R   0.561610 0.948280 0.438390 -0.610051
O27   O     O_R   0.938400 0.551730 0.561660 -0.598902
O28   O     O_R   0.061600 0.551730 0.438340 -0.587462
O29   O     O_R   0.438400 0.051730 0.561660 -0.598860
O30   O     O_R   0.561600 0.051730 0.438340 -0.587166
O31   O     O_R   0.500010 0.408260 0.948350 -0.575285
O32   O     O_R   0.500010 0.948280 0.408380 -0.603908
O33   O     O_R   0.499990 0.408260 0.051650 -0.575452
O34   O     O_R   0.000010 0.908260 0.948350 -0.575269
O35   O     O_R   0.999990 0.908260 0.051650 -0.575651
O36   O     O_R   0.561620 0.499890 0.886700 -0.587645
O37   O     O_R   0.438380 0.499890 0.113300 -0.583011
O38   O     O_R   0.061620 0.999890 0.886700 -0.587316
O39   O     O_R   0.938380 0.999890 0.113300 -0.582911
O40   O     O_R   0.561610 0.499990 0.990150 -0.607447
O41   O     O_R   0.438390 0.499990 0.009850 -0.606742
O42   O     O_R   0.061610 0.999990 0.990150 -0.607453
O43   O     O_R   0.499990 0.948280 0.591620 -0.619913
O44   O     O_R   0.938390 0.999990 0.009850 -0.606754
O45   O     O_R   0.500010 0.591500 0.948260 -0.623499
O46   O     O_R   0.499990 0.591500 0.051740 -0.620842
O47   O     O_R   0.000010 0.091500 0.948260 -0.623506
O48   O     O_R   0.999990 0.091500 0.051740 -0.620845
O49   O     O_R   0.034760 0.408280 0.965230 -0.622297
O50   O     O_R   0.965240 0.408280 0.034770 -0.623862
O51   O     O_R   0.534760 0.908280 0.965230 -0.622297
O52   O     O_R   0.465240 0.908280 0.034770 -0.623884
O53   O     O_2   0.811033 0.588992 0.563518 -0.235371
O54   O     O_R   0.034780 0.499900 0.056880 -0.624711
O55   O     O_2   0.804992 0.480518 0.537722 -0.158044
O56   O     O_3   0.740744 0.552856 0.584030 -0.500969
O57   O     O_2   0.189227 0.643106 0.368398 -0.250652
O58   O     O_2   0.192081 0.567354 0.449707 -0.159567
O59   O     O_3   0.257708 0.636512 0.365422 -0.497466
O60   O     O_2   0.311185 0.091372 0.565244 -0.236035
O61   O     O_2   0.304895 0.983660 0.537331 -0.159181
O62   O     O_3   0.240798 0.056667 0.585133 -0.501299
O63   O     O_2   0.689253 0.143475 0.367516 -0.250671
O64   O     O_2   0.692007 0.068157 0.449319 -0.159644
O65   O     O_R   0.965220 0.499900 0.943120 -0.625526
O66   O     O_3   0.757681 0.137154 0.364741 -0.497362
O67   O     O_2   0.901186 0.518098 0.456618 -0.241361
O68   O     O_2   0.881047 0.448747 0.392638 -0.230219
O69   O     O_3   0.921931 0.402618 0.444588 -0.510200
O70   O     O_2   0.089105 0.563932 0.549491 -0.223372
O71   O     O_2   0.123747 0.511234 0.600873 -0.226787
O72   O     O_3   0.094196 0.444489 0.540816 -0.549503
O73   O     O_2   0.401215 0.018539 0.456600 -0.241179
O74   O     O_2   0.380934 0.949220 0.392808 -0.230438
O75   O     O_3   0.421760 0.902987 0.444819 -0.510747
O76   O     O_R   0.534780 0.999900 0.056880 -0.624737
O77   O     O_2   0.588786 0.064917 0.549740 -0.222872
O78   O     O_2   0.623685 0.012755 0.600969 -0.226852
O79   O     O_3   0.594504 0.945529 0.540639 -0.550117
O80   O     O_2   0.376544 0.276239 0.121109 -0.267531
O81   O     O_2   0.408792 0.362844 0.144063 -0.271186
O82   O     O_3   0.409429 0.364664 0.023410 -0.553178
O83   O     O_2   0.623142 0.275585 0.879890 -0.244463
O84   O     O_2   0.591112 0.362103 0.856113 -0.260179
O85   O     O_3   0.590225 0.364630 0.977000 -0.555786
O86   O     O_2   0.876546 0.776236 0.121881 -0.267690
O87   O     O_R   0.465220 0.999900 0.943120 -0.625426
O88   O     O_2   0.908939 0.862898 0.144419 -0.270840
O89   O     O_3   0.909257 0.864600 0.024080 -0.553572
O90   O     O_2   0.123173 0.775632 0.878754 -0.245059
O91   O     O_2   0.090890 0.862256 0.855723 -0.259923
O92   O     O_3   0.090487 0.864504 0.976135 -0.556306
O93   O     O_2   0.690696 0.356383 0.752334 -0.219359
O94   O     O_2   0.689894 0.433613 0.670214 -0.220995
O95   O     O_3   0.757292 0.366686 0.617152 -0.483243
O96   O     O_2   0.309958 0.409669 0.315868 -0.236045
O97   O     O_2   0.308520 0.519047 0.347126 -0.233466
O98   O     O_R   0.965220 0.499940 0.126430 -0.614930
O99   O     O_3   0.242063 0.452444 0.435291 -0.476735
O100  O     O_2   0.190451 0.857749 0.749463 -0.216504
O101  O     O_2   0.190067 0.936627 0.668491 -0.224274
O102  O     O_3   0.257264 0.869035 0.614672 -0.483022
O103  O     O_2   0.809915 0.910362 0.316426 -0.236212
O104  O     O_2   0.808511 0.019911 0.347019 -0.233552
O105  O     O_3   0.742028 0.953484 0.435579 -0.476873
O106  O     O_2   0.806733 0.566174 0.838179 -0.278550
O107  O     O_2   0.810564 0.643085 0.751242 -0.255057
O108  O     O_3   0.741342 0.635884 0.883994 -0.526287
S1    S     S_3+6 0.781942 0.534610 0.587901 0.127442
S2    S     S_3+6 0.587510 0.321232 0.915473 0.054642
S3    S     S_3+6 0.912245 0.821624 0.085551 0.039410
S4    S     S_3+6 0.087525 0.821252 0.914780 0.054266
S5    S     S_3+6 0.716589 0.402685 0.691724 0.114549
S6    S     S_3+6 0.282962 0.466450 0.347493 0.108242
S7    S     S_3+6 0.216561 0.904586 0.689716 0.114500
S8    S     S_3+6 0.782938 0.967189 0.347699 0.108126
S9    S     S_3+6 0.782487 0.598135 0.812162 0.058727
S10   S     S_3+6 0.218560 0.532321 0.149228 0.050730
S11   S     S_3+6 0.282459 0.096166 0.814145 0.058552
S12   S     S_3+6 0.216925 0.598454 0.374893 0.121864
S13   S     S_3+6 0.718593 0.031602 0.148986 0.050709
S14   S     S_3+6 0.281969 0.037245 0.588590 0.126470
S15   S     S_3+6 0.716905 0.098974 0.374334 0.121842
S16   S     S_3+6 0.914889 0.463687 0.404895 0.071877
S17   S     S_3+6 0.088106 0.507707 0.591040 0.065018
S18   S     S_3+6 0.414815 0.964057 0.405000 0.071491
S19   S     S_3+6 0.588073 0.008748 0.591097 0.065151
S20   S     S_3+6 0.412245 0.321625 0.085027 0.039464
Zn1   Zn    Zn3+2 0.000000 0.430930 0.500000 1.065067
Zn2   Zn    Zn3+2 0.953550 0.499890 0.046410 1.026568
Zn3   Zn    Zn3+2 0.546450 0.999890 0.953590 1.025387
Zn4   Zn    Zn3+2 0.453550 0.999890 0.046410 1.026680
Zn5   Zn    Zn3+2 0.500000 0.930930 0.500000 1.064688
Zn6   Zn    Zn3+2 1.000000 0.569080 0.500000 1.114006
Zn7   Zn    Zn3+2 0.500000 0.069080 0.500000 1.114388
Zn8   Zn    Zn3+2 0.500010 0.499860 0.930960 1.097927
Zn9   Zn    Zn3+2 0.499990 0.499860 0.069040 1.101371
Zn10  Zn    Zn3+2 0.000010 0.999860 0.930960 1.098221
Zn11  Zn    Zn3+2 0.999990 0.999860 0.069040 1.101472
Zn12  Zn    Zn3+2 0.046450 0.499890 0.953590 1.025539

loop_
_geom_bond_atom_site_label_1
_geom_bond_atom_site_label_2
_ccdc_geom_bond_type
C55   C59   A    
O96   S6    D    
C15   C109  S    
C54   H16   S    
O45   Zn8   S    
C86   O47   A    
C55   H17   S    
C100  C104  A    
O17   Zn4   S    
O35   Zn11  S    
C7    C42   T    
C91   O76   A    
O52   Zn4   S    
O41   Zn8   S    
O5    S10   S    
C109  S7    S    
C110  S8    S    
C2    C22   S    
O28   Zn6   S    
C69   O27   A    
C84   O46   A    
C58   C91   S    
C95   C102  A    
C102  H23   S    
C83   O39   A    
O58   S12   D    
C60   H18   S    
C1    O18   A    
C21   H5    S    
C4    C69   S    
C66   S17   S    
C15   H11   S    
H35   O92   S    
C6    C71   S    
H22   O56   S    
C128  S14   S    
C57   C90   S    
C97   S2    S    
O50   Zn2   S    
H43   O11   S    
C99   S4    S    
O74   S18   D    
C92   O87   A    
C63   O43   A    
C90   O2    A    
C33   C50   S    
C10   C82   S    
O83   S2    D    
C5    C70   S    
C113  C120  A    
O27   Zn6   S    
C79   O35   A    
C16   C20   S    
O33   Zn9   S    
H25   O62   S    
O104  S8    D    
C94   O17   A    
C2    S10   S    
C35   C127  S    
O98   Zn2   S    
O25   Zn5   S    
C97   C103  A    
H33   O89   S    
C17   C118  S    
O40   Zn9   S    
C99   C101  A    
C4    C38   T    
C60   C65   A    
H40   O108  S    
O44   Zn10  S    
C31   C48   S    
C5    C39   T    
C107  C110  S    
C6    C40   T    
C50   C77   A    
C7    C72   S    
C25   C107  S    
C16   C25   S    
C89   O54   A    
O77   S19   D    
O97   S6    D    
C87   C122  S    
C20   C42   S    
C57   C61   A    
C82   O38   A    
C1    O1    A    
C96   C109  S    
O100  S7    D    
C87   O49   A    
O20   Zn7   S    
C117  H44   S    
C121  H47   S    
C113  C124  A    
C97   C111  A    
O6    S11   D    
C21   C74   S    
O76   Zn3   S    
O48   Zn11  S    
O84   S2    D    
O10   S13   D    
C121  C123  A    
O88   S3    D    
C3    C37   S    
C11   C46   T    
O31   Zn8   S    
C34   C118  S    
C70   O28   A    
C98   S3    S    
C27   N2    T    
H41   O5    S    
O73   S18   D    
C82   O42   A    
C89   O98   A    
C64   C68   A    
O26   Zn5   S    
O92   S4    S    
O56   S1    S    
C3    C110  S    
O46   Zn9   S    
C13   C23   S    
C22   C85   S    
C24   S13   S    
O39   Zn11  S    
C71   O25   A    
C63   O22   A    
C68   S19   S    
C78   C111  S    
O82   S20   S    
C62   H20   S    
C36   C128  S    
O9    S13   D    
C10   C45   T    
C106  S5    S    
C83   O44   A    
C48   C53   A    
C68   C77   A    
C98   C112  A    
O19   Zn6   S    
C127  S12   S    
H26   O66   S    
O32   Zn5   S    
C117  C122  A    
O16   Zn3   S    
O21   Zn1   S    
C33   N8    T    
C24   C37   S    
O108  S9    S    
C103  C105  A    
O106  S9    D    
C35   H2    S    
O30   Zn7   S    
C120  H46   S    
C56   C89   S    
C116  C125  A    
O102  S7    S    
C44   C85   S    
C26   N1    T    
C88   O51   A    
C29   C116  S    
C52   C76   S    
C78   O31   A    
O95   S5    S    
C64   H21   S    
C86   O48   A    
C14   C22   S    
C16   H13   S    
C35   C85   S    
H29   O75   S    
C17   C38   S    
C32   C49   S    
C19   C40   S    
C2    C35   S    
C58   C62   A    
O49   Zn12  S    
C72   O30   A    
C94   C105  S    
O87   Zn4   S    
C32   N7    T    
O34   Zn10  S    
C8    C43   T    
O80   S20   D    
C16   C110  S    
H31   O82   S    
C15   C19   S    
H32   O85   S    
C79   C112  S    
C93   O15   A    
C37   C107  S    
C63   C77   S    
O71   S17   D    
O75   S18   S    
C17   C126  S    
C119  C122  A    
C19   C128  S    
C52   O32   A    
C102  C105  A    
O89   S3    S    
O90   S4    D    
O65   Zn2   S    
C114  C121  A    
C14   H10   S    
C115  C117  A    
C12   C17   S    
H36   O95   S    
O79   S19   S    
C85   C108  S    
C120  C123  A    
C14   C108  S    
O66   S15   S    
C90   O65   A    
C69   O23   A    
C13   C19   S    
C47   C73   A    
H24   O59   S    
O103  S8    D    
C53   C57   A    
C100  H1    S    
C47   C51   A    
C11   C83   S    
C71   O29   A    
C56   C60   A    
C118  S9    S    
C52   O20   A    
C18   C39   S    
C21   C118  S    
C28   C115  S    
C41   C75   S    
O4    S10   D    
C109  C128  S    
C34   C126  S    
C3    C20   S    
C84   O45   A    
H38   O102  S    
O85   S2    S    
C34   C74   S    
O57   S12   D    
O62   S14   S    
O14   Zn12  S    
C101  C104  A    
C98   C100  A    
C31   N6    T    
O11   S13   S    
C30   N5    T    
O107  S9    D    
O51   Zn3   S    
C103  H34   S    
C14   C18   S    
C116  C119  A    
C67   S18   S    
C108  S6    S    
H39   O105  S    
C81   O37   A    
C106  C126  S    
C23   H7    S    
C1    C73   S    
C61   H19   S    
C26   C113  S    
C78   O33   A    
C119  H45   S    
C91   O12   A    
O63   S15   D    
C66   C75   A    
O2    Zn12  S    
C94   O16   A    
C59   C92   S    
C28   N3    T    
O12   Zn4   S    
H30   O79   S    
O43   Zn5   S    
O70   S17   D    
O59   S12   S    
C2    C18   S    
H37   O99   S    
O78   S19   D    
O3    S10   D    
O8    S11   S    
C59   C64   A    
C87   O50   A    
C81   O41   A    
C62   C67   A    
C22   H6    S    
C65   S16   S    
O94   S5    D    
C80   O40   A    
C70   O24   A    
C49   C54   A    
H42   O8    S    
C65   C73   A    
C23   C96   S    
C51   C56   A    
C25   H8    S    
O86   S3    D    
O38   Zn10  S    
C61   C66   A    
C72   O26   A    
O22   Zn7   S    
C20   C24   S    
O67   S16   D    
C29   N4    T    
O24   Zn1   S    
O29   Zn7   S    
C126  S1    S    
C114  C124  A    
C43   C74   S    
C15   C23   S    
O101  S7    D    
C86   C125  S    
C48   C75   A    
C88   C123  S    
C93   C104  S    
C101  H12   S    
O42   Zn11  S    
C88   O52   A    
O68   S16   D    
O72   S17   S    
C30   C47   S    
C24   C25   S    
C13   C36   S    
C36   H3    S    
C79   O34   A    
C12   C21   S    
C53   H15   S    
O60   S14   D    
C18   C127  S    
C74   C106  S    
C36   C96   S    
C46   C107  S    
O69   S16   S    
C49   C76   A    
O81   S20   D    
O53   S1    D    
O93   S5    D    
O64   S15   D    
O54   Zn12  S    
C41   O19   A    
O15   Zn2   S    
C92   O13   A    
O61   S14   D    
C13   S11   S    
C54   C58   A    
C51   H14   S    
C9    C44   T    
O23   Zn1   S    
O18   Zn6   S    
O105  S8    S    
O37   Zn9   S    
C80   O36   A    
O7    S11   D    
O55   S1    D    
O47   Zn10  S    
C84   C124  S    
O13   Zn3   S    
O1    Zn1   S    
C50   C55   A    
C115  C125  A    
C37   H4    S    
C93   O14   A    
C95   C111  A    
C12   C106  S    
H27   O69   S    
O99   S6    S    
C99   C112  A    
C108  C127  S    
C41   O21   A    
C95   S20   S    
C34   H48   S    
O91   S4    D    
C27   C114  S    
O36   Zn8   S    
C8    C80   S    
C3    S15   S    
C12   H9    S    
C67   C76   A    
C45   C96   S    
H28   O72   S    
C9    C81   S    
