data_mof_unit_pretest_110.cif
_audit_creation_date              2012-12-11T17:04:44-0500
_audit_creation_method            fapswitch 2.2
_symmetry_space_group_name_H-M    P1
_symmetry_Int_Tables_number       1
_space_group_crystal_system       triclinic
_cell_length_a                    17.371633
_cell_length_b                    24.344707
_cell_length_c                    14.904738
_cell_angle_alpha                 89.813456
_cell_angle_beta                  125.242527
_cell_angle_gamma                 90.155421
_cell_volume                      5147.99975912

loop_
_atom_site_label
_atom_site_type_symbol
_atom_type_description
_atom_site_fract_x
_atom_site_fract_y
_atom_site_fract_z
_atom_type_partial_charge
C1    C     C_R   0.849669 0.651828 0.906408 -0.114327
C2    C     C_R   0.144690 0.653312 0.092713 -0.060025
C3    C     C_R   0.353073 0.152526 0.905871 -0.118977
C4    C     C_R   0.647723 0.152774 0.092220 -0.057073
C5    C     C_R   0.816456 0.361185 0.004327 0.062567
C6    C     C_R   0.170608 0.347161 0.995785 0.061776
C7    C     C_R   0.321790 0.853500 0.002793 0.062896
C8    C     C_R   0.679166 0.857254 0.994037 0.062767
C9    C     C_R   0.064962 0.502426 0.367644 0.074158
C10   C     C_R   0.040975 0.503051 0.714700 0.063623
C11   C     C_R   0.461102 0.002888 0.287623 0.069599
C12   C     C_R   0.433852 0.002617 0.631891 0.071466
C13   C     C_R   0.683313 0.501049 0.654015 -0.132505
C14   C     C_R   0.325673 0.500754 0.286844 -0.136795
C15   C     C_R   0.185595 0.001170 0.650315 -0.127556
C16   C     C_R   0.825730 0.000582 0.288416 -0.137822
C17   C     C_3   0.518347 0.457674 0.525797 -0.176059
C18   C     C_3   0.493619 0.454151 0.408524 -0.171899
C19   C     C_3   0.019845 0.959188 0.527154 -0.177412
C20   C     C_3   0.992693 0.953009 0.409229 -0.170296
C21   C     C_3   0.446935 0.504312 0.491075 -0.172101
C22   C     C_3   0.569582 0.497791 0.437040 -0.173347
C23   C     C_3   0.949921 0.006747 0.491425 -0.168012
C24   C     C_3   0.069144 0.995290 0.433151 -0.175170
C25   C     C_3   0.423398 0.500948 0.375181 0.212681
C26   C     C_3   0.592080 0.501252 0.552318 0.208924
C27   C     C_3   0.923898 0.000746 0.374860 0.216156
C28   C     C_3   0.094075 0.001414 0.549157 0.206031
C29   C     C_3   0.496903 0.544586 0.401283 -0.077788
C30   C     C_3   0.521575 0.547918 0.518589 -0.074014
C31   C     C_3   0.997801 0.043030 0.396254 -0.084705
C32   C     C_3   0.024960 0.049023 0.514292 -0.073611
C33   C     C_R   0.765492 0.310618 0.106772 0.167973
C34   C     C_R   0.225049 0.303460 0.891876 0.163733
C35   C     C_R   0.266608 0.807858 0.105799 0.166861
C36   C     C_R   0.728874 0.807739 0.890707 0.165628
C37   C     C_R   0.744051 0.332920 0.008083 0.041728
C38   C     C_R   0.243336 0.320824 0.991774 0.047216
C39   C     C_R   0.248537 0.826613 0.006410 0.044331
C40   C     C_R   0.750926 0.829448 0.989707 0.042302
C41   C     C_R   0.656977 0.318740 0.910367 -0.204036
C42   C     C_R   0.333320 0.310748 0.088398 -0.204817
C43   C     C_R   0.160020 0.814506 0.909007 -0.204947
C44   C     C_R   0.839125 0.816558 0.086828 -0.203645
C45   C     C_R   0.904481 0.376709 0.094706 -0.143235
C46   C     C_R   0.084848 0.364768 0.905888 -0.142239
C47   C     C_R   0.410359 0.867947 0.093085 -0.138652
C48   C     C_R   0.593211 0.875064 0.904277 -0.145359
C49   C     C_R   0.104977 0.772587 0.909153 -0.190394
C50   C     C_R   0.889991 0.771855 0.087885 -0.193558
C51   C     C_R   0.607286 0.272976 0.909013 -0.188083
C52   C     C_R   0.390742 0.271155 0.087473 -0.196265
C53   C     C_R   0.139072 0.743257 0.006731 0.043124
C54   C     C_R   0.852337 0.740869 0.991589 0.043642
C55   C     C_R   0.644373 0.242159 0.005695 0.044702
C56   C     C_R   0.356777 0.241915 0.990152 0.041806
C57   C     C_R   0.212003 0.766846 0.106083 0.115250
C58   C     C_R   0.779150 0.763893 0.891638 0.125148
C59   C     C_R   0.715957 0.265954 0.105522 0.111553
C60   C     C_R   0.281317 0.264273 0.890790 0.125614
C61   C     C_3   0.295054 0.741694 0.208807 -0.445758
C62   C     C_3   0.692785 0.738230 0.793610 -0.461301
C63   C     C_3   0.802061 0.241101 0.205076 -0.438631
C64   C     C_3   0.198395 0.237954 0.789453 -0.459276
C65   C     C_3   0.856385 0.289719 0.206193 -0.545654
C66   C     C_3   0.137407 0.281123 0.790865 -0.544167
C67   C     C_3   0.354528 0.786374 0.208074 -0.548573
C68   C     C_3   0.637815 0.786190 0.792782 -0.537309
C69   C     C_R   0.095536 0.554960 0.618031 0.159925
C70   C     C_R   0.101995 0.554753 0.530226 0.159996
C71   C     C_R   0.397181 0.054814 0.468885 0.166612
C72   C     C_R   0.405119 0.054815 0.382180 0.160340
C73   C     C_R   0.088649 0.505310 0.660496 0.037563
C74   C     C_R   0.101757 0.504890 0.483457 0.031927
C75   C     C_R   0.396906 0.005036 0.516040 0.032936
C76   C     C_R   0.413147 0.005069 0.341441 0.036984
C77   C     C_R   0.115464 0.456762 0.634498 -0.198567
C78   C     C_R   0.121869 0.456510 0.545242 -0.205303
C79   C     C_R   0.377461 0.956533 0.455184 -0.209966
C80   C     C_R   0.385729 0.956565 0.367325 -0.198958
C81   C     C_3   0.040222 0.604393 0.479956 -0.517670
C82   C     C_3   0.033163 0.604575 0.575982 -0.516893
C83   C     C_3   0.467138 0.104637 0.423941 -0.522601
C84   C     C_3   0.458646 0.104639 0.518903 -0.516835
C85   C     C_R   0.048927 0.547297 0.302704 -0.142281
C86   C     C_R   0.017446 0.547869 0.750228 -0.133135
C87   C     C_R   0.483656 0.047769 0.250840 -0.143108
C88   C     C_R   0.450291 0.047406 0.696800 -0.134417
C89   C     C_R   0.736450 0.454957 0.705634 -0.264038
C90   C     C_R   0.270062 0.455016 0.261171 -0.250618
C91   C     C_R   0.237662 0.955021 0.703714 -0.263595
C92   C     C_R   0.770115 0.954985 0.263327 -0.253696
C93   C     C_R   0.050421 0.455998 0.306049 -0.140171
C94   C     C_R   0.007702 0.456522 0.736344 -0.121504
C95   C     C_R   0.494383 0.956483 0.266100 -0.124633
C96   C     C_R   0.449020 0.956129 0.693889 -0.136776
C97   C     C_R   0.735423 0.546783 0.707958 0.695886
C98   C     C_R   0.269813 0.546534 0.255464 0.700876
C99   C     C_R   0.236729 0.046829 0.705900 0.691691
C100  C     C_R   0.770020 0.046437 0.256354 0.701951
C101  C     C_R   0.812881 0.373945 0.910925 -0.112700
C102  C     C_R   0.178256 0.364590 0.088899 -0.111287
C103  C     C_R   0.315167 0.870889 0.909803 -0.117513
C104  C     C_R   0.682691 0.869022 0.087460 -0.107082
C105  C     C_R   0.938866 0.652133 0.089479 -0.125077
C106  C     C_R   0.056956 0.653533 0.910658 -0.139723
C107  C     C_R   0.442211 0.153389 0.088360 -0.141964
C108  C     C_R   0.560219 0.152381 0.909668 -0.122937
C109  C     C_R   0.876748 0.683279 0.996683 0.039463
C110  C     C_R   0.115865 0.685419 0.002716 0.029570
C111  C     C_R   0.381987 0.184676 0.995421 0.049837
C112  C     C_R   0.620906 0.184177 0.001648 0.020547
H1    H     H_    0.816636 0.666184 0.823325 0.167192
H2    H     H_    0.173803 0.667717 0.174842 0.149275
H3    H     H_    0.321736 0.166382 0.822805 0.164659
H4    H     H_    0.678210 0.167801 0.174273 0.153541
H5    H     H_    0.529440 0.422392 0.579453 0.119074
H6    H     H_    0.479141 0.416134 0.360198 0.116975
H7    H     H_    0.031182 0.925115 0.583292 0.120418
H8    H     H_    0.976416 0.914041 0.362998 0.114764
H9    H     H_    0.485275 0.579778 0.347244 0.147285
H10   H     H_    0.534067 0.586093 0.565757 0.161236
H11   H     H_    0.985685 0.076988 0.339592 0.144061
H12   H     H_    0.038822 0.088231 0.559059 0.165532
H13   H     H_    0.633238 0.337965 0.832920 0.124246
H14   H     H_    0.355124 0.328251 0.166369 0.123003
H15   H     H_    0.138264 0.832035 0.830946 0.124009
H16   H     H_    0.863101 0.835962 0.164065 0.123204
H17   H     H_    0.043866 0.758743 0.831099 0.124730
H18   H     H_    0.951230 0.758052 0.165955 0.122727
H19   H     H_    0.547349 0.258468 0.830691 0.123656
H20   H     H_    0.453741 0.258516 0.165108 0.123690
H21   H     H_    0.314859 0.700490 0.196285 0.234637
H22   H     H_    0.672761 0.698674 0.812525 0.209941
H23   H     H_    0.823759 0.201824 0.187857 0.226400
H24   H     H_    0.181177 0.196186 0.803515 0.213686
H25   H     H_    0.289550 0.744766 0.279331 0.197894
H26   H     H_    0.695209 0.737514 0.720692 0.208742
H27   H     H_    0.798119 0.240206 0.276915 0.201692
H28   H     H_    0.202063 0.241740 0.717638 0.205142
H29   H     H_    0.908644 0.277737 0.189350 0.205097
H30   H     H_    0.087066 0.263440 0.806543 0.203354
H31   H     H_    0.406370 0.769671 0.194152 0.204725
H32   H     H_    0.586781 0.773774 0.811447 0.203722
H33   H     H_    0.884040 0.316604 0.278930 0.195644
H34   H     H_    0.106322 0.310001 0.720172 0.190096
H35   H     H_    0.383680 0.815130 0.278425 0.190242
H36   H     H_    0.608635 0.812984 0.719386 0.194930
H37   H     H_    0.119404 0.418001 0.672708 0.126121
H38   H     H_    0.130093 0.417460 0.517346 0.127134
H39   H     H_    0.368693 0.917534 0.483179 0.127053
H40   H     H_    0.382535 0.917752 0.330128 0.125247
H41   H     H_    0.971379 0.595736 0.400885 0.204739
H42   H     H_    0.067874 0.640834 0.630286 0.191710
H43   H     H_    0.432607 0.140708 0.368746 0.192492
H44   H     H_    0.527117 0.096255 0.598636 0.202753
H45   H     H_    0.930440 0.374943 0.179944 0.112919
H46   H     H_    0.051099 0.353447 0.821962 0.100876
H47   H     H_    0.442427 0.856774 0.176661 0.101352
H48   H     H_    0.567022 0.873514 0.818937 0.112318
H49   H     H_    0.079007 0.640555 0.479060 0.190305
H50   H     H_    0.960366 0.595950 0.550975 0.205492
H51   H     H_    0.540284 0.096188 0.450163 0.203002
H52   H     H_    0.419356 0.140747 0.518423 0.194124
H53   H     H_    0.069281 0.589313 0.328973 0.106056
H54   H     H_    0.033672 0.590411 0.748770 0.111109
H55   H     H_    0.467525 0.090279 0.252120 0.112059
H56   H     H_    0.429667 0.089397 0.670261 0.116502
H57   H     H_    0.720348 0.413319 0.674901 0.138017
H58   H     H_    0.294476 0.414113 0.292385 0.134742
H59   H     H_    0.221906 0.913301 0.673424 0.136319
H60   H     H_    0.794226 0.914196 0.295773 0.135626
H61   H     H_    0.069858 0.414340 0.336104 0.088803
H62   H     H_    0.005567 0.415745 0.707803 0.086957
H63   H     H_    0.498474 0.915855 0.296898 0.087493
H64   H     H_    0.429458 0.914481 0.664140 0.087906
H65   H     H_    0.755186 0.366730 0.826679 0.093316
H66   H     H_    0.231105 0.352320 0.172080 0.084657
H67   H     H_    0.257031 0.865096 0.825196 0.092445
H68   H     H_    0.735958 0.855651 0.169675 0.087199
H69   H     H_    0.983191 0.666348 0.173438 0.088226
H70   H     H_    0.010950 0.667960 0.826909 0.096778
H71   H     H_    0.487929 0.168113 0.171805 0.089236
H72   H     H_    0.515816 0.166300 0.825393 0.094165
H73   H     H_    0.394248 0.506975 0.510587 0.129044
H74   H     H_    0.623203 0.495142 0.419059 0.128192
H75   H     H_    0.898696 0.011402 0.512788 0.129338
H76   H     H_    0.121476 0.990676 0.413514 0.128845
N1    N     N_R   0.892620 0.603790 0.941770 -0.046565
N2    N     N_R   0.107380 0.603790 0.058230 -0.051277
N3    N     N_R   0.392620 0.103790 0.941770 -0.045126
N4    N     N_R   0.607380 0.103790 0.058230 -0.052481
N5    N     N_R   0.952270 0.397640 0.058010 -0.041301
N6    N     N_R   0.047730 0.397640 0.941990 -0.038989
N7    N     N_R   0.452270 0.897640 0.058010 -0.039610
N8    N     N_R   0.547730 0.897640 0.941990 -0.041048
N9    N     N_R   0.026310 0.529110 0.206760 -0.042837
N10   N     N_R   0.973690 0.529110 0.793240 -0.042979
N11   N     N_R   0.526310 0.029110 0.206760 -0.044511
N12   N     N_R   0.473690 0.029110 0.793240 -0.044111
N13   N     N_R   0.818570 0.472310 0.793020 -0.065968
N14   N     N_R   0.181430 0.472310 0.206980 -0.066212
N15   N     N_R   0.318570 0.972310 0.793020 -0.064135
N16   N     N_R   0.681430 0.972310 0.206980 -0.067154
N17   N     N_R   0.026930 0.472300 0.207330 -0.039431
N18   N     N_R   0.973070 0.472300 0.792670 -0.040840
N19   N     N_R   0.526930 0.972300 0.207330 -0.039959
N20   N     N_R   0.473070 0.972300 0.792670 -0.040240
N21   N     N_R   0.817960 0.529130 0.792460 -0.100527
N22   N     N_R   0.182040 0.529130 0.207540 -0.104096
N23   N     N_R   0.317960 0.029130 0.792460 -0.099109
N24   N     N_R   0.682040 0.029130 0.207540 -0.105155
N25   N     N_R   0.894850 0.397640 0.943830 -0.038573
N26   N     N_R   0.105150 0.397640 0.056170 -0.036018
N27   N     N_R   0.394850 0.897640 0.943830 -0.037718
N28   N     N_R   0.605150 0.897640 0.056170 -0.037410
N29   N     N_R   0.950040 0.603780 0.055950 -0.046224
N30   N     N_R   0.049960 0.603780 0.944050 -0.046990
N31   N     N_R   0.450040 0.103780 0.055950 -0.045036
N32   N     N_R   0.549960 0.103780 0.944050 -0.047596
Ni1   Ni    Ni4+2 0.934160 0.565860 0.869070 0.237648
Ni2   Ni    Ni4+2 0.065840 0.565860 0.130930 0.219257
Ni3   Ni    Ni4+2 0.434160 0.065860 0.869070 0.233215
Ni4   Ni    Ni4+2 0.565840 0.065860 0.130930 0.222596
Ni5   Ni    Ni4+2 0.067260 0.435560 0.132230 0.202232
Ni6   Ni    Ni4+2 0.932740 0.435560 0.867770 0.206090
Ni7   Ni    Ni4+2 0.567260 0.935560 0.132230 0.206730
Ni8   Ni    Ni4+2 0.432740 0.935560 0.867770 0.202152
F1    F     F_    0.716715 0.599100 0.669762 -0.752587
F2    F     F_    0.299349 0.599040 0.285809 -0.757353
F3    F     F_    0.219253 0.099198 0.668023 -0.756235
F4    F     F_    0.799805 0.098917 0.286517 -0.755321

loop_
_geom_bond_atom_site_label_1
_geom_bond_atom_site_label_2
_ccdc_geom_bond_type
C53   C110  S    
C58   C62   S    
C89   N13   A    
N8    Ni8   S    
N22   Ni2   S    
C22   C29   S    
C5    C37   S    
C55   C112  S    
N10   N18   A    
C2    N2    A    
N21   Ni1   S    
C55   C59   A    
C4    N4    A    
N9    N17   A    
C19   C20   S    
C94   N18   A    
C87   N11   A    
C72   C76   A    
C67   H31   S    
C34   C66   S    
C63   C65   S    
C81   C82   S    
C15   C28   S    
C33   C65   S    
C47   H47   S    
C77   C78   A    
C24   H76   S    
C48   H48   S    
C50   C54   A    
C97   N21   A    
C83   C84   S    
C17   C26   S    
C47   N7    A    
N3    N31   A    
C38   C42   A    
C82   H42   S    
C36   C58   A    
C11   C76   S    
N2    Ni2   S    
C64   H28   S    
N8    N28   A    
C10   C73   S    
N1    Ni1   S    
C96   N20   A    
C103  H67   S    
C83   H43   S    
C10   C94   A    
C11   C95   A    
C46   H46   S    
C2    C110  A    
C91   N15   A    
C81   H41   S    
C25   C29   S    
N27   Ni8   S    
C103  N27   A    
C57   C61   S    
C70   C81   S    
N26   Ni5   S    
C95   H63   S    
C14   C90   A    
C105  C109  A    
C69   C82   S    
C50   H18   S    
C9    C85   A    
N31   Ni4   S    
C98   F2    S    
C52   C56   A    
N5    Ni5   S    
C32   H12   S    
C102  N26   A    
C87   H55   S    
C30   H10   S    
C11   C87   A    
C88   H56   S    
C29   H9    S    
C70   C74   A    
C6    C38   S    
C69   C73   A    
N25   Ni6   S    
C23   C27   S    
C84   H44   S    
C24   C28   S    
C18   H6    S    
C56   C111  S    
N7    N27   A    
C68   H36   S    
C6    C46   A    
C17   H5    S    
C1    C109  A    
C16   C27   S    
C4    C112  A    
C19   H7    S    
C33   C59   A    
C7    C103  A    
C48   N8    A    
C34   C60   A    
C23   H75   S    
N15   N23   A    
C18   C25   S    
C1    H1    S    
N16   N24   A    
N14   N22   A    
N2    N30   A    
N13   N21   A    
N15   Ni8   S    
N11   Ni4   S    
N1    N29   A    
C14   C98   A    
N14   Ni5   S    
C95   N19   A    
N13   Ni6   S    
C5    C101  A    
N28   Ni7   S    
C12   C88   A    
C27   C31   S    
C52   H20   S    
C89   H57   S    
C41   H13   S    
N6    Ni6   S    
C36   C40   A    
N10   Ni1   S    
C45   H45   S    
C104  N28   A    
N9    Ni2   S    
C61   H21   S    
C77   H37   S    
C53   C57   A    
C19   C23   S    
C43   C49   A    
C39   C43   A    
C82   H50   S    
C49   H17   S    
C100  N24   A    
C33   C37   A    
C56   C60   A    
C46   N6    A    
C107  H71   S    
C45   N5    A    
C63   H23   S    
C22   H74   S    
C35   C39   A    
C21   H73   S    
C8    C48   A    
N18   Ni6   S    
C29   C30   S    
C3    N3    A    
C98   N22   A    
C61   C67   S    
C93   N17   A    
C31   C32   S    
C28   C32   S    
N23   Ni3   S    
C90   H58   S    
N11   N19   A    
C17   C18   S    
C13   C97   A    
C62   H26   S    
N16   Ni7   S    
N17   Ni5   S    
C19   C28   S    
C8    C104  A    
N4    Ni4   S    
C22   C26   S    
C83   H51   S    
C86   N10   A    
C107  N31   A    
N19   Ni7   S    
C106  N30   A    
C94   H62   S    
C26   C30   S    
C105  N29   A    
C91   H59   S    
C67   H35   S    
C102  H66   S    
N24   Ni4   S    
C3    C111  A    
C13   C26   S    
C12   C75   S    
C16   C92   A    
C9    C74   S    
N4    N32   A    
C43   H15   S    
C9    C93   A    
C20   H8    S    
C78   H38   S    
N30   Ni1   S    
C79   H39   S    
C71   C84   S    
C106  C110  A    
C44   C50   A    
N29   Ni2   S    
C80   H40   S    
C21   C25   S    
C62   H22   S    
C44   H16   S    
C97   F1    S    
C96   H64   S    
C13   C89   A    
C34   C38   A    
N12   Ni3   S    
C107  C111  A    
C4    H4    S    
C16   C100  A    
C76   C80   A    
C15   C99   A    
C92   N16   A    
C99   N23   A    
N6    N26   A    
C99   F3    S    
C36   C68   S    
C10   C86   A    
N5    N25   A    
C66   H30   S    
C20   C27   S    
C63   H27   S    
N3    Ni3   S    
C21   C30   S    
C59   C63   S    
N7    Ni7   S    
C60   C64   S    
C85   H53   S    
C23   C32   S    
C88   N12   A    
C18   C22   S    
C108  H72   S    
C24   C31   S    
C31   H11   S    
C71   C72   A    
C64   C66   S    
C3    H3    S    
C65   H29   S    
C71   C75   A    
C2    H2    S    
C61   H25   S    
C84   H52   S    
C104  H68   S    
C5    C45   A    
C92   H60   S    
C49   C53   A    
C65   H33   S    
C93   H61   S    
C41   C51   A    
C68   H32   S    
C51   C55   A    
C62   C68   S    
C6    C102  A    
C14   C25   S    
C37   C41   A    
C69   C70   A    
C17   C21   S    
C66   H34   S    
C72   C83   S    
C101  H65   S    
C35   C67   S    
C42   H14   S    
C101  N25   A    
C15   C91   A    
C79   C80   A    
C108  N32   A    
C108  C112  A    
C40   C44   A    
C54   C58   A    
C86   H54   S    
C54   C109  S    
C73   C77   A    
N12   N20   A    
C35   C57   A    
C74   C78   A    
C51   H19   S    
C42   C52   A    
C7    C39   S    
C85   N9    A    
C12   C96   A    
C100  F4    S    
C81   H49   S    
C64   H24   S    
C8    C40   S    
C105  H69   S    
C75   C79   A    
C20   C24   S    
N32   Ni3   S    
N20   Ni8   S    
C106  H70   S    
C7    C47   A    
C90   N14   A    
C1    N1    A    
