data_mof_unit_pretest_918.cif
_audit_creation_date              2012-12-11T14:39:35-0500
_audit_creation_method            fapswitch 2.2
_symmetry_space_group_name_H-M    P1
_symmetry_Int_Tables_number       1
_space_group_crystal_system       triclinic
_cell_length_a                    7.263765
_cell_length_b                    13.728364
_cell_length_c                    16.828577
_cell_angle_alpha                 90.040535
_cell_angle_beta                  97.033038
_cell_angle_gamma                 90.183235
_cell_volume                      1665.50279727

loop_
_atom_site_label
_atom_site_type_symbol
_atom_type_description
_atom_site_fract_x
_atom_site_fract_y
_atom_site_fract_z
_atom_type_partial_charge
O1    O     O_R   0.525340 0.338340 0.164530 -0.491254
O2    O     O_R   0.474660 0.661660 0.835470 -0.487807
O3    O     O_R   0.974660 0.838340 0.835470 -0.491199
O4    O     O_R   0.025340 0.161660 0.164530 -0.483296
O5    O     O_R   0.253520 0.352000 0.336710 -0.582396
O6    O     O_R   0.746480 0.648000 0.663290 -0.527436
O7    O     O_R   0.246480 0.852000 0.663290 -0.581904
O8    O     O_R   0.753520 0.148000 0.336710 -0.527246
O9    O     O_R   0.083330 0.168380 0.337300 -0.543613
O10   O     O_R   0.916670 0.831620 0.662700 -0.480509
O11   O     O_R   0.416670 0.668380 0.662700 -0.542420
O12   O     O_R   0.583330 0.331620 0.337300 -0.478289
C1    C     C_R   0.432943 0.370499 0.362927 0.840136
C2    C     C_R   0.567576 0.628025 0.638568 0.866206
C3    C     C_R   0.067334 0.870460 0.637042 0.845908
C4    C     C_R   0.932154 0.128076 0.361570 0.862317
O13   O     O_R   0.195840 0.349670 0.165140 -0.520547
O14   O     O_R   0.804160 0.650330 0.834860 -0.535149
O15   O     O_R   0.304160 0.849670 0.834860 -0.535039
O16   O     O_R   0.695840 0.150330 0.165140 -0.545254
C5    C     C_R   0.358382 0.370544 0.137035 0.886981
C6    C     C_R   0.642868 0.631998 0.864175 0.890888
C7    C     C_R   0.143781 0.867655 0.864717 0.901019
C8    C     C_R   0.856716 0.130894 0.136199 0.857026
O17   O     O_3   0.387830 0.193120 0.250910 -0.381281
O18   O     O_3   0.612170 0.806880 0.749090 -0.381518
O19   O     O_3   0.112170 0.693120 0.749090 -0.377966
O20   O     O_3   0.887830 0.306880 0.250910 -0.364355
V1    V     V_3+5 0.113010 0.264540 0.250910 1.600834
V2    V     V_3+5 0.886990 0.735460 0.749090 1.656489
V3    V     V_3+5 0.386990 0.764540 0.749090 1.575031
V4    V     V_3+5 0.613010 0.235460 0.250910 1.654773
H1    H     H_    0.009131 0.792346 0.271914 0.188453
H2    H     H_    0.961054 0.210278 0.724671 0.195159
H3    H     H_    0.489033 0.292145 0.727823 0.179164
H4    H     H_    0.541204 0.710445 0.276040 0.201512
C9    C     C_R   0.944580 0.206861 0.522946 0.386974
C10   C     C_R   0.004212 0.791694 0.474335 0.391552
C11   C     C_R   0.554876 0.707187 0.477610 0.387920
C12   C     C_R   0.495168 0.291568 0.525451 0.388768
C13   C     C_R   0.950716 0.244671 0.601312 0.358029
C14   C     C_R   0.997082 0.753723 0.395444 0.363345
C15   C     C_R   0.548905 0.745005 0.399285 0.352290
C16   C     C_R   0.501968 0.253531 0.604272 0.374418
C17   C     C_R   0.974985 0.181847 0.665592 -0.235205
C18   C     C_R   0.008702 0.818529 0.332496 -0.247912
C19   C     C_R   0.526203 0.682000 0.335001 -0.232494
C20   C     C_R   0.490099 0.318294 0.667305 -0.252432
C21   C     C_R   0.993863 0.082509 0.655722 0.280089
C22   C     C_R   0.012308 0.918339 0.344016 0.269199
C23   C     C_R   0.508894 0.582552 0.344897 0.281890
C24   C     C_R   0.487350 0.418117 0.656009 0.268249
C25   C     C_R   0.999290 0.039754 0.578488 -0.059860
C26   C     C_R   0.997668 0.960331 0.420725 -0.057441
C27   C     C_R   0.501754 0.539809 0.421885 -0.066850
C28   C     C_R   0.502079 0.460193 0.579361 -0.056330
C29   C     C_R   0.969424 0.103191 0.510506 -0.126657
C30   C     C_R   0.009823 0.896069 0.487917 -0.099135
C31   C     C_R   0.530312 0.603343 0.489871 -0.125453
C32   C     C_R   0.490149 0.395954 0.512088 -0.098725
C33   C     C_R   0.025930 0.936954 0.567046 -0.105005
C34   C     C_R   0.968081 0.062560 0.431856 -0.120496
C35   C     C_R   0.474918 0.436912 0.433077 -0.104539
C36   C     C_R   0.531265 0.562548 0.568338 -0.119993
C37   C     C_2   0.146708 0.941442 0.929409 -0.239444
C38   C     C_2   0.854404 0.056063 0.072320 -0.256968
C39   C     C_2   0.359559 0.442511 0.070728 -0.260024
C40   C     C_2   0.645341 0.562951 0.931840 -0.245092
C41   C     C_2   0.005321 0.954229 0.975085 0.344475
C42   C     C_2   0.995326 0.043289 0.026366 0.344882
C43   C     C_2   0.517233 0.479734 0.044189 0.354489
C44   C     C_2   0.505636 0.553752 0.979128 0.342470
H5    H     H_    0.738515 0.005624 0.067846 0.167154
H6    H     H_    0.263348 0.991426 0.934536 0.162057
H7    H     H_    0.765102 0.515449 0.941091 0.155458
H8    H     H_    0.224641 0.465590 0.042205 0.168882
O21   O     O_3   0.883290 0.266556 0.458203 -0.534012
C45   C     C_3   0.975624 0.357073 0.458974 -0.090672
H9    H     H_    0.122689 0.352619 0.485529 0.049704
H10   H     H_    0.898829 0.413273 0.488550 0.167667
H11   H     H_    0.970943 0.382528 0.396544 0.161926
O22   O     O_3   0.968774 0.730568 0.536942 -0.536749
C46   C     C_3   0.063536 0.640953 0.540089 -0.101593
H12   H     H_    0.192456 0.644062 0.511519 0.091357
H13   H     H_    0.969842 0.582694 0.513217 0.160744
H14   H     H_    0.099482 0.620162 0.603500 0.153363
O23   O     O_3   0.616006 0.767067 0.542481 -0.534056
C47   C     C_3   0.524553 0.857528 0.541617 -0.088405
H15   H     H_    0.377522 0.852898 0.514943 0.050617
H16   H     H_    0.602083 0.913739 0.512168 0.167696
H17   H     H_    0.529263 0.883152 0.604028 0.160970
O24   O     O_3   0.530289 0.230625 0.462673 -0.536703
C48   C     C_3   0.436145 0.140506 0.459482 -0.100100
H18   H     H_    0.307525 0.142872 0.488266 0.092570
H19   H     H_    0.530426 0.082710 0.486101 0.160827
H20   H     H_    0.399811 0.119625 0.396062 0.152794
O25   O     O_3   0.882259 0.336856 0.613462 -0.557939
C49   C     C_3   0.018219 0.395688 0.657079 -0.233530
H21   H     H_    0.122078 0.418824 0.617969 0.128414
H22   H     H_    0.086864 0.360229 0.712182 0.177360
H23   H     H_    0.950175 0.462584 0.676002 0.185339
O26   O     O_3   0.955519 0.654888 0.382808 -0.567545
C50   C     C_3   0.006747 0.616344 0.310955 -0.176671
H24   H     H_    0.008892 0.535782 0.315591 0.175977
H25   H     H_    0.147669 0.640079 0.300183 0.126096
H26   H     H_    0.902163 0.635635 0.259645 0.210858
O27   O     O_3   0.617012 0.837495 0.387248 -0.557930
C51   C     C_3   0.481029 0.895582 0.343431 -0.229002
H27   H     H_    0.377491 0.918824 0.382558 0.125865
H28   H     H_    0.411950 0.859447 0.288559 0.180044
H29   H     H_    0.549116 0.962456 0.324096 0.185650
O28   O     O_3   0.542956 0.154724 0.616633 -0.564127
C52   C     C_3   0.496466 0.116369 0.689345 -0.209267
H30   H     H_    0.496086 0.035772 0.685174 0.174126
H31   H     H_    0.355845 0.138804 0.701229 0.133936
H32   H     H_    0.602810 0.137104 0.739687 0.193002
Cl1   Cl    Cl    0.981136 0.020819 0.745391 -0.730488
Cl2   Cl    Cl    0.059790 0.981029 0.258145 -0.722343
Cl3   Cl    Cl    0.529371 0.520711 0.256164 -0.679607
Cl4   Cl    Cl    0.441875 0.480731 0.742247 -0.741181
Cl5   Cl    Cl    0.164247 0.136394 0.020647 -0.652095
Cl6   Cl    Cl    0.835156 0.861566 0.979820 -0.610177
Cl7   Cl    Cl    0.315330 0.635538 0.973321 -0.593106
Cl8   Cl    Cl    0.746458 0.450452 0.087748 -0.595555

loop_
_geom_bond_atom_site_label_1
_geom_bond_atom_site_label_2
_ccdc_geom_bond_type
O23   C47   S    
C21   C25   A    
O1    C5    A    
C48   H18   S    
C12   C32   A    
C27   C31   A    
O13   V1    S    
O3    C7    A    
C45   H11   S    
C11   O23   S    
O15   V3    S    
O25   C49   S    
C29   C34   A    
O21   C45   S    
C40   H7    S    
O12   C1    A    
C31   C36   A    
C22   C26   A    
C32   C35   A    
O20   V1    S    
O9    C4    A    
C10   C14   A    
O10   C3    A    
O16   V4    S    
O4    C8    A    
O11   C2    A    
C45   H10   S    
C51   H27   S    
H4    C19   S    
C14   C18   A    
C10   C30   A    
C25   C33   A    
C21   Cl1   S    
O16   C8    A    
C27   C35   A    
O2    C6    A    
C23   Cl3   S    
O27   C51   S    
C28   C36   A    
O14   V2    S    
C12   C16   A    
O5    C1    A    
O4    V1    S    
C8    C38   S    
C52   H32   S    
O17   V4    S    
O7    C3    A    
O11   V3    S    
O18   V3    S    
C48   H19   S    
C22   Cl2   S    
C10   O22   S    
O19   V2    S    
H1    C18   S    
C41   C42   S    
C4    C34   S    
H3    C20   S    
C14   O26   S    
O28   C52   S    
O5    V1    S    
O7    V3    S    
O8    V4    S    
C43   Cl8   S    
C25   C29   A    
C45   H9    S    
C19   C23   A    
C26   C34   A    
C23   C27   A    
C38   H5    S    
C9    O21   S    
O1    V4    S    
O13   C5    A    
C37   H6    S    
C28   C32   A    
O2    V3    S    
O3    V2    S    
O15   C7    A    
O6    C2    A    
O10   V2    S    
C46   H12   S    
C1    C35   S    
C47   H17   S    
C17   C21   A    
C40   C44   D    
C11   C31   A    
C3    C33   S    
C50   H25   S    
H2    C17   S    
C15   O27   S    
C12   O24   S    
C6    C40   S    
C2    C36   S    
C16   O28   S    
C46   H13   S    
C47   H16   S    
O22   C46   S    
C48   H20   S    
C49   H22   S    
C44   Cl7   S    
C13   O25   S    
O12   V4    S    
C24   Cl4   S    
C52   H30   S    
C26   C30   A    
O6    V2    S    
O14   C6    A    
C11   C15   A    
O9    V1    S    
C49   H23   S    
C18   C22   A    
C51   H29   S    
C7    C37   S    
C43   C44   S    
C42   Cl5   S    
C38   C42   D    
C41   Cl6   S    
C30   C33   A    
C37   C41   D    
O24   C48   S    
C51   H28   S    
C50   H26   S    
C39   C43   D    
C9    C13   A    
O26   C50   S    
C9    C29   A    
C16   C20   A    
C20   C24   A    
C46   H14   S    
C47   H15   S    
O8    C4    A    
C49   H21   S    
C50   H24   S    
C13   C17   A    
C39   H8    S    
C15   C19   A    
C5    C39   S    
C24   C28   A    
C52   H31   S    
