data_mof_unit_pretest_1531.cif
_audit_creation_date              2012-12-10T17:59:47-0500
_audit_creation_method            fapswitch 2.2
_symmetry_space_group_name_H-M    P1
_symmetry_Int_Tables_number       1
_space_group_crystal_system       triclinic
_cell_length_a                    18.643209
_cell_length_b                    18.839209
_cell_length_c                    18.69211
_cell_angle_alpha                 109.548325
_cell_angle_beta                  109.63278
_cell_angle_gamma                 109.36566
_cell_volume                      5045.47969524

loop_
_atom_site_label
_atom_site_type_symbol
_atom_type_description
_atom_site_fract_x
_atom_site_fract_y
_atom_site_fract_z
_atom_type_partial_charge
C1    C     C_R   0.620113 0.619871 0.499520 0.940413
C2    C     C_3   0.179336 0.419286 0.199601 -0.220226
C3    C     C_3   0.222244 0.481275 0.298360 0.193841
C4    C     C_3   0.313061 0.499800 0.310978 -0.223699
C5    C     C_R   0.754967 0.761061 0.580056 0.133754
C6    C     C_R   0.819224 0.825616 0.580517 0.154418
C7    C     C_R   0.814417 0.813835 0.500256 -0.218248
C8    C     C_R   0.749814 0.736628 0.420414 0.181587
C9    C     C_R   0.686101 0.671390 0.419906 0.111901
C10   C     C_R   0.687596 0.685354 0.499555 -0.171100
C11   C     C_R   0.673806 0.490552 0.753626 -0.205119
C12   C     C_R   0.379107 0.499571 0.378905 0.918416
C13   C     C_R   0.737588 0.490290 0.818051 0.260619
C14   C     C_R   0.815914 0.501884 0.816808 -0.139955
C15   C     C_R   0.830756 0.517295 0.752435 0.199990
C16   C     C_R   0.764398 0.514254 0.687007 -0.260510
C17   C     C_R   0.686960 0.500847 0.688027 -0.086293
C18   C     C_R   0.235125 0.316498 0.487067 0.141732
C19   C     C_R   0.170147 0.252517 0.486705 0.195692
C20   C     C_R   0.186671 0.190379 0.503876 -0.103084
C21   C     C_R   0.266298 0.191976 0.520449 -0.203057
C22   C     C_R   0.329054 0.253500 0.517516 -0.204303
C23   C     C_R   0.380910 0.380224 0.501251 0.862023
C24   C     C_R   0.313532 0.315281 0.500982 -0.093036
C25   C     C_R   0.002297 0.619852 0.122411 0.979600
C26   C     C_R   0.124659 0.498643 0.122431 0.948041
C27   C     C_R   0.002894 0.379988 0.882768 0.901990
C28   C     C_R   0.882551 0.500890 0.883394 0.916512
C29   C     C_R   0.002409 0.881659 0.380117 0.952535
C30   C     C_R   0.879928 0.880342 0.500332 0.964816
C31   C     C_R   0.999456 0.120119 0.619617 0.901683
C32   C     C_R   0.120352 0.121384 0.501238 0.882960
C33   C     C_R   0.987180 0.749362 0.169738 0.216876
C34   C     C_R   0.620465 0.499899 0.621211 0.875381
C35   C     C_R   0.990642 0.816623 0.234506 0.252762
C36   C     C_R   0.002861 0.816467 0.313060 -0.198311
C37   C     C_R   0.014405 0.752271 0.328006 -0.207487
C38   C     C_R   0.013698 0.687140 0.265342 0.248670
C39   C     C_R   0.000025 0.685724 0.186311 -0.207641
C40   C     C_R   0.079068 0.318712 0.824991 -0.282882
C41   C     C_R   0.079805 0.254121 0.762813 0.183489
C42   C     C_R   0.999288 0.186031 0.686460 -0.113328
C43   C     C_R   0.918268 0.180627 0.674755 0.115621
C44   C     C_R   0.918656 0.244505 0.740437 0.141653
C45   C     C_3   0.324621 0.578227 0.297717 0.210682
C46   C     C_R   0.999777 0.313838 0.813995 -0.110429
C47   C     C_3   0.233125 0.559977 0.286306 -0.220771
C48   C     C_3   0.192273 0.498671 0.187787 -0.172188
C49   C     C_3   0.282920 0.518007 0.198282 0.244585
C50   C     C_3   0.271463 0.439433 0.211717 0.221072
H1    H     H_    0.215582 0.608688 0.315604 0.204448
H2    H     H_    0.613647 0.482170 0.754246 0.176495
H3    H     H_    0.774096 0.524535 0.636478 0.147108
H4    H     H_    0.278827 0.143942 0.533034 0.179484
H5    H     H_    0.390191 0.253746 0.529239 0.162953
H6    H     H_    0.023892 0.752686 0.388667 0.203578
H7    H     H_    0.140579 0.371730 0.883655 0.192012
H8    H     H_    0.118903 0.354306 0.158068 0.186433
O1    O     O_R   0.592040 0.539900 0.448690 -0.608500
O2    O     O_R   0.054890 0.643310 0.094620 -0.599277
O3    O     O_R   0.044450 0.448260 0.096050 -0.622754
O4    O     O_R   0.147910 0.551670 0.096030 -0.587797
O5    O     O_R   0.952840 0.356630 0.912840 -0.606839
O6    O     O_R   0.056290 0.460040 0.912820 -0.627725
O7    O     O_R   0.859820 0.448260 0.911420 -0.595646
O8    O     O_R   0.963280 0.551670 0.911400 -0.581773
O9    O     O_R   0.052810 0.908290 0.461080 -0.636812
O10   O     O_R   0.948580 0.908330 0.356880 -0.558276
O11   O     O_R   0.960490 0.908280 0.552000 -0.584162
O12   O     O_R   0.591220 0.643330 0.551330 -0.586774
O13   O     O_R   0.856260 0.908310 0.447800 -0.588165
O14   O     O_R   0.051420 0.091500 0.642940 -0.575388
O15   O     O_R   0.947190 0.091540 0.538750 -0.621799
O16   O     O_R   0.143740 0.091510 0.552020 -0.635683
O17   O     O_R   0.039510 0.091550 0.447830 -0.585570
O18   O     O_R   0.408100 0.448290 0.356370 -0.580666
O19   O     O_R   0.407270 0.551710 0.459000 -0.617951
O20   O     O_R   0.408780 0.356670 0.448670 -0.607673
O21   O     O_R   0.407960 0.460100 0.551310 -0.624220
O22   O     O_R   0.592730 0.448290 0.541000 -0.624303
O23   O     O_R   0.591900 0.551710 0.643630 -0.611360
O24   O     O_R   0.951430 0.539890 0.094630 -0.570180
Zn1   Zn    Zn3+2 0.500550 0.430940 0.431470 1.034612
Zn2   Zn    Zn3+2 0.499450 0.569060 0.568530 1.003759
Zn3   Zn    Zn3+2 0.934780 0.430920 0.003740 1.059836
Zn4   Zn    Zn3+2 0.072940 0.569020 0.003710 1.069745
Zn5   Zn    Zn3+2 0.069600 0.999890 0.569480 1.041192
Zn6   Zn    Zn3+2 0.930400 0.999940 0.430340 1.072596
N1    N     N_2   0.622162 0.590741 0.340284 -0.293129
H9    H     H_    0.645390 0.567374 0.300360 0.271458
C51   C     C_3   0.539321 0.584980 0.292900 -0.549596
H10   H     H_    0.549350 0.635740 0.273689 0.272645
H11   H     H_    0.508316 0.592656 0.334006 0.234983
H12   H     H_    0.493988 0.519956 0.232722 0.260917
Br1   Br    Br    0.716327 0.481763 0.909543 -0.421287
N2    N     N_2   0.913519 0.541724 0.756035 -0.268406
H13   H     H_    0.929277 0.585097 0.734192 0.235406
C52   C     C_3   0.927075 0.470354 0.717803 -0.757459
H14   H     H_    0.875035 0.425264 0.647662 0.229341
H15   H     H_    0.927486 0.435181 0.754832 0.245771
H16   H     H_    0.992057 0.495998 0.721821 0.243992
N3    N     N_2   0.219474 0.379243 0.469234 -0.306040
H17   H     H_    0.243778 0.394667 0.431356 0.243689
C53   C     C_3   0.236593 0.453926 0.543445 -0.704314
H18   H     H_    0.290151 0.514457 0.557521 0.239568
H19   H     H_    0.256625 0.449015 0.603966 0.239777
H20   H     H_    0.176305 0.459167 0.527402 0.235446
N4    N     N_2   0.086924 0.247803 0.464291 -0.267999
H21   H     H_    0.062079 0.256958 0.411893 0.252412
C54   C     C_3   0.077620 0.294128 0.536923 -0.769830
H22   H     H_    0.051657 0.336469 0.524045 0.234390
H23   H     H_    0.141337 0.336105 0.599670 0.227899
H24   H     H_    0.030393 0.246628 0.544023 0.255474
Br2   Br    Br    0.961028 0.742468 0.057482 -0.381635
Br3   Br    Br    0.426400 0.694338 0.370335 -0.470758
Br4   Br    Br    0.985048 0.910653 0.217027 -0.381380
Br5   Br    Br    0.035502 0.604219 0.292876 -0.538247
N5    N     N_2   0.161366 0.256805 0.779159 -0.266554
H25   H     H_    0.205545 0.284399 0.844836 0.257853
C55   C     C_3   0.201706 0.291988 0.736081 -0.735811
H26   H     H_    0.215701 0.360077 0.758090 0.233070
H27   H     H_    0.158118 0.251492 0.663994 0.226147
H28   H     H_    0.264437 0.291334 0.752498 0.253535
N6    N     N_2   0.837187 0.111612 0.597090 -0.297450
H29   H     H_    0.790552 0.128459 0.574674 0.246343
C56   C     C_3   0.801054 0.030761 0.596866 -0.680701
H30   H     H_    0.786649 0.039863 0.651270 0.233950
H31   H     H_    0.847823 0.006331 0.603654 0.253901
H32   H     H_    0.739220 0.981151 0.533470 0.246066
N7    N     N_2   0.838254 0.236446 0.736159 -0.284112
H33   H     H_    0.796940 0.177833 0.727002 0.245277
C57   C     C_3   0.793217 0.265577 0.683130 -0.803520
H34   H     H_    0.724483 0.212441 0.633306 0.242024
H35   H     H_    0.826059 0.285328 0.647803 0.233546
H36   H     H_    0.790987 0.321183 0.725879 0.257665
Br6   Br    Br    0.325804 0.544098 0.123794 -0.433107
Br7   Br    Br    0.295382 0.351023 0.153423 -0.429658
N8    N     N_2   0.191053 0.465044 0.355332 -0.315556
H37   H     H_    0.225188 0.518823 0.417189 0.246211
C58   C     C_3   0.096774 0.423501 0.318211 -0.690019
H38   H     H_    0.079991 0.416661 0.368057 0.236666
H39   H     H_    0.064422 0.357439 0.261145 0.243491
H40   H     H_    0.071474 0.462905 0.297231 0.280168
N9    N     N_2   0.758976 0.770138 0.660449 -0.272898
H41   H     H_    0.777680 0.831613 0.706107 0.273618
C59   C     C_3   0.802899 0.730268 0.697649 -0.665138
H42   H     H_    0.796229 0.733807 0.755398 0.252485
H43   H     H_    0.873888 0.764709 0.718988 0.260445
H44   H     H_    0.772756 0.660751 0.648764 0.204121
Br8   Br    Br    0.914470 0.927790 0.691953 -0.514478
Br9   Br    Br    0.750210 0.717977 0.312133 -0.457273

loop_
_geom_bond_atom_site_label_1
_geom_bond_atom_site_label_2
_ccdc_geom_bond_type
C56   H30   S    
C31   C42   S    
C41   C42   A    
N5    H25   S    
N7    C57   S    
C35   C36   A    
C58   H40   S    
O14   Zn5   S    
C32   O17   A    
C53   H19   S    
C30   O13   A    
C50   Br7   S    
C7    C8    A    
C16   H3    S    
C40   C46   A    
O4    Zn4   S    
C29   C36   S    
C33   Br2   S    
C33   C39   A    
C13   Br1   S    
C18   C24   A    
C5    C6    A    
C36   C37   A    
C26   O3    A    
O1    Zn1   S    
C2    C3    S    
C1    O1    A    
C32   O16   A    
O21   Zn2   S    
C31   O15   A    
O10   Zn6   S    
C16   C17   A    
C44   N7    S    
C15   C16   A    
C59   H44   S    
N4    H21   S    
C18   C19   A    
C18   N3    S    
C54   H22   S    
C11   H2    S    
C2    C50   S    
C34   O22   A    
C29   O9    A    
C37   H6    S    
O20   Zn1   S    
C19   C20   A    
C44   C46   A    
C8    C9    A    
N2    C52   S    
C23   C24   S    
C31   O14   A    
C34   O23   A    
C41   N5    S    
N1    C51   S    
O12   Zn2   S    
C9    C10   A    
O11   Zn5   S    
C55   H28   S    
C26   C48   S    
C19   N4    S    
C7    C30   S    
C21   C22   A    
O5    Zn3   S    
C38   Br5   S    
C30   O11   A    
O22   Zn1   S    
O18   Zn1   S    
O6    Zn4   S    
C53   H18   S    
C55   H27   S    
C59   H43   S    
C4    C45   S    
C45   C47   S    
C8    Br9   S    
C58   H38   S    
N9    C59   S    
N8    H37   S    
C9    N1    S    
C15   N2    S    
O2    Zn4   S    
C57   H34   S    
C5    N9    S    
C47   H1    S    
C56   H32   S    
C2    C48   S    
C4    C50   S    
C28   O8    A    
C43   C44   A    
O15   Zn6   S    
C37   C38   A    
C51   H11   S    
C29   O10   A    
C45   Br3   S    
C47   C48   S    
C45   C49   S    
C12   O19   A    
C35   Br4   S    
C3    N8    S    
N3    C53   S    
C54   H24   S    
C22   H5    S    
O3    Zn3   S    
N5    C55   S    
C27   C46   S    
C40   C41   A    
C25   O2    A    
C49   Br6   S    
C52   H14   S    
C52   H15   S    
C12   O18   A    
C25   O24   A    
O16   Zn5   S    
C22   C24   A    
C4    C12   S    
C42   C43   A    
C3    C4    S    
O24   Zn3   S    
C51   H10   S    
O23   Zn2   S    
N2    H13   S    
N6    C56   S    
C59   H42   S    
C20   C32   S    
C11   C17   A    
C56   H31   S    
C40   H7    S    
C14   C15   A    
C1    C10   S    
C58   H39   S    
N9    H41   S    
O8    Zn4   S    
C2    H8    S    
O7    Zn3   S    
C6    C7    A    
N8    C58   S    
C52   H16   S    
O9    Zn5   S    
C1    O12   A    
O19   Zn2   S    
C21   H4    S    
C14   C28   S    
N7    H33   S    
C26   O4    A    
C5    C10   A    
C25   C39   S    
C51   H12   S    
C11   C13   A    
C38   C39   A    
C57   H36   S    
C48   C49   S    
C3    C47   S    
C33   C35   A    
N4    C54   S    
C28   O7    A    
C23   O20   A    
N3    H17   S    
C54   H23   S    
C27   O6    A    
O13   Zn6   S    
C6    Br8   S    
O17   Zn6   S    
C20   C21   A    
C57   H35   S    
C49   C50   S    
C17   C34   S    
C55   H26   S    
C27   O5    A    
C23   O21   A    
N1    H9    S    
C13   C14   A    
C43   N6    S    
C53   H20   S    
N6    H29   S    
