data_mof_unit_pretest_107.cif
_audit_creation_date              2012-12-10T16:53:10-0500
_audit_creation_method            fapswitch 2.2
_symmetry_space_group_name_H-M    P1
_symmetry_Int_Tables_number       1
_space_group_crystal_system       triclinic
_cell_length_a                    10.807245
_cell_length_b                    10.924306
_cell_length_c                    9.732206
_cell_angle_alpha                 90.030302
_cell_angle_beta                  89.297945
_cell_angle_gamma                 91.672041
_cell_volume                      1148.42485328

loop_
_atom_site_label
_atom_site_type_symbol
_atom_type_description
_atom_site_fract_x
_atom_site_fract_y
_atom_site_fract_z
_atom_type_partial_charge
C1    C     C_R   0.498734 0.265427 0.500079 0.939079
C2    C     C_R   0.071093 0.614152 0.530543 0.078685
C3    C     C_R   0.130076 0.503379 0.505457 -0.116701
C4    C     C_R   0.062623 0.396425 0.477055 -0.229483
C5    C     C_R   0.934224 0.396120 0.474830 0.408311
C6    C     C_R   0.872908 0.507889 0.491591 -0.210961
C7    C     C_2   0.487379 0.932538 0.387647 -0.093383
C8    C     C_2   0.482762 0.865726 0.503142 -0.303005
C9    C     C_2   0.484795 0.066581 0.387974 -0.077520
C10   C     C_2   0.499077 0.133240 0.502545 -0.282348
C11   C     C_2   0.453979 0.412253 0.923337 -0.102677
C12   C     C_R   0.263015 0.498464 0.501333 0.812092
C13   C     C_2   0.427243 0.430021 0.073714 0.475969
C14   C     C_R   0.493611 0.734118 0.500351 0.858229
C15   C     C_R   0.737869 0.505047 0.498330 0.927555
C16   C     C_R   0.138171 0.720567 0.572115 -0.150754
C17   C     C_R   0.080111 0.832049 0.583569 -0.148444
C18   C     C_R   0.958527 0.841359 0.541352 -0.083104
C19   C     C_R   0.892167 0.737815 0.495456 0.216589
C20   C     C_R   0.942648 0.619796 0.507317 -0.013738
Cu1   Cu    Cu3+1 0.500020 0.500020 0.638630 1.006876
Cu2   Cu    Cu3+1 0.499980 0.499980 0.361370 1.083618
H1    H     H_    0.111197 0.312286 0.460067 0.208266
H2    H     H_    0.513740 0.092472 0.601996 0.142231
H3    H     H_    0.420809 0.328827 0.873985 0.199904
H4    H     H_    0.519424 0.580899 0.894321 0.199840
H5    H     H_    0.579209 0.532462 0.107861 0.182422
H6    H     H_    0.235466 0.718623 0.596063 0.136131
H7    H     H_    0.132175 0.913086 0.615572 0.169890
H8    H     H_    0.918925 0.930938 0.534483 0.203927
H9    H     H_    0.494901 0.888185 0.288088 0.195645
H10   H     H_    0.470032 0.905932 0.603676 0.144704
H11   H     H_    0.474488 0.111194 0.289238 0.203383
N1    N     N_2   0.498640 0.498660 0.846910 -0.302754
N2    N     N_2   0.498610 0.498630 0.153040 -0.328553
O1    O     O_R   0.500020 0.321960 0.617040 -0.581401
O2    O     O_R   0.499980 0.321920 0.382900 -0.529351
O3    O     O_R   0.319670 0.500020 0.617100 -0.586579
O4    O     O_R   0.319630 0.499980 0.382950 -0.496285
O5    O     O_R   0.500020 0.678080 0.617100 -0.595934
O6    O     O_R   0.499980 0.678040 0.382960 -0.554655
O7    O     O_R   0.680370 0.500020 0.617050 -0.550575
O8    O     O_R   0.680330 0.499980 0.382900 -0.534205
S1    S     S_3+6 0.282631 0.362923 0.127970 0.041334
O9    O     O_2   0.229972 0.284100 0.014897 -0.297997
O10   O     O_2   0.294355 0.284618 0.253364 -0.303359
O11   O     O_3   0.183046 0.475367 0.159593 -0.505941
H12   H     H_    0.101771 0.432960 0.174860 0.381742
Br1   Br    Br    0.767192 0.772158 0.365806 -0.496730
S2    S     S_3+6 0.853902 0.253826 0.451992 0.006487
O12   O     O_2   0.765375 0.262060 0.334793 -0.270273
O13   O     O_2   0.943600 0.154398 0.421560 -0.294228
O14   O     O_3   0.774862 0.219420 0.597415 -0.547494
H13   H     H_    0.760049 0.129558 0.594243 0.365524

loop_
_geom_bond_atom_site_label_1
_geom_bond_atom_site_label_2
_ccdc_geom_bond_type
C16   H6    S    
S2    O13   D    
C13   N2    D    
C18   H8    S    
C2    C16   A    
C6    C20   A    
C9    C10   D    
C19   Br1   S    
Cu2   O8    S    
Cu1   N1    S    
S1    O11   S    
C1    O2    A    
C10   H2    S    
C12   O4    A    
C17   C18   A    
C3    C4    A    
C15   O8    A    
C7    C8    D    
Cu1   O1    S    
O14   H13   S    
C9    H11   S    
Cu2   N2    S    
C11   C13   S    
Cu1   O5    S    
C14   O6    A    
Cu2   O4    S    
S1    O10   D    
S2    O12   D    
C2    C3    A    
C11   N1    D    
C12   O3    A    
C5    C6    A    
C5    S2    S    
Cu2   O6    S    
C7    H9    S    
C11   H3    S    
C2    C20   A    
Cu1   O7    S    
S2    O14   S    
O11   H12   S    
C17   H7    S    
S1    O9    D    
C15   O7    A    
C18   C19   A    
C1    C10   S    
C7    C9    S    
C4    H1    S    
C16   C17   A    
C8    C14   S    
C3    C12   S    
H5    N2    S    
C6    C15   S    
Cu1   Cu2   S    
Cu2   O2    S    
C14   O5    A    
H4    N1    S    
C13   S1    S    
Cu1   O3    S    
C19   C20   A    
C1    O1    A    
C4    C5    A    
C8    H10   S    
