data_mof_unit_pretest_783.cif
_audit_creation_date              2012-12-10T19:06:59-0500
_audit_creation_method            fapswitch 2.2
_symmetry_space_group_name_H-M    P1
_symmetry_Int_Tables_number       1
_space_group_crystal_system       triclinic
_cell_length_a                    27.803999
_cell_length_b                    10.822427
_cell_length_c                    9.543158
_cell_angle_alpha                 90.272209
_cell_angle_beta                  88.953733
_cell_angle_gamma                 90.804664
_cell_volume                      2870.80973948

loop_
_atom_site_label
_atom_site_type_symbol
_atom_type_description
_atom_site_fract_x
_atom_site_fract_y
_atom_site_fract_z
_atom_type_partial_charge
C1    C     C_R   0.499011 0.262355 0.499681 0.798087
C2    C     C_R   0.974552 0.369166 0.552652 0.042800
C3    C     C_R   0.973725 0.597087 0.563757 0.051898
C4    C     C_R   0.407430 0.499461 0.501311 0.798470
C5    C     C_R   0.948863 0.481581 0.558099 0.066347
C6    C     C_R   0.947986 0.257000 0.540999 -0.201990
C7    C     C_R   0.898038 0.255378 0.537937 -0.141660
C8    C     C_R   0.872435 0.365250 0.545954 -0.024703
C9    C     C_R   0.897680 0.478537 0.556965 -0.043662
C10   C     C_R   0.871613 0.588915 0.565645 -0.025529
C11   C     C_R   0.821219 0.584350 0.560588 0.544047
C12   C     C_R   0.279578 0.488090 0.640965 -0.095552
C13   C     C_R   0.821945 0.364791 0.540034 0.544166
C14   C     C_R   0.715905 0.425489 0.635209 -0.096314
C15   C     C_R   0.666156 0.432313 0.622312 -0.302970
C16   C     C_R   0.498616 0.737671 0.500193 0.842987
C17   C     C_R   0.676494 0.532485 0.396194 0.405477
C18   C     C_R   0.726605 0.524508 0.410137 -0.198728
C19   C     C_R   0.746277 0.472774 0.529749 0.311013
C20   C     C_R   0.025674 0.372402 0.556607 0.047722
C21   C     C_R   0.050681 0.488099 0.553445 0.069411
C22   C     C_R   0.024936 0.600276 0.555293 0.044716
C23   C     C_R   0.253503 0.493354 0.517328 0.354450
C24   C     C_R   0.052883 0.263303 0.563763 -0.205702
C25   C     C_R   0.101527 0.716757 0.546311 -0.003323
C26   C     C_R   0.946153 0.705760 0.577790 -0.200859
C27   C     C_R   0.896242 0.701453 0.578347 -0.144756
C28   C     C_R   0.592669 0.497451 0.499633 0.862635
C29   C     C_R   0.051352 0.712597 0.549105 -0.268222
C30   C     C_R   0.486663 0.063887 0.622850 0.016178
C31   C     C_R   0.493788 0.129321 0.498371 -0.104987
C32   C     C_R   0.492891 0.063667 0.370884 -0.194040
C33   C     C_R   0.492407 0.934789 0.371364 -0.169157
C34   C     C_R   0.101934 0.491243 0.547242 -0.061977
C35   C     C_R   0.492838 0.870472 0.499252 -0.108277
C36   C     C_R   0.485267 0.936935 0.623249 0.172345
C37   C     C_3   0.507779 0.930302 0.764535 -0.282113
C38   C     C_3   0.509397 0.071759 0.763882 -0.263064
C39   C     C_R   0.520002 0.596860 0.072818 0.149562
C40   C     C_R   0.177932 0.382693 0.539862 0.537319
C41   C     C_R   0.475666 0.411697 0.075286 -0.047608
C42   C     C_R   0.475456 0.412087 0.926401 -0.012735
C43   C     C_R   0.520838 0.595266 0.925233 0.281078
C44   C     C_3   0.572433 0.633809 0.917176 -0.580924
C45   C     C_R   0.127599 0.379645 0.548596 -0.014999
C46   C     C_3   0.571175 0.638966 0.076200 -0.227618
C47   C     C_R   0.178252 0.602065 0.519477 0.565156
C48   C     C_R   0.277747 0.500653 0.387649 -0.094146
C49   C     C_R   0.327990 0.502569 0.381746 -0.205567
C50   C     C_R   0.329668 0.490326 0.635478 -0.187876
C51   C     C_2   0.124015 0.841203 0.559956 0.477389
C52   C     C_2   0.474463 0.878768 0.876792 0.399385
C53   C     C_2   0.559856 0.124053 0.759344 0.409325
C54   C     C_2   0.575959 0.768026 0.134189 0.472247
C55   C     C_R   0.102720 0.267110 0.559539 -0.136198
C56   C     C_R   0.127608 0.605227 0.539078 -0.050608
C57   C     C_R   0.354410 0.497614 0.505816 -0.039155
C58   C     C_R   0.645760 0.486668 0.503682 -0.079681
Cu1   Cu    Cu3+1 0.500000 0.499980 0.640670 0.996581
Cu2   Cu    Cu3+1 0.500000 0.500020 0.359330 0.983757
H1    H     H_    0.348952 0.486166 0.732886 0.166480
H2    H     H_    0.543597 0.886352 0.760806 0.118993
H3    H     H_    0.485426 0.116288 0.843440 0.165930
H4    H     H_    0.456742 0.338852 0.131645 0.131158
H5    H     H_    0.456208 0.339855 0.871262 0.124900
H6    H     H_    0.595921 0.559375 0.875516 0.233498
H7    H     H_    0.578104 0.724275 0.865134 0.181817
H8    H     H_    0.594207 0.568811 0.123664 0.250867
H9    H     H_    0.121741 0.180526 0.563941 0.193204
H10   H     H_    0.643521 0.395546 0.706243 0.202857
H11   H     H_    0.730854 0.385454 0.728337 0.162800
H12   H     H_    0.257637 0.504871 0.291732 0.142002
H13   H     H_    0.879549 0.167055 0.527978 0.187887
H14   H     H_    0.964622 0.168181 0.530265 0.135499
H15   H     H_    0.036868 0.172661 0.574709 0.133838
H16   H     H_    0.346073 0.508193 0.280461 0.163772
H17   H     H_    0.110274 0.917798 0.500272 0.030578
H18   H     H_    0.683711 0.616221 0.217120 0.331796
H19   H     H_    0.481837 0.897894 0.985994 0.037151
H20   H     H_    0.585947 0.090333 0.682747 0.081924
H21   H     H_    0.558980 0.844604 0.082454 0.018229
H22   H     H_    0.961724 0.796564 0.590420 0.137941
H23   H     H_    0.876991 0.787547 0.587839 0.189125
H24   H     H_    0.750606 0.561022 0.329259 0.140065
H25   H     H_    0.033903 0.800699 0.548091 0.121296
H26   H     H_    0.495164 0.111012 0.271179 0.165821
H27   H     H_    0.494222 0.886435 0.271942 0.154749
H28   H     H_    0.260921 0.482678 0.741403 0.142119
N1    N     N_R   0.201977 0.492541 0.524510 -0.477763
N2    N     N_R   0.797511 0.473554 0.545782 -0.458809
N3    N     N_R   0.500300 0.500930 0.147930 -0.189216
N4    N     N_R   0.500310 0.500890 0.852020 -0.166728
O1    O     O_R   0.500000 0.319640 0.618810 -0.572806
O2    O     O_R   0.569730 0.499960 0.618810 -0.591858
O3    O     O_R   0.569740 0.500000 0.381220 -0.533613
O4    O     O_2   0.202766 0.276546 0.544920 -0.514415
O5    O     O_2   0.155224 0.861368 0.645811 -0.475811
O6    O     O_3   0.657358 0.589125 0.281884 -0.710388
O7    O     O_2   0.439483 0.814949 0.847198 -0.516266
O8    O     O_2   0.571702 0.205113 0.841606 -0.542667
O9    O     O_2   0.598618 0.787943 0.240345 -0.492608
O10   O     O_2   0.797547 0.256868 0.526278 -0.525835
O11   O     O_2   0.203765 0.706221 0.491939 -0.480724
O12   O     O_2   0.796037 0.689918 0.569828 -0.524668
O13   O     O_R   0.500010 0.319680 0.381230 -0.594300
O14   O     O_R   0.430260 0.500000 0.618780 -0.577740
O15   O     O_R   0.430270 0.500040 0.381190 -0.589467
O16   O     O_R   0.499990 0.680320 0.618770 -0.560496
O17   O     O_R   0.500000 0.680360 0.381190 -0.579962

loop_
_geom_bond_atom_site_label_1
_geom_bond_atom_site_label_2
_ccdc_geom_bond_type
C10   C27   A    
C51   O5    D    
C34   C56   A    
C8    C13   A    
C22   C29   A    
C13   N2    A    
C41   C42   A    
C54   O9    D    
C44   H6    S    
C35   C36   A    
C25   C56   A    
C51   H17   S    
C37   H2    S    
C7    C8    A    
C7    H13   S    
C24   C55   A    
C46   H8    S    
C12   C23   A    
C26   C27   A    
C28   O3    A    
C36   C37   S    
C40   O4    S    
C16   C35   S    
C30   C31   A    
C1    C31   S    
C49   C57   A    
C30   C38   S    
C28   O2    A    
C18   C19   A    
C14   H11   S    
Cu2   O17   S    
C20   C24   A    
C8    C9    A    
C4    C57   S    
H18   O6    S    
C42   H5    S    
C18   H24   S    
C23   N1    S    
C11   O12   S    
Cu1   O2    S    
C40   N1    A    
C52   H19   S    
C17   O6    S    
C3    C22   A    
C29   H25   S    
C17   C58   A    
Cu1   Cu2   S    
C26   H22   S    
C21   C22   A    
C47   N1    A    
C2    C6    A    
C48   H12   S    
C39   N3    A    
C44   C46   S    
C16   O17   A    
C6    H14   S    
C53   O8    D    
C25   C29   A    
C40   C45   A    
C4    O15   A    
Cu1   O14   S    
C47   O11   S    
C12   H28   S    
C2    C20   A    
C53   H20   S    
C37   C52   S    
C39   C43   A    
C21   C34   A    
C4    O14   A    
C43   C44   S    
C25   C51   S    
C5    C9    A    
C37   C38   S    
C31   C32   A    
C32   H26   S    
C46   C54   S    
C17   C18   A    
C49   H16   S    
C34   C45   A    
C55   H9    S    
Cu2   O15   S    
C39   C46   S    
C48   C49   A    
C41   N3    A    
C15   C58   A    
C2    C5    A    
C38   H3    S    
C9    C10   A    
Cu2   N3    S    
C15   H10   S    
C23   C48   A    
C50   C57   A    
C14   C19   A    
C3    C26   A    
C43   N4    A    
C3    C5    A    
C12   C50   A    
C24   H15   S    
C6    C7    A    
C28   C58   S    
C52   O7    D    
Cu1   O16   S    
C30   C36   A    
C32   C33   A    
C27   H23   S    
C33   H27   S    
C19   N2    S    
C11   N2    A    
C38   C53   S    
C33   C35   A    
C42   N4    A    
Cu1   N4    S    
C10   C11   A    
C16   O16   A    
Cu2   O3    S    
C20   C21   A    
C45   C55   A    
C1    O1    A    
C50   H1    S    
C14   C15   A    
C44   H7    S    
Cu1   O1    S    
C41   H4    S    
C13   O10   S    
C54   H21   S    
Cu2   O13   S    
C1    O13   A    
C47   C56   A    
