data_mof_unit_pretest_1383.cif
_audit_creation_date              2012-12-10T20:46:48-0500
_audit_creation_method            fapswitch 2.2
_symmetry_space_group_name_H-M    P1
_symmetry_Int_Tables_number       1
_space_group_crystal_system       triclinic
_cell_length_a                    12.865297
_cell_length_b                    8.93331
_cell_length_c                    8.117471
_cell_angle_alpha                 90.034001
_cell_angle_beta                  97.389965
_cell_angle_gamma                 89.982992
_cell_volume                      925.188948543

loop_
_atom_site_label
_atom_site_type_symbol
_atom_type_description
_atom_site_fract_x
_atom_site_fract_y
_atom_site_fract_z
_atom_type_partial_charge
C1    C     C_R   0.500007 0.218030 0.499974 0.944234
C2    C     C_R   0.499993 0.781970 0.500026 0.944235
C3    C     C_R   0.297917 0.496377 0.467386 0.936663
C4    C     C_R   0.702082 0.503622 0.532614 0.936664
C5    C     C_R   0.813806 0.499646 0.553627 -0.117177
C6    C     C_R   0.186194 0.500350 0.446373 -0.117177
C7    C     C_R   0.030262 0.630179 0.333155 -0.119357
C8    C     C_R   0.969737 0.369809 0.666840 -0.119352
C9    C     C_R   0.135748 0.603200 0.334366 -0.262223
C10   C     C_R   0.864251 0.396789 0.665630 -0.262221
C11   C     C_R   0.131513 0.415408 0.551591 0.321344
C12   C     C_R   0.868487 0.584587 0.448409 0.321341
C13   C     C_R   0.025497 0.445192 0.554789 0.039401
C14   C     C_R   0.974502 0.554800 0.445209 0.039398
C15   C     C_1   0.500000 0.065199 0.499961 -0.139792
C16   C     C_1   0.500000 0.934801 0.500039 -0.139792
H1    H     H_    0.820881 0.332199 0.746954 0.184106
H2    H     H_    0.179117 0.667786 0.253039 0.184109
H3    H     H_    0.994042 0.712249 0.246139 0.213784
H4    H     H_    0.005956 0.287733 0.753854 0.213782
N1    N     N_1   0.500020 0.500000 0.073640 -0.005746
N2    N     N_1   0.499980 0.500000 0.926360 -0.005746
O1    O     O_R   0.499990 0.285340 0.636850 -0.602725
O2    O     O_R   0.500010 0.714660 0.363150 -0.602725
O3    O     O_R   0.500010 0.285340 0.363150 -0.618211
O4    O     O_R   0.499990 0.714660 0.636850 -0.618211
O5    O     O_R   0.346350 0.500000 0.614250 -0.579206
O6    O     O_R   0.653650 0.500000 0.385750 -0.579207
O7    O     O_R   0.346360 0.500000 0.340500 -0.630331
O8    O     O_R   0.653640 0.500000 0.659500 -0.630330
Zn1   Zn    Zn3+2 0.499990 0.500000 0.682780 1.049607
Zn2   Zn    Zn3+2 0.500010 0.500000 0.317220 1.049606
Cl1   Cl    Cl    0.803713 0.729601 0.324812 -0.614371
Cl2   Cl    Cl    0.196289 0.270400 0.675192 -0.614371

loop_
_geom_bond_atom_site_label_1
_geom_bond_atom_site_label_2
_ccdc_geom_bond_type
O2    Zn2   S    
C8    C13   A    
C1    C15   S    
C2    C16   S    
C3    C6    S    
C6    C9    A    
C3    O5    A    
C5    C10   A    
C2    O4    A    
C13   C14   A    
C1    O3    A    
C11   C13   A    
C3    O7    A    
C8    H4    S    
O3    Zn2   S    
C4    O6    A    
C12   C14   A    
C1    O1    A    
O7    Zn2   S    
C7    H3    S    
C11   Cl2   S    
C2    O2    A    
O8    Zn1   S    
N1    Zn2   S    
N2    Zn1   S    
C10   H1    S    
O5    Zn1   S    
C15   C16   T    
C9    H2    S    
O6    Zn2   S    
C5    C12   A    
C8    C10   A    
C6    C11   A    
C7    C9    A    
C12   Cl1   S    
N1    N2    T    
O4    Zn1   S    
C7    C14   A    
C4    O8    A    
C4    C5    S    
O1    Zn1   S    
