data_mof_unit_pretest_1312.cif
_audit_creation_date              2013-03-05T16:04:19-0500
_audit_creation_method            fapswitch 2.2
_symmetry_space_group_name_H-M    P1
_symmetry_Int_Tables_number       1
_space_group_crystal_system       triclinic
_cell_length_a                    9.503523
_cell_length_b                    10.834431
_cell_length_c                    13.496525
_cell_angle_alpha                 90.209362
_cell_angle_beta                  74.154505
_cell_angle_gamma                 90.011296
_cell_volume                      1336.85836041

loop_
_atom_site_label
_atom_site_type_symbol
_atom_site_description
_atom_site_fract_x
_atom_site_fract_y
_atom_site_fract_z
_atom_type_partial_charge
O1    O     O_R   0.381250 0.680340 0.500010 -0.590666
O2    O     O_R   0.618820 0.680370 0.500010 -0.590005
C1    C     C_R   0.500001 0.737974 0.500097 0.802690
O3    O     O_R   0.323240 0.499950 0.650980 -0.587768
O4    O     O_R   0.560810 0.499980 0.650980 -0.600603
C2    C     C_R   0.425573 0.481971 0.697681 0.825474
Cu1   Cu    Cu3+1 0.359340 0.499980 0.500000 0.997271
Cu2   Cu    Cu3+1 0.640660 0.500020 0.500000 0.955784
O5    O     O_R   0.381180 0.319630 0.499990 -0.595667
O6    O     O_R   0.618750 0.319660 0.499990 -0.607501
O7    O     O_R   0.439190 0.500020 0.349020 -0.507028
O8    O     O_R   0.676760 0.500050 0.349020 -0.578931
C3    C     C_R   0.500000 0.262026 0.499893 0.791636
C4    C     C_R   0.576290 0.494276 0.300318 0.853464
C5    C     C_R   0.807067 0.480009 0.026796 -0.093241
H1    H     H_    0.845555 0.519461 0.171390 0.200539
H2    H     H_    0.920501 0.496879 0.986038 0.156556
C6    C     C_R   0.617714 0.476831 0.187598 -0.175071
C7    C     C_R   0.248944 0.393773 0.851264 -0.288455
C8    C     C_R   0.214041 0.340660 0.949094 0.348297
C9    C     C_R   0.316650 0.345620 0.006267 -0.157306
C10   C     C_R   0.455922 0.399573 0.966133 0.028684
C11   C     C_R   0.500865 0.421027 0.858785 0.081737
C12   C     C_R   0.556016 0.426626 0.026115 -0.016442
C13   C     C_R   0.705390 0.448067 0.973472 0.127431
C14   C     C_R   0.753205 0.436819 0.867134 -0.174785
C15   C     C_R   0.653203 0.422138 0.810636 -0.179941
C16   C     C_R   0.512837 0.442383 0.134879 0.296350
C17   C     C_R   0.763973 0.493590 0.132631 -0.189831
C18   C     C_R   0.391706 0.434264 0.804361 -0.154919
H3    H     H_    0.166728 0.396696 0.809331 0.185141
H4    H     H_    0.289961 0.297166 0.078129 0.226884
H5    H     H_    0.700872 0.404605 0.729994 0.185266
C19   C     C_R   0.627381 0.936223 0.501274 -0.167202
H6    H     H_    0.726972 0.888231 0.502263 0.149958
C20   C     C_R   0.627390 0.063917 0.501187 -0.166193
H7    H     H_    0.726986 0.111985 0.502119 0.147688
C21   C     C_R   0.499987 0.128222 0.499956 -0.013267
C22   C     C_R   0.372566 0.063834 0.498835 -0.151165
H8    H     H_    0.272985 0.111833 0.497832 0.149287
C23   C     C_R   0.372546 0.936140 0.498945 -0.167495
H9    H     H_    0.272938 0.888081 0.498037 0.150888
C24   C     C_R   0.499971 0.871818 0.500125 -0.025005
C25   C     C_R   0.908296 0.594495 0.544708 -0.030662
C26   C     C_R   0.057288 0.594702 0.544317 -0.024289
N1    N     N_R   0.147940 0.499970 0.499970 -0.166173
C27   C     C_R   0.090430 0.404003 0.457892 0.064686
H10   H     H_    0.158089 0.325825 0.425950 0.164903
C28   C     C_R   0.942246 0.404764 0.456647 -0.007992
H11   H     H_    0.900048 0.328557 0.421472 0.139110
N2    N     N_R   0.852060 0.500060 0.499990 -0.172897
H12   H     H_    0.838377 0.669897 0.581073 0.127542
H13   H     H_    0.099236 0.670352 0.580279 0.123859
H14   H     H_    0.868606 0.442706 0.826855 0.149641
N3    N     N_R   0.362860 0.429634 0.191835 0.106218
O9    O     O_R   0.320836 0.331631 0.247505 -0.401035
O10   O     O_R   0.269739 0.517519 0.191369 -0.352724
N4    N     N_R   0.075762 0.279785 0.989692 0.116992
O11   O     O_R   0.029711 0.252726 0.087105 -0.341607
O12   O     O_R   0.997687 0.245978 0.928675 -0.378111

loop_
_geom_bond_atom_site_label_1
_geom_bond_atom_site_label_2
_geom_bond_distance
_ccdc_geom_bond_type
O4    Cu2   1.970705 S    
N3    O9    1.301257 A    
Cu1   N1    2.009156 S    
C5    H2    1.083951 S    
C11   C15   1.415872 A    
C23   H9    1.083274 S    
C4    C6    1.475142 S    
C7    C8    1.396731 A    
Cu2   O8    1.971848 S    
C7    H3    1.083243 S    
C8    C9    1.399934 A    
C25   H12   1.081193 S    
C28   N2    1.365629 A    
C20   C21   1.401087 A    
O2    C1    1.290022 A    
C14   C15   1.380111 A    
C26   H13   1.081162 S    
Cu1   Cu2   2.673532 S    
C27   C28   1.412971 A    
C6    C17   1.397544 A    
O1    Cu1   1.965123 S    
C9    C10   1.413312 A    
C15   H5    1.074796 S    
Cu1   O7    1.970706 S    
C23   C24   1.401187 A    
Cu2   N2    2.009008 S    
C1    C24   1.450122 S    
C3    C21   1.449692 S    
C21   C22   1.401032 A    
O3    Cu1   1.971847 S    
C14   H14   1.084911 S    
C25   N2    1.366802 A    
O3    C2    1.310244 A    
C20   H7    1.083292 S    
C13   C14   1.386987 A    
C16   N3    1.429639 S    
O8    C4    1.300016 A    
C5    C17   1.381579 A    
C19   C20   1.383499 A    
N3    O10   1.301265 A    
O4    C2    1.282807 A    
C19   H6    1.083274 S    
C9    H4    1.072353 S    
C10   C12   1.436948 A    
C5    C13   1.396157 A    
C19   C24   1.401118 A    
N4    O12   1.301629 A    
C11   C18   1.432911 A    
C27   H10   1.078384 S    
C6    C16   1.422723 A    
C12   C13   1.422770 A    
H1    C17   1.083355 S    
C22   C23   1.383505 A    
C28   H11   1.081157 S    
C10   C11   1.414242 A    
C22   H8    1.083275 S    
Cu1   O5    1.965018 S    
O5    C3    1.289998 A    
N1    C27   1.366479 A    
C2    C18   1.481933 S    
N4    O11   1.301755 A    
C26   N1    1.366801 A    
C7    C18   1.402396 A    
C8    N4    1.439189 S    
O7    C4    1.290583 A    
Cu2   O6    1.965123 S    
O2    Cu2   1.965020 S    
C25   C26   1.414523 A    
C12   C16   1.421839 A    
O1    C1    1.289958 A    
O6    C3    1.289977 A    
