data_mof_unit_pretest_1601.cif
_audit_creation_date              2012-12-10T21:32:44-0500
_audit_creation_method            fapswitch 2.2
_symmetry_space_group_name_H-M    P1
_symmetry_Int_Tables_number       1
_space_group_crystal_system       triclinic
_cell_length_a                    11.539846
_cell_length_b                    16.173951
_cell_length_c                    16.828412
_cell_angle_alpha                 85.597027
_cell_angle_beta                  91.145515
_cell_angle_gamma                 91.280884
_cell_volume                      3130.35891929

loop_
_atom_site_label
_atom_site_type_symbol
_atom_type_description
_atom_site_fract_x
_atom_site_fract_y
_atom_site_fract_z
_atom_type_partial_charge
C1    C     C_R   0.496195 0.487617 0.652616 0.896390
C2    C     C_R   0.503805 0.512383 0.347384 0.896389
C3    C     C_R   0.561217 0.419987 0.780317 -0.224530
C4    C     C_R   0.438784 0.580013 0.219683 -0.224530
C5    C     C_R   0.441160 0.767225 0.463080 0.287049
C6    C     C_R   0.558840 0.232775 0.536920 0.287049
C7    C     C_R   0.446106 0.853478 0.466135 -0.297762
C8    C     C_R   0.553894 0.146522 0.533865 -0.297762
C9    C     C_R   0.525840 0.890626 0.517264 0.250002
C10   C     C_R   0.474160 0.109374 0.482736 0.250002
C11   C     C_R   0.599440 0.837991 0.564818 0.077500
C12   C     C_R   0.400559 0.162009 0.435182 0.077500
C13   C     C_R   0.591907 0.751347 0.560058 -0.055759
C14   C     C_R   0.408093 0.248653 0.439941 -0.055759
C15   C     C_R   0.718082 0.499256 0.500051 0.917179
C16   C     C_R   0.281918 0.500744 0.499949 0.917178
C17   C     C_1   0.838467 0.498104 0.499957 -0.130281
C18   C     C_1   0.161533 0.501896 0.500042 -0.130281
C19   C     C_1   0.940661 0.499013 0.499969 0.042151
C20   C     C_1   0.059339 0.500987 0.500031 0.042151
C21   C     C_R   0.489082 0.477166 0.738321 -0.085307
C22   C     C_R   0.510919 0.522834 0.261679 -0.085307
C23   C     C_R   0.413848 0.525607 0.779114 0.122954
C24   C     C_R   0.586154 0.474394 0.220886 0.122953
C25   C     C_R   0.417654 0.520014 0.861699 -0.167398
C26   C     C_R   0.582350 0.479988 0.138301 -0.167398
C27   C     C_R   0.496537 0.466887 0.903706 0.284690
C28   C     C_R   0.503467 0.533115 0.096294 0.284691
C29   C     C_R   0.564385 0.414636 0.862906 -0.160570
C30   C     C_R   0.435618 0.585366 0.137094 -0.160569
H1    H     H_    0.639440 0.441881 0.107026 0.175851
H2    H     H_    0.360565 0.558122 0.892974 0.175851
H3    H     H_    0.623760 0.372671 0.895116 0.165917
H4    H     H_    0.376242 0.627331 0.104884 0.165917
H5    H     H_    0.618837 0.382248 0.749354 0.192081
H6    H     H_    0.381163 0.617752 0.250646 0.192080
H7    H     H_    0.612654 0.109127 0.571636 0.208690
H8    H     H_    0.387346 0.890873 0.428364 0.208690
H9    H     H_    0.648773 0.711411 0.596719 0.171743
H10   H     H_    0.351227 0.288588 0.403280 0.171743
N1    N     N_2   0.512381 0.466470 0.986767 -0.178975
N2    N     N_2   0.487623 0.533533 0.013233 -0.178975
N3    N     N_R   0.513820 0.716920 0.509720 -0.119961
N4    N     N_R   0.486180 0.283080 0.490280 -0.119962
N5    N     N_2   0.534261 0.978967 0.522346 -0.128765
N6    N     N_2   0.465739 0.021033 0.477654 -0.128765
O1    O     O_R   0.495050 0.422540 0.612660 -0.600517
O2    O     O_R   0.504950 0.577460 0.387340 -0.600517
O3    O     O_R   0.503930 0.561840 0.618900 -0.597564
O4    O     O_R   0.496070 0.438160 0.381100 -0.597563
O5    O     O_R   0.661110 0.430350 0.496870 -0.576511
O6    O     O_R   0.338890 0.569650 0.503130 -0.576510
O7    O     O_R   0.669990 0.569650 0.503110 -0.620895
O8    O     O_R   0.330010 0.430350 0.496890 -0.620895
Zn1   Zn    Zn3+2 0.494070 0.406980 0.495830 1.008339
Zn2   Zn    Zn3+2 0.505930 0.593020 0.504170 1.008339
I1    I     I_    0.709640 0.393578 0.278980 -0.292520
I2    I     I_    0.290361 0.606422 0.721021 -0.292520
I3    I     I_    0.683971 0.278105 0.616872 -0.301445
I4    I     I_    0.316029 0.721895 0.383128 -0.301445
I5    I     I_    0.722889 0.886798 0.644288 -0.261776
I6    I     I_    0.277111 0.113202 0.355712 -0.261776

loop_
_geom_bond_atom_site_label_1
_geom_bond_atom_site_label_2
_ccdc_geom_bond_type
C2    C22   S    
C23   I2    S    
C4    H6    S    
C1    C21   S    
C15   O5    A    
C25   C27   A    
O3    Zn2   S    
C4    C22   A    
N1    N2    D    
C27   N1    S    
C14   N4    A    
C26   C28   A    
O4    Zn1   S    
C3    H5    S    
C7    C9    A    
C25   H2    S    
C28   C30   A    
C5    N3    A    
O1    Zn1   S    
C26   H1    S    
C16   O8    A    
C6    N4    A    
N5    N6    D    
C9    N5    S    
C11   C13   A    
N4    Zn1   S    
C3    C29   A    
C16   O6    A    
C10   C12   A    
C15   O7    A    
C16   C18   S    
C17   C19   T    
C7    H8    S    
C12   C14   A    
O5    Zn1   S    
C9    C11   A    
C21   C23   A    
C10   N6    S    
C22   C24   A    
C13   H9    S    
C3    C21   A    
C8    H7    S    
C30   H4    S    
C14   H10   S    
C29   H3    S    
N3    Zn2   S    
C13   N3    A    
C23   C25   A    
C12   I6    S    
C27   C29   A    
C18   C20   T    
O2    Zn2   S    
O7    Zn2   S    
C28   N2    S    
C5    C7    A    
O8    Zn1   S    
C1    O1    A    
C6    C8    A    
C2    O4    A    
C5    I4    S    
C2    O2    A    
C15   C17   S    
O6    Zn2   S    
C1    O3    A    
C6    I3    S    
C8    C10   A    
C4    C30   A    
C19   C20   S    
C24   C26   A    
C24   I1    S    
C11   I5    S    
