data_mof_unit_pretest_224.cif
_audit_creation_date              2012-12-11T18:13:23-0500
_audit_creation_method            fapswitch 2.2
_symmetry_space_group_name_H-M    P1
_symmetry_Int_Tables_number       1
_space_group_crystal_system       triclinic
_cell_length_a                    8.178934
_cell_length_b                    12.651329
_cell_length_c                    18.700171
_cell_angle_alpha                 99.415889
_cell_angle_beta                  91.242933
_cell_angle_gamma                 98.628511
_cell_volume                      1885.19111938

loop_
_atom_site_label
_atom_site_type_symbol
_atom_type_description
_atom_site_fract_x
_atom_site_fract_y
_atom_site_fract_z
_atom_type_partial_charge
Ba1   Ba    Ba6+2 0.852780 0.548340 0.465070 1.644547
Ba2   Ba    Ba6+2 0.337060 0.451750 0.534940 1.635323
C1    C     C_3   0.613950 0.905709 0.246416 -0.416341
C2    C     C_3   0.630548 0.817797 0.291566 0.368026
C3    C     C_3   0.458961 0.274595 0.313700 0.310952
C4    C     C_3   0.431940 0.236443 0.232291 -0.403378
C5    C     C_3   0.060913 0.235077 0.736039 0.386503
C6    C     C_3   0.088842 0.212573 0.812820 0.194248
C7    C     C_3   0.557004 0.178264 0.702574 0.315661
C8    C     C_3   0.608224 0.100060 0.749346 -0.387637
C9    C     C_R   0.994286 0.446173 0.047557 0.000414
C10   C     C_R   0.892504 0.393261 0.094993 0.035328
C11   C     C_R   0.729245 0.346857 0.071957 -0.083088
C12   C     C_3   0.165640 0.815088 0.267859 0.330677
C13   C     C_R   0.667670 0.352414 0.002568 -0.085583
C14   C     C_R   0.769067 0.402787 0.954311 0.041127
C15   C     C_R   0.933059 0.449878 0.976646 0.009716
C16   C     C_R   0.709157 0.405118 0.883901 -0.104979
C17   C     C_R   0.811976 0.451217 0.833769 -0.047598
C18   C     C_R   0.975712 0.501711 0.856565 -0.010037
C19   C     C_R   0.035374 0.500761 0.928303 -0.015025
C20   C     C_R   0.757430 0.446167 0.760957 -0.006704
C21   C     C_R   0.866034 0.487586 0.711866 -0.297710
C22   C     C_R   0.024042 0.543848 0.733930 0.046465
C23   C     C_3   0.100149 0.830620 0.194055 0.258767
C24   C     C_R   0.080012 0.552673 0.807851 -0.045285
C25   C     C_R   0.157181 0.494532 0.070744 0.007509
C26   C     C_R   0.216300 0.494584 0.142740 0.017446
C27   C     C_R   0.111369 0.444680 0.191710 -0.039940
C28   C     C_R   0.953668 0.388934 0.165090 -0.045446
C29   C     C_R   0.237800 0.608229 0.834492 -0.047411
C30   C     C_R   0.299669 0.602680 0.904252 0.028629
C31   C     C_R   0.198395 0.548881 0.951430 -0.002763
C32   C     C_R   0.259651 0.545051 0.022315 0.028430
C33   C     C_R   0.462724 0.649365 0.927377 -0.093403
C34   C     C_3   0.234484 0.786300 0.617886 0.284407
C35   C     C_R   0.524451 0.643273 0.996620 -0.100713
C36   C     C_R   0.423384 0.592501 0.044757 0.052952
C37   C     C_R   0.380226 0.544737 0.165482 -0.027790
C38   C     C_R   0.483240 0.590384 0.115216 -0.081818
C39   C     C_R   0.434907 0.549478 0.238281 -0.016193
C40   C     C_R   0.326468 0.507974 0.287401 -0.294530
C41   C     C_R   0.167011 0.454118 0.265734 0.053619
C42   C     C_R   0.764226 0.182820 0.529542 -0.278768
C43   C     C_R   0.432457 0.806103 0.466367 -0.276535
C44   C     C_R   0.405640 0.983570 0.441700 -0.108608
C45   C     C_3   0.255399 0.909148 0.633425 -0.357564
C46   C     C_R   0.342156 0.874596 0.436532 -0.035335
C47   C     C_R   0.579652 0.847523 0.507598 0.069022
C48   C     C_R   0.643753 0.959892 0.515824 -0.061940
C49   C     C_R   0.555934 0.027919 0.481131 -0.057702
C50   C     C_R   0.618132 0.139396 0.488603 0.046060
C51   C     C_R   0.855996 0.116540 0.560482 -0.016783
C52   C     C_R   0.793413 0.006476 0.556339 -0.094595
C53   C     C_3   0.964405 0.212525 0.382252 0.277113
C54   C     C_3   0.963361 0.090943 0.367914 -0.344107
C55   C     C_3   0.730991 0.708974 0.683238 0.314856
C56   C     C_3   0.755833 0.748469 0.764647 -0.399712
H1    H     H_    0.705998 0.854223 0.342166 0.071740
H2    H     H_    0.350792 0.940327 0.677732 0.107324
H3    H     H_    0.294698 0.943006 0.584512 0.088561
H4    H     H_    0.136394 0.935618 0.650000 0.143800
H5    H     H_    0.841019 0.229851 0.397636 -0.001637
H6    H     H_    0.056145 0.247740 0.427491 0.086285
H7    H     H_    0.868770 0.052585 0.324679 0.111876
H8    H     H_    0.933990 0.056393 0.417590 0.094706
H9    H     H_    0.086657 0.073156 0.350443 0.128196
H10   H     H_    0.847260 0.684678 0.662072 0.010664
H11   H     H_    0.630067 0.638351 0.673393 0.064049
H12   H     H_    0.566791 0.974658 0.279842 0.100101
H13   H     H_    0.862759 0.815162 0.776127 0.139462
H14   H     H_    0.779959 0.681415 0.792823 0.052053
H15   H     H_    0.642905 0.778767 0.786135 0.121396
H16   H     H_    0.504728 0.784269 0.306368 -0.087333
H17   H     H_    0.526649 0.872298 0.199031 0.146046
H18   H     H_    0.342154 0.297979 0.335502 0.016412
H19   H     H_    0.558631 0.346064 0.323344 0.057800
H20   H     H_    0.327858 0.167782 0.221021 0.124076
H21   H     H_    0.402057 0.303572 0.205393 0.052313
H22   H     H_    0.545931 0.209327 0.209531 0.119215
H23   H     H_    0.735770 0.935219 0.225823 0.119396
H24   H     H_    0.133071 0.315485 0.732246 0.031436
H25   H     H_    0.927554 0.237901 0.726802 -0.085075
H26   H     H_    0.223509 0.218311 0.826157 0.076239
H27   H     H_    0.041235 0.275143 0.852031 0.036933
H28   H     H_    0.668902 0.212844 0.676622 -0.046722
H29   H     H_    0.467545 0.132889 0.658688 0.082232
H30   H     H_    0.698015 0.144981 0.793195 0.165938
H31   H     H_    0.666513 0.036401 0.715714 0.109439
H32   H     H_    0.175458 0.727799 0.266092 0.017001
H33   H     H_    0.498639 0.061344 0.774772 0.119389
H34   H     H_    0.648390 0.307083 0.107886 0.059554
H35   H     H_    0.540874 0.316325 0.986397 0.068083
H36   H     H_    0.823934 0.480156 0.655770 0.070049
H37   H     H_    0.582483 0.368846 0.868621 0.102507
H38   H     H_    0.874393 0.344177 0.198916 0.095578
H39   H     H_    0.316514 0.653942 0.800998 0.097943
H40   H     H_    0.543166 0.689981 0.891707 0.063776
H41   H     H_    0.650826 0.679575 0.012924 0.070339
H42   H     H_    0.610095 0.626305 0.130352 0.096625
H43   H     H_    0.288463 0.866109 0.279443 -0.045969
H44   H     H_    0.369076 0.514466 0.343356 0.069899
H45   H     H_    0.331694 0.032987 0.417191 0.096766
H46   H     H_    0.865505 0.958839 0.583420 0.109760
H47   H     H_    0.812401 0.268150 0.533417 0.064561
H48   H     H_    0.381082 0.721281 0.462354 0.069696
H49   H     H_    0.972141 0.785816 0.184385 0.095329
H50   H     H_    0.097886 0.918966 0.195990 0.003747
H51   H     H_    0.353189 0.760749 0.601665 0.004099
H52   H     H_    0.139525 0.757142 0.572992 0.082580
O1    O     O_2   0.873090 0.425890 0.325140 -0.462791
O2    O     O_3   0.690015 0.793814 0.650501 -0.640634
O3    O     O_3   0.057498 0.849810 0.320644 -0.617614
O4    O     O_2   0.316610 0.574140 0.674900 -0.466682
O5    O     O_3   0.067290 0.565720 0.585630 -0.497862
O6    O     O_3   0.530210 0.372990 0.631200 -0.463239
O7    O     O_3   0.187664 0.747116 0.681276 -0.640533
O8    O     O_3   0.611340 0.366290 0.463630 -0.477303
O9    O     O_3   0.108550 0.314140 0.595200 -0.481998
O10   O     O_2   0.195329 0.121321 0.551291 -0.479630
O11   O     O_3   0.113523 0.153399 0.685592 -0.604892
O12   O     O_3   0.122420 0.434370 0.414380 -0.497312
O13   O     O_3   0.578370 0.633800 0.536380 -0.489875
O14   O     O_2   0.341510 0.231850 0.465510 -0.468796
O15   O     O_3   0.504126 0.189731 0.345595 -0.651975
O16   O     O_2   0.416121 0.453182 0.756466 -0.496659
O17   O     O_3   0.479459 0.255979 0.746183 -0.602025
O18   O     O_3   0.659500 0.627100 0.368810 -0.472021
O19   O     O_2   0.776347 0.544492 0.244262 -0.480135
O20   O     O_3   0.002536 0.252919 0.318423 -0.642933
O21   O     O_3   0.711634 0.739532 0.250974 -0.595980
O22   O     O_2   0.848200 0.768190 0.534530 -0.470465
O23   O     O_3   0.081160 0.685950 0.404810 -0.467162
O24   O     O_2   0.012880 0.879502 0.458422 -0.478566
P1    P     P_3+3 0.041040 0.394770 0.336330 0.975262
P2    P     P_3+3 0.672880 0.754030 0.556100 0.969871
P3    P     P_3+3 0.126524 0.824449 0.404376 0.951518
P4    P     P_3+3 0.148670 0.605320 0.663680 0.970963
P5    P     P_3+3 0.066811 0.175095 0.597860 0.955396
P6    P     P_3+3 0.644768 0.612789 0.274717 0.969529
P7    P     P_3+3 0.522202 0.230239 0.439838 0.934143
P8    P     P_3+3 0.546470 0.384531 0.724952 0.950066
O25   O     O_3   0.200783 0.788263 0.139380 -0.679680
C57   C     C_3   0.174337 0.827890 0.074145 0.259353
H53   H     H_    0.273415 0.805466 0.037610 0.087699
H54   H     H_    0.188511 0.918105 0.083176 0.030694
C58   C     C_3   0.005610 0.777243 0.036063 -0.217622
H55   H     H_    0.987337 0.688045 0.033638 0.136915
H56   H     H_    0.904704 0.809704 0.067210 0.095413
C59   C     C_3   0.992630 0.802739 0.959320 -0.479615
H57   H     H_    0.001924 0.891628 0.961100 0.149173
H58   H     H_    0.871584 0.762419 0.932690 0.141137
H59   H     H_    0.092583 0.772764 0.926405 0.135224
O26   O     O_3   0.004167 0.110364 0.820352 -0.730931
H60   H     H_    0.074407 0.056210 0.800065 0.321562

loop_
_geom_bond_atom_site_label_1
_geom_bond_atom_site_label_2
_ccdc_geom_bond_type
C5    H25   S    
C53   C54   S    
O23   P3    S    
C39   C40   A    
C17   C18   A    
Ba1   O18   S    
Ba1   O22   S    
O1    P1    D    
C45   H4    S    
Ba2   O8    S    
C5    C6    S    
C37   C39   A    
C54   H9    S    
C42   H47   S    
C10   C11   A    
C8    H30   S    
C7    O17   S    
C46   P3    S    
C52   H46   S    
C26   C27   A    
C33   C35   A    
O2    P2    S    
C16   C17   A    
C3    C4    S    
C56   H13   S    
C4    H20   S    
C55   O2    S    
C19   C31   A    
C13   C14   A    
C2    H1    S    
C34   C45   S    
C6    H27   S    
Ba1   O12   S    
C12   H32   S    
C39   P6    S    
C28   H38   S    
O21   P6    S    
C45   H2    S    
Ba2   O6    S    
C42   C51   A    
C58   H55   S    
C8    H31   S    
O15   P7    S    
C14   C15   A    
C59   H59   S    
C53   H5    S    
C1    H23   S    
C21   C22   A    
C17   C20   A    
C43   C47   A    
Ba1   P2    S    
C1    H17   S    
C7    C8    S    
C2    H16   S    
C10   C28   A    
O8    P7    S    
O4    P4    D    
C24   C29   A    
C32   C36   A    
C27   C41   A    
C16   H37   S    
C23   O25   S    
O24   P3    D    
C57   C58   S    
Ba1   O23   S    
C40   H44   S    
C48   C49   A    
C2    O21   S    
C55   C56   S    
Ba2   O12   S    
C25   C32   A    
C44   C46   A    
C49   C50   A    
Ba2   P4    S    
C30   C33   A    
C45   H3    S    
C1    H12   S    
C57   H54   S    
C37   C38   A    
C12   H43   S    
C26   C37   A    
C22   P4    S    
Ba2   O13   S    
C44   C49   A    
O16   P8    D    
C15   C19   A    
O17   P8    S    
Ba1   O13   S    
C13   H35   S    
C35   C36   A    
C7    H28   S    
Ba2   O5    S    
C5    O11   S    
C4    H22   S    
C29   C30   A    
O5    P4    S    
C9    C25   A    
O22   P2    D    
C53   O20   S    
C53   H6    S    
C20   P8    S    
C31   C32   A    
O10   P5    D    
C48   C52   A    
C6    H26   S    
C41   P1    S    
C34   O7    S    
O26   H60   S    
O6    P8    S    
O20   P1    S    
C8    H33   S    
C11   C13   A    
C11   H34   S    
C34   H52   S    
C59   H58   S    
O14   P7    D    
C40   C41   A    
C55   H10   S    
C3    H19   S    
C1    C2    S    
C33   H40   S    
C58   C59   S    
C35   H41   S    
C6    O26   S    
C43   H48   S    
C23   H49   S    
C43   C46   A    
C9    C15   A    
C58   H56   S    
C51   P5    S    
C47   P2    S    
C22   C24   A    
C57   H53   S    
O7    P4    S    
C42   C50   A    
C38   H42   S    
C9    C10   A    
C51   C52   A    
C54   H7    S    
Ba2   O14   S    
C12   O3    S    
C44   H45   S    
C50   P7    S    
C59   H57   S    
C21   H36   S    
O13   P2    S    
O9    P5    S    
C30   C31   A    
O11   P5    S    
C3    H18   S    
O18   P6    S    
Ba1   O1    S    
C36   C38   A    
Ba2   O4    S    
C56   H14   S    
C4    H21   S    
O19   P6    D    
C18   C24   A    
C54   H8    S    
Ba1   Ba2   S    
Ba2   O9    S    
O3    P3    S    
Ba1   O8    S    
C29   H39   S    
C12   C23   S    
O12   P1    S    
C27   C28   A    
C5    H24   S    
C18   C19   A    
C56   H15   S    
C14   C16   A    
C47   C48   A    
C3    O15   S    
C34   H51   S    
C20   C21   A    
Ba1   O5    S    
C55   H11   S    
Ba1   P1    S    
C7    H29   S    
O25   C57   S    
C23   H50   S    
C25   C26   A    
