data_mof_unit_pretest_1696.cif
_audit_creation_date              2012-12-10T17:43:18-0500
_audit_creation_method            fapswitch 2.2
_symmetry_space_group_name_H-M    P1
_symmetry_Int_Tables_number       1
_space_group_crystal_system       triclinic
_cell_length_a                    37.251405
_cell_length_b                    30.392039
_cell_length_c                    21.564047
_cell_angle_alpha                 90.006688
_cell_angle_beta                  54.603931
_cell_angle_gamma                 89.932472
_cell_volume                      19901.1939008

loop_
_atom_site_label
_atom_site_type_symbol
_atom_type_description
_atom_site_fract_x
_atom_site_fract_y
_atom_site_fract_z
_atom_type_partial_charge
C1    C     C_R   0.914895 0.499973 0.583834 0.819635
C2    C     C_R   0.085106 0.499915 0.416143 0.819664
C3    C     C_R   0.414902 0.000092 0.583816 0.819964
C4    C     C_R   0.585105 0.999915 0.416144 0.819409
C5    C     C_3   0.003198 0.453460 0.209119 0.086297
C6    C     C_3   0.996615 0.453490 0.791054 0.086165
C7    C     C_3   0.504010 0.953549 0.208288 0.085048
C8    C     C_3   0.497681 0.953412 0.789979 0.086775
C9    C     C_R   0.798273 0.534754 0.732521 0.421268
C10   C     C_R   0.201661 0.534512 0.267492 0.421310
C11   C     C_R   0.298338 0.967187 0.735444 0.421559
C12   C     C_R   0.701663 0.034494 0.267476 0.421275
C13   C     C_R   0.844069 0.532763 0.686298 -0.207860
C14   C     C_R   0.155872 0.532578 0.313717 -0.207754
C15   C     C_R   0.344135 0.968339 0.687866 -0.208611
C16   C     C_R   0.655875 0.032563 0.313697 -0.207793
C17   C     C_R   0.866504 0.500187 0.630583 -0.255928
C18   C     C_R   0.133497 0.500005 0.369314 -0.256046
C19   C     C_R   0.366519 0.000321 0.631217 -0.253327
C20   C     C_R   0.633496 0.000007 0.369327 -0.255964
C21   C     C_R   0.842469 0.469183 0.619449 0.130344
C22   C     C_R   0.157591 0.468917 0.380280 0.130274
C23   C     C_R   0.342425 0.031607 0.620561 0.133285
C24   C     C_R   0.657584 0.968942 0.380344 0.130233
C25   C     C_R   0.796396 0.470678 0.664822 0.436854
C26   C     C_R   0.203662 0.470354 0.334900 0.436779
C27   C     C_R   0.296335 0.030988 0.667371 0.436423
C28   C     C_R   0.703656 0.970374 0.334964 0.436793
C29   C     C_R   0.773957 0.503371 0.722309 -0.190391
C30   C     C_R   0.226036 0.503072 0.277580 -0.190357
C31   C     C_R   0.273964 0.998863 0.725717 -0.188204
C32   C     C_R   0.726034 0.003069 0.277602 -0.190386
C33   C     C_R   0.700657 0.527740 0.752448 0.446287
C34   C     C_R   0.299207 0.527492 0.247691 0.446689
C35   C     C_R   0.201670 0.022985 0.844720 0.454680
C36   C     C_R   0.799208 0.027488 0.247702 0.446644
C37   C     C_R   0.654853 0.524956 0.800001 -0.212505
C38   C     C_R   0.345024 0.524798 0.200132 -0.212590
C39   C     C_R   0.155788 0.021803 0.889215 -0.214244
C40   C     C_R   0.845025 0.024797 0.200136 -0.212631
C41   C     C_R   0.633301 0.499197 0.866214 -0.226130
C42   C     C_R   0.366707 0.499088 0.133776 -0.226042
C43   C     C_R   0.133226 0.996872 0.867217 -0.226455
C44   C     C_R   0.866707 0.999087 0.133780 -0.226210
C45   C     C_R   0.000129 0.499933 0.379785 0.799900
C46   C     C_R   0.999852 0.499937 0.620233 0.799945
C47   C     C_R   0.500213 0.999937 0.379700 0.800314
C48   C     C_R   0.499928 0.999934 0.620155 0.799153
C49   C     C_R   0.658431 0.474956 0.884737 0.413165
C50   C     C_R   0.341704 0.474788 0.115125 0.413294
C51   C     C_R   0.157357 0.971348 0.799720 0.413917
C52   C     C_R   0.841701 0.974783 0.115137 0.413143
C53   C     C_R   0.704190 0.478471 0.838044 -0.168555
C54   C     C_R   0.295929 0.478218 0.161819 -0.168962
C55   C     C_R   0.203207 0.973293 0.754377 -0.178458
C56   C     C_R   0.795926 0.978209 0.161840 -0.168975
C57   C     C_R   0.725525 0.504079 0.771951 -0.141416
C58   C     C_R   0.274463 0.503792 0.228038 -0.141426
C59   C     C_R   0.225553 0.998560 0.776157 -0.141868
C60   C     C_R   0.774462 0.003784 0.228059 -0.141411
C61   C     C_R   0.999972 0.585089 0.000022 0.855249
C62   C     C_R   0.499972 0.085091 0.000032 0.855200
C63   C     C_R   0.999974 0.501621 0.120067 0.897320
C64   C     C_R   0.000022 0.501623 0.879937 0.897715
C65   C     C_R   0.499972 0.001642 0.120066 0.898035
C66   C     C_R   0.500016 0.001619 0.879940 0.896471
C67   C     C_R   0.000028 0.414809 0.999977 0.861990
C68   C     C_R   0.500028 0.914808 0.999975 0.861782
C69   C     C_R   0.499987 0.414919 0.000010 0.768720
C70   C     C_R   0.999984 0.914915 0.000008 0.766716
C71   C     C_R   0.584950 0.499230 0.915023 0.798584
C72   C     C_R   0.415054 0.499212 0.084972 0.798685
C73   C     C_R   0.084919 0.998724 0.915093 0.798805
C74   C     C_R   0.915054 0.999211 0.084973 0.798736
C75   C     C_R   0.500015 0.585043 0.999988 0.812333
C76   C     C_R   0.000012 0.085043 0.999992 0.813278
C77   C     C_R   0.039040 0.702735 0.973189 0.117444
C78   C     C_R   0.960708 0.702793 0.026908 0.116885
C79   C     C_R   0.539105 0.202737 0.972780 0.117012
C80   C     C_R   0.460638 0.202802 0.027501 0.117096
C81   C     C_3   0.957498 0.521900 0.330216 -0.488059
C82   C     C_3   0.042554 0.521639 0.669727 -0.488186
C83   C     C_3   0.457263 0.021278 0.330498 -0.494100
C84   C     C_3   0.542197 0.022454 0.670137 -0.487202
C85   C     C_R   0.038871 0.656709 0.973106 -0.215804
C86   C     C_R   0.960936 0.656762 0.026996 -0.215731
C87   C     C_R   0.538933 0.156712 0.972684 -0.215847
C88   C     C_R   0.460870 0.156771 0.027544 -0.215551
C89   C     C_R   0.999919 0.633480 0.000055 -0.064622
C90   C     C_R   0.499919 0.133484 0.000096 -0.064581
C91   C     C_R   0.999858 0.725923 0.000055 0.087224
C92   C     C_R   0.499856 0.225931 0.000156 0.087267
C93   C     C_R   0.491725 0.297341 0.953255 -0.124093
C94   C     C_R   0.507984 0.297319 0.047061 -0.123593
C95   C     C_R   0.992211 0.797340 0.952562 -0.122205
C96   C     C_R   0.007486 0.797291 0.047629 -0.126482
C97   C     C_R   0.491924 0.343197 0.952955 -0.181105
C98   C     C_R   0.507886 0.343174 0.047244 -0.180912
C99   C     C_R   0.992411 0.843197 0.952288 -0.180246
C100  C     C_R   0.007381 0.843146 0.047845 -0.180699
C101  C     C_R   0.499937 0.366519 0.000062 -0.035117
C102  C     C_R   0.999930 0.866510 0.000040 -0.035067
C103  C     C_R   0.499835 0.274280 0.000180 0.167832
C104  C     C_R   0.999833 0.774269 0.000102 0.168546
C105  C     C_R   0.959647 0.297440 0.041016 0.418329
C106  C     C_R   0.040619 0.297377 0.958823 0.418544
C107  C     C_R   0.459658 0.797437 0.041295 0.418283
C108  C     C_R   0.540625 0.797380 0.958477 0.418442
C109  C     C_R   0.960261 0.343265 0.040399 -0.174455
C110  C     C_R   0.039938 0.343208 0.959469 -0.174467
C111  C     C_R   0.460269 0.843262 0.040682 -0.174296
C112  C     C_R   0.539940 0.843210 0.959149 -0.174891
C113  C     C_R   0.000081 0.366430 0.999941 -0.216390
C114  C     C_R   0.500084 0.866430 0.999930 -0.216450
C115  C     C_3   0.956739 0.522830 0.259084 0.031767
C116  C     C_3   0.043333 0.522545 0.740838 0.031924
C117  C     C_3   0.456432 0.022167 0.259446 0.034889
C118  C     C_3   0.542865 0.023473 0.741362 0.030945
C119  C     C_R   0.000150 0.274017 0.999909 -0.047851
C120  C     C_R   0.500160 0.774017 0.999869 -0.047725
C121  C     C_R   0.500057 0.702681 0.943459 0.128825
C122  C     C_R   0.500276 0.702682 0.056248 0.128827
C123  C     C_R   0.000287 0.202685 0.943248 0.128359
C124  C     C_R   0.000016 0.202678 0.056529 0.129398
C125  C     C_R   0.500007 0.656692 0.943773 -0.229870
C126  C     C_R   0.500213 0.656693 0.056034 -0.229997
C127  C     C_R   0.000233 0.156696 0.943559 -0.228535
C128  C     C_R   0.999961 0.156689 0.056298 -0.231037
C129  C     C_R   0.500073 0.633426 0.999937 -0.079658
C130  C     C_R   0.000063 0.133426 0.999955 -0.079816
C131  C     C_R   0.500188 0.725661 0.999835 0.057697
C132  C     C_R   0.000174 0.225661 0.999872 0.057675
C133  C     C_3   0.040206 0.528400 0.246005 -0.077760
C134  C     C_3   0.959868 0.528661 0.753942 -0.077596
C135  C     C_3   0.539861 0.029021 0.246306 -0.077357
C136  C     C_3   0.459390 0.027873 0.754345 -0.078974
C137  C     C_3   0.002469 0.452633 0.281551 -0.405110
C138  C     C_3   0.997360 0.452657 0.718607 -0.405085
C139  C     C_3   0.503278 0.952695 0.280721 -0.403608
C140  C     C_3   0.498345 0.952606 0.717610 -0.404906
C141  C     C_3   0.000693 0.500265 0.310306 0.001793
C142  C     C_3   0.999288 0.500277 0.689714 0.001760
C143  C     C_3   0.500783 0.000290 0.310211 0.004202
C144  C     C_3   0.499359 0.000260 0.689631 0.001608
C145  C     C_3   0.000090 0.501865 0.188988 0.071376
C146  C     C_3   0.999907 0.501873 0.811017 0.071401
C147  C     C_3   0.500100 0.001900 0.188972 0.071450
C148  C     C_3   0.499893 0.001857 0.811021 0.071005
C149  C     C_3   0.041615 0.526513 0.172702 0.171125
C150  C     C_3   0.958472 0.526802 0.827237 0.170679
C151  C     C_3   0.541233 0.027211 0.173025 0.169971
C152  C     C_3   0.457926 0.025869 0.827693 0.172311
Cu1   Cu    Cu3+1 0.000000 0.544030 0.500000 0.954135
Cu2   Cu    Cu3+1 0.500000 0.044030 0.500000 0.943988
Cu3   Cu    Cu3+1 1.000000 0.455920 0.500000 0.934122
Cu4   Cu    Cu3+1 0.500000 0.955920 0.500000 0.944952
Cu5   Cu    Cu3+1 0.955920 0.499940 0.044070 1.000584
Cu6   Cu    Cu3+1 0.044080 0.499940 0.955930 1.000730
Cu7   Cu    Cu3+1 0.455920 0.999940 0.044070 1.000989
Cu8   Cu    Cu3+1 0.544080 0.999940 0.955930 1.000334
Cu9   Cu    Cu3+1 0.499970 0.499990 0.937550 0.983466
Cu10  Cu    Cu3+1 0.500030 0.499990 0.062450 0.983402
Cu11  Cu    Cu3+1 0.999970 0.999990 0.937550 0.995649
Cu12  Cu    Cu3+1 0.000030 0.999990 0.062450 0.970901
H1    H     H_    0.954103 0.555653 0.353084 0.184909
H2    H     H_    0.046046 0.555375 0.646786 0.184944
H3    H     H_    0.453385 0.054982 0.353850 0.181730
H4    H     H_    0.545102 0.056228 0.647722 0.185175
H5    H     H_    0.034962 0.438959 0.160943 0.098637
H6    H     H_    0.964791 0.439209 0.839266 0.098911
H7    H     H_    0.536015 0.939577 0.159890 0.099679
H8    H     H_    0.466214 0.938411 0.837922 0.099061
H9    H     H_    0.071410 0.507640 0.128040 0.130308
H10   H     H_    0.928609 0.508141 0.871988 0.130414
H11   H     H_    0.571321 0.008845 0.127986 0.130529
H12   H     H_    0.428479 0.006498 0.871872 0.130937
H13   H     H_    0.862342 0.556775 0.694799 0.191578
H14   H     H_    0.137555 0.556646 0.305324 0.191646
H15   H     H_    0.362470 0.944268 0.696222 0.188331
H16   H     H_    0.637561 0.056620 0.305279 0.191731
H17   H     H_    0.635891 0.543616 0.785439 0.189420
H18   H     H_    0.363891 0.543492 0.214801 0.189315
H19   H     H_    0.137582 0.041226 0.940944 0.189004
H20   H     H_    0.863893 0.043493 0.214800 0.189389
H21   H     H_    0.928626 0.502927 0.376327 0.167887
H22   H     H_    0.071363 0.502494 0.623650 0.167864
H23   H     H_    0.428691 0.001878 0.376349 0.169131
H24   H     H_    0.571372 0.003817 0.623809 0.168091
H25   H     H_    0.723436 0.459820 0.852019 0.188238
H26   H     H_    0.276779 0.459540 0.147727 0.188298
H27   H     H_    0.221685 0.954192 0.702298 0.190445
H28   H     H_    0.776774 0.959531 0.147754 0.188289
H29   H     H_    0.069265 0.639259 0.952225 0.167580
H30   H     H_    0.930569 0.639350 0.047868 0.167478
H31   H     H_    0.569382 0.139263 0.951401 0.167417
H32   H     H_    0.430449 0.139365 0.048799 0.167720
H33   H     H_    0.485485 0.279779 0.916677 0.141250
H34   H     H_    0.514204 0.279741 0.083662 0.141637
H35   H     H_    0.986352 0.779787 0.915488 0.141706
H36   H     H_    0.013323 0.779699 0.084708 0.140491
H37   H     H_    0.485557 0.360339 0.916218 0.163169
H38   H     H_    0.514290 0.360295 0.083938 0.163261
H39   H     H_    0.986443 0.860344 0.915045 0.164695
H40   H     H_    0.013378 0.860249 0.085075 0.161299
H41   H     H_    0.929150 0.360761 0.072005 0.196162
H42   H     H_    0.071020 0.360662 0.927882 0.196080
H43   H     H_    0.429159 0.860757 0.072537 0.196055
H44   H     H_    0.571017 0.860667 0.927322 0.196182
H45   H     H_    0.499903 0.639346 0.899988 0.168411
H46   H     H_    0.500275 0.639347 0.099856 0.168291
H47   H     H_    0.000322 0.139353 0.899578 0.168869
H48   H     H_    0.999831 0.139340 0.100310 0.167807
H49   H     H_    0.928419 0.502203 0.272148 0.210647
H50   H     H_    0.071575 0.501717 0.727823 0.210586
H51   H     H_    0.428446 0.001072 0.272229 0.209425
H52   H     H_    0.571561 0.003321 0.728008 0.210814
H53   H     H_    0.034535 0.563244 0.265802 0.201969
H54   H     H_    0.965640 0.563466 0.734035 0.202126
H55   H     H_    0.533698 0.063770 0.266653 0.202606
H56   H     H_    0.464559 0.062801 0.735171 0.201798
H57   H     H_    0.031785 0.434533 0.269582 0.151256
H58   H     H_    0.967993 0.434736 0.730603 0.151176
H59   H     H_    0.532854 0.935034 0.268518 0.149922
H60   H     H_    0.469290 0.934143 0.729387 0.151994
H61   H     H_    0.973219 0.433870 0.327223 0.217032
H62   H     H_    0.026557 0.433715 0.673001 0.217177
H63   H     H_    0.474309 0.933489 0.326068 0.218922
H64   H     H_    0.527859 0.934205 0.671588 0.216569
O1    O     O_R   0.935720 0.537180 0.564270 -0.579266
O2    O     O_R   0.064280 0.537180 0.435730 -0.579200
O3    O     O_R   0.435720 0.037180 0.564270 -0.594285
O4    O     O_R   0.564280 0.037180 0.435730 -0.578863
O5    O     O_R   0.564240 0.499990 0.883000 -0.579092
O6    O     O_R   0.435760 0.499990 0.117000 -0.579095
O7    O     O_R   0.064240 0.999990 0.883000 -0.564435
O8    O     O_R   0.935760 0.999990 0.117000 -0.579294
O9    O     O_R   0.564250 0.499990 0.988510 -0.566110
O10   O     O_R   0.435750 0.499990 0.011490 -0.566062
O11   O     O_R   0.064250 0.999990 0.988510 -0.580724
O12   O     O_R   0.935750 0.999990 0.011490 -0.565850
O13   O     O_R   0.500010 0.564260 0.947230 -0.587056
O14   O     O_R   0.499990 0.564260 0.052770 -0.587121
O15   O     O_R   0.000010 0.064260 0.947230 -0.583775
O16   O     O_R   0.999990 0.064260 0.052770 -0.589891
O17   O     O_R   0.935680 0.462770 0.564310 -0.592241
O18   O     O_R   0.064320 0.462770 0.435690 -0.592284
O19   O     O_R   0.435680 0.962770 0.564310 -0.576358
O20   O     O_R   0.564320 0.962770 0.435690 -0.592892
O21   O     O_R   0.999990 0.537180 0.408860 -0.593578
O22   O     O_R   0.000010 0.537180 0.591140 -0.593495
O23   O     O_R   0.499990 0.037180 0.408860 -0.598700
O24   O     O_R   0.500010 0.037180 0.591140 -0.591709
O25   O     O_R   0.999950 0.462770 0.408890 -0.592150
O26   O     O_R   0.000050 0.462770 0.591110 -0.592104
O27   O     O_R   0.499950 0.962770 0.408890 -0.586850
O28   O     O_R   0.500050 0.962770 0.591110 -0.593980
O29   O     O_R   0.962770 0.564220 0.037230 -0.586887
O30   O     O_R   0.037230 0.564220 0.962770 -0.586728
O31   O     O_R   0.462770 0.064220 0.037230 -0.586368
O32   O     O_R   0.537230 0.064220 0.962770 -0.587251
O33   O     O_R   0.962780 0.499950 0.128370 -0.561249
O34   O     O_R   0.037220 0.499950 0.871630 -0.561293
O35   O     O_R   0.462780 0.999950 0.128370 -0.561768
O36   O     O_R   0.537220 0.999950 0.871630 -0.561218
O37   O     O_R   0.037180 0.500000 0.053970 -0.610243
O38   O     O_R   0.962820 0.500000 0.946030 -0.610597
O39   O     O_R   0.537180 0.000000 0.053970 -0.611006
O40   O     O_R   0.462820 0.000000 0.946030 -0.609010
O41   O     O_R   0.962780 0.435670 0.037210 -0.587345
O42   O     O_R   0.037220 0.435670 0.962790 -0.587430
O43   O     O_R   0.462780 0.935670 0.037210 -0.587666
O44   O     O_R   0.537220 0.935670 0.962790 -0.587157
O45   O     O_R   0.499930 0.435710 0.947300 -0.588443
O46   O     O_R   0.500070 0.435710 0.052700 -0.588331
O47   O     O_R   0.999930 0.935710 0.947300 -0.592491
O48   O     O_R   0.000070 0.935710 0.052700 -0.585058
N1    N     N_3   0.082993 0.515013 0.228957 -0.605379
H65   H     H_    0.083449 0.520820 0.276254 0.224777
H66   H     H_    0.088433 0.481481 0.216259 0.220102
N2    N     N_3   0.917034 0.515527 0.771062 -0.605351
H67   H     H_    0.916590 0.521301 0.723746 0.224828
H68   H     H_    0.911484 0.482035 0.783908 0.220046
N3    N     N_3   0.582860 0.016235 0.228950 -0.605542
H69   H     H_    0.583248 0.021928 0.276343 0.225074
H70   H     H_    0.588818 0.982809 0.215563 0.219713
N4    N     N_3   0.416839 0.014009 0.770993 -0.606661
H71   H     H_    0.416241 0.020121 0.723906 0.228771
H72   H     H_    0.411987 0.980358 0.782672 0.220885
O49   O     O_3   0.779093 0.567810 0.786620 -0.703777
H73   H     H_    0.746690 0.566868 0.815089 0.342859
O50   O     O_3   0.220773 0.567584 0.213537 -0.703782
H74   H     H_    0.253182 0.566556 0.184962 0.342904
O51   O     O_3   0.279227 0.934722 0.790526 -0.708132
H75   H     H_    0.246782 0.936827 0.821188 0.341612
O52   O     O_3   0.720780 0.067547 0.213487 -0.703727
H76   H     H_    0.753189 0.066526 0.184930 0.342894
N5    N     N_3   0.864035 0.436587 0.560437 -0.502929
H77   H     H_    0.880304 0.414347 0.573155 0.243805
H78   H     H_    0.886938 0.452094 0.508677 0.206684
N6    N     N_3   0.136088 0.436300 0.439137 -0.502825
H79   H     H_    0.119829 0.414138 0.426346 0.243764
H80   H     H_    0.113182 0.451802 0.490981 0.206788
N7    N     N_3   0.363914 0.063696 0.560804 -0.507730
H81   H     H_    0.386321 0.047710 0.509225 0.203392
H82   H     H_    0.380748 0.085871 0.572336 0.245060
N8    N     N_3   0.636074 0.936357 0.439258 -0.502869
H83   H     H_    0.619809 0.914178 0.426505 0.243606
H84   H     H_    0.613171 0.951886 0.491075 0.206759
O53   O     O_3   0.774917 0.439399 0.650744 -0.681396
H85   H     H_    0.742740 0.444146 0.683796 0.335854
O54   O     O_3   0.225204 0.439011 0.348832 -0.681266
H86   H     H_    0.257375 0.443698 0.315747 0.335886
O55   O     O_3   0.274781 0.062562 0.653877 -0.681623
H87   H     H_    0.242523 0.059167 0.689445 0.336944
O56   O     O_3   0.725193 0.939049 0.348938 -0.681398
H88   H     H_    0.757366 0.943725 0.315833 0.335794
O57   O     O_3   0.719298 0.553657 0.688173 -0.708409
H89   H     H_    0.751709 0.553815 0.660120 0.336050
O58   O     O_3   0.280434 0.553374 0.312103 -0.708581
H90   H     H_    0.248019 0.553434 0.340194 0.336020
O59   O     O_3   0.221336 0.048587 0.870174 -0.707567
H91   H     H_    0.253746 0.046578 0.834347 0.336765
O60   O     O_3   0.780437 0.053373 0.312112 -0.708476
H92   H     H_    0.748023 0.053435 0.340204 0.336067
O61   O     O_3   0.640109 0.446591 0.945849 -0.707264
H93   H     H_    0.611084 0.436633 0.959554 0.328076
O62   O     O_3   0.360172 0.446452 0.053869 -0.707283
H94   H     H_    0.389236 0.436537 0.040148 0.328068
O63   O     O_3   0.137897 0.943466 0.776773 -0.704892
H95   H     H_    0.108574 0.934645 0.821717 0.329180
O64   O     O_3   0.860167 0.946448 0.053880 -0.706943
H96   H     H_    0.889235 0.936538 0.040148 0.328232
N9    N     N_3   0.079174 0.725979 0.944919 -0.588528
H97   H     H_    0.090770 0.716393 0.976932 0.226152
H98   H     H_    0.102387 0.716136 0.888655 0.231877
N10   N     N_3   0.920546 0.726101 0.055167 -0.588157
H99   H     H_    0.908967 0.716501 0.023147 0.227072
H100  H     H_    0.897342 0.716326 0.111429 0.231461
N11   N     N_3   0.579310 0.225974 0.943988 -0.588239
H101  H     H_    0.591155 0.216381 0.975615 0.226894
H102  H     H_    0.602331 0.216133 0.887650 0.231426
N12   N     N_3   0.420405 0.226109 0.056310 -0.588020
H103  H     H_    0.408577 0.216526 0.024666 0.226644
H104  H     H_    0.397393 0.216316 0.112635 0.231992
O65   O     O_3   0.918790 0.277378 0.082457 -0.711058
H105  H     H_    0.922014 0.245026 0.078924 0.335832
O66   O     O_3   0.081503 0.277246 0.917369 -0.710716
H106  H     H_    0.078319 0.244899 0.920926 0.335984
O67   O     O_3   0.418805 0.777372 0.083053 -0.711249
H107  H     H_    0.422031 0.745020 0.079499 0.335826
O68   O     O_3   0.581507 0.777252 0.916694 -0.710958
H108  H     H_    0.578326 0.744905 0.920225 0.335865
N13   N     N_3   0.499951 0.726156 0.885966 -0.579848
H109  H     H_    0.472056 0.716603 0.888880 0.230321
H110  H     H_    0.527718 0.716469 0.832940 0.232317
N14   N     N_3   0.500420 0.726158 0.113708 -0.580626
H111  H     H_    0.528289 0.716460 0.110830 0.229895
H112  H     H_    0.472626 0.716618 0.166746 0.231832
N15   N     N_3   0.000442 0.226165 0.885499 -0.580138
H113  H     H_    0.972664 0.216609 0.888038 0.229920
H114  H     H_    0.028327 0.216484 0.832609 0.232367
N16   N     N_3   0.999897 0.226150 0.114256 -0.580187
H115  H     H_    0.027648 0.216446 0.111752 0.230028
H116  H     H_    0.971985 0.216610 0.167153 0.232210
N17   N     N_3   0.949258 0.567469 0.242597 -0.560400
H117  H     H_    0.968931 0.590106 0.246574 0.271897
H118  H     H_    0.916587 0.576215 0.284579 0.214817
N18   N     N_3   0.050995 0.567126 0.757173 -0.559912
H119  H     H_    0.031404 0.589906 0.753143 0.272075
H120  H     H_    0.083697 0.575647 0.715147 0.214889
N19   N     N_3   0.448194 0.066674 0.243715 -0.558959
H121  H     H_    0.467516 0.089638 0.247993 0.272533
H122  H     H_    0.415396 0.074885 0.285899 0.217389
N20   N     N_3   0.549465 0.068248 0.758675 -0.561246
H123  H     H_    0.529382 0.090539 0.755029 0.271784
H124  H     H_    0.581972 0.077510 0.716908 0.214777
O69   O     O_3   0.044565 0.569078 0.144547 -0.738648
H125  H     H_    0.074693 0.579933 0.123577 0.340937
O70   O     O_3   0.955696 0.569391 0.855218 -0.738737
H126  H     H_    0.925616 0.580463 0.876128 0.341004
O71   O     O_3   0.543453 0.069834 0.145644 -0.739061
H127  H     H_    0.573406 0.081180 0.124801 0.340979
O72   O     O_3   0.454130 0.068352 0.856792 -0.738093
H128  H     H_    0.423806 0.078727 0.877924 0.340492
O73   O     O_3   0.968212 0.428293 0.220275 -0.722285
H129  H     H_    0.976341 0.396912 0.218022 0.339052
O74   O     O_3   0.031497 0.428082 0.780014 -0.722524
H130  H     H_    0.023249 0.396757 0.782369 0.339060
O75   O     O_3   0.469454 0.927812 0.218982 -0.724700
H131  H     H_    0.478108 0.896566 0.216172 0.338423
O76   O     O_3   0.533164 0.928800 0.778231 -0.721677
H132  H     H_    0.525618 0.897295 0.779911 0.339299

loop_
_geom_bond_atom_site_label_1
_geom_bond_atom_site_label_2
_ccdc_geom_bond_type
Cu5   O33   S    
C50   O62   S    
Cu5   Cu6   S    
C55   C59   A    
C88   H32   S    
O50   H74   S    
C79   C87   A    
N7    H82   S    
N9    H97   S    
C96   H36   S    
C4    O4    A    
C73   O11   A    
C7    H7    S    
C6    C146  S    
C95   C99   A    
C47   C143  S    
C133  N1    S    
C48   C144  S    
C31   C59   S    
C138  H62   S    
C108  O68   S    
C108  C120  A    
C46   O22   A    
C146  C150  S    
C11   C15   A    
C12   C16   A    
C3    C19   S    
C65   C147  S    
C66   C148  S    
C107  C111  A    
C134  H54   S    
C61   O30   A    
C41   C49   A    
N18   H119  S    
N13   H110  S    
Cu9   Cu10  S    
C25   C29   A    
Cu8   O44   S    
C27   C31   A    
O60   H92   S    
C28   C32   A    
C5    C145  S    
N12   H103  S    
Cu9   O10   S    
C126  C129  A    
C17   C21   A    
C55   H27   S    
C48   O24   A    
C152  O72   S    
C19   C23   A    
C84   H4    S    
C10   C30   A    
N7    H81   S    
C16   C20   A    
C37   H17   S    
C26   O54   S    
C42   C72   S    
N8    H83   S    
C36   O60   S    
C133  C149  S    
C44   C74   S    
C63   O37   A    
Cu9   O45   S    
C96   C104  A    
O75   H131  S    
O72   H128  S    
C107  C120  A    
C123  N15   S    
N6    H79   S    
C139  H59   S    
C77   C91   A    
Cu7   O31   S    
C64   C146  S    
Cu4   O28   S    
N10   H99   S    
Cu4   O19   S    
C68   O44   A    
C69   C101  S    
C69   O45   A    
C8    C140  S    
C122  N14   S    
C83   C117  S    
C5    O73   S    
C87   H31   S    
C5    C137  S    
C80   C88   A    
C1    O17   A    
N17   H117  S    
N4    H72   S    
Cu2   O24   S    
C49   C53   A    
C51   C55   A    
C74   O12   A    
C4    C20   S    
C125  C129  A    
Cu9   O5    S    
Cu7   O43   S    
O59   H91   S    
N15   H113  S    
C34   C58   A    
C128  H48   S    
C43   C73   S    
C83   C143  S    
C122  C126  A    
O67   H107  S    
C15   H15   S    
Cu2   O3    S    
C93   H33   S    
O68   H108  S    
C93   C103  A    
C112  C114  A    
Cu5   O38   S    
C21   N5    S    
C35   C59   A    
C135  C151  S    
N16   H115  S    
C138  H58   S    
C115  H49   S    
C28   O56   S    
C117  H51   S    
N20   H123  S    
C9    C13   A    
C45   O21   A    
C67   O42   A    
C139  C143  S    
Cu5   O29   S    
C51   O63   S    
C6    O74   S    
Cu6   O34   S    
Cu11  O15   S    
C77   N9    S    
C47   O23   A    
C41   C71   S    
C44   C52   A    
C12   O52   S    
C135  C143  S    
C77   C85   A    
N1    H65   S    
C79   N11   S    
N5    H78   S    
Cu1   O1    S    
C34   O58   S    
C119  C132  S    
C7    C147  S    
Cu3   O17   S    
C140  H64   S    
C70   O48   A    
C76   O15   A    
N2    H67   S    
C110  H42   S    
C10   C14   A    
C3    O3    A    
C125  H45   S    
C140  H60   S    
Cu7   O40   S    
C83   H3    S    
Cu10  O6    S    
C147  C151  S    
C121  C125  A    
O51   H75   S    
C116  N18   S    
C123  C127  A    
C52   O64   S    
Cu5   O41   S    
Cu12  O11   S    
N14   H112  S    
O49   H73   S    
C79   C92   A    
C150  H10   S    
C109  H41   S    
C14   H14   S    
C42   C50   A    
C25   O53   S    
C26   C30   A    
Cu1   Cu3   S    
C111  H43   S    
C122  C131  A    
C6    H6    S    
C11   O51   S    
C21   C25   A    
C54   H26   S    
C99   H39   S    
C18   C22   A    
Cu9   O13   S    
C22   N6    S    
C24   C28   A    
C97   H37   S    
C107  O67   S    
C53   C57   A    
Cu1   O22   S    
C1    C17   S    
C38   H18   S    
C13   C17   A    
C134  N2    S    
C64   O38   A    
C86   H30   S    
C8    O76   S    
C116  C146  S    
Cu10  O46   S    
C96   C100  A    
C71   O5    A    
C37   C41   A    
C145  C149  S    
Cu11  O7    S    
C2    O2    A    
C40   C44   A    
Cu7   O35   S    
C27   O55   S    
N3    H69   S    
Cu8   O36   S    
C118  H52   S    
C53   H25   S    
C62   O31   A    
C63   C145  S    
C16   H16   S    
C56   H28   S    
C93   C97   A    
C106  C119  A    
Cu12  O8    S    
C120  C131  S    
C61   O29   A    
C82   C142  S    
C124  N16   S    
N18   H120  S    
N13   H109  S    
O70   H126  S    
C46   C142  S    
Cu11  O47   S    
C15   C19   A    
C50   C54   A    
C82   H22   S    
C54   C58   A    
C123  C132  A    
Cu3   O26   S    
C64   O34   A    
N3    H70   S    
C94   C98   A    
N19   H121  S    
C137  H57   S    
C139  H63   S    
O63   H95   S    
C105  C109  A    
C136  C152  S    
N8    H84   S    
Cu10  O14   S    
Cu2   Cu4   S    
Cu4   O27   S    
C124  C128  A    
C150  O70   S    
Cu6   O37   S    
C45   C141  S    
C65   O35   A    
C3    O19   A    
C66   O36   A    
N6    H80   S    
N9    H98   S    
C151  H11   S    
C148  C152  S    
C135  N3    S    
C68   O43   A    
C33   O57   S    
C138  C142  S    
O52   H76   S    
Cu10  O9    S    
C85   C89   A    
Cu6   O30   S    
C33   C37   A    
C108  C112  A    
C35   C39   A    
O64   H96   S    
C47   O27   A    
C134  C142  S    
Cu7   Cu8   S    
N10   H100  S    
C29   C57   S    
C94   C103  A    
C7    O75   S    
Cu4   O20   S    
C78   N10   S    
C84   H24   S    
C32   C60   S    
Cu12  O16   S    
O66   H106  S    
C66   O40   A    
O73   H129  S    
C82   H2    S    
C137  C141  S    
O74   H130  S    
C80   N12   S    
Cu2   O4    S    
Cu12  O48   S    
C140  C144  S    
C86   C89   A    
C128  C130  A    
C70   C102  S    
C10   O50   S    
C136  H56   S    
C98   C101  A    
C115  C145  S    
C133  C141  S    
Cu6   O42   S    
C117  C147  S    
C118  C148  S    
C2    O18   A    
C82   C116  S    
O62   H94   S    
C136  C144  S    
C75   O14   A    
C49   O61   S    
C8    C148  S    
C100  H40   S    
C43   C51   A    
O55   H87   S    
N16   H116  S    
C13   H13   S    
C117  N19   S    
C111  C114  A    
C24   N8    S    
O61   H93   S    
N20   H124  S    
C73   O7    A    
O58   H90   S    
C67   O41   A    
C56   C60   A    
C99   C102  A    
C22   C26   A    
C87   C90   A    
C5    H5    S    
C105  C119  A    
C46   O26   A    
C39   H19   S    
Cu11  O12   S    
C8    H8    S    
C40   H20   S    
C9    O49   S    
O54   H86   S    
C118  N20   S    
C80   C92   A    
C2    C18   S    
N5    H77   S    
C14   C18   A    
Cu11  Cu12  S    
C91   C104  S    
C136  N4    S    
O76   H132  S    
O53   H85   S    
C69   O46   A    
C124  C132  A    
C75   O13   A    
C71   O9    A    
C76   O16   A    
N2    H68   S    
C38   C42   A    
N17   H118  S    
C149  O69   S    
N4    H71   S    
Cu2   O23   S    
C134  C150  S    
C30   C58   S    
Cu8   O32   S    
C115  N17   S    
C4    O20   A    
C92   C103  S    
N12   H104  S    
N11   H101  S    
N19   H122  S    
C137  H61   S    
C23   C27   A    
C48   O28   A    
C149  H9    S    
C109  C113  A    
C78   C86   A    
C81   C141  S    
C11   C31   A    
C12   C32   A    
C83   H23   S    
C76   C130  S    
C121  C131  A    
C63   O33   A    
C81   H21   S    
C61   C89   S    
C84   C144  S    
C20   C24   A    
C36   C40   A    
C121  N13   S    
C112  H44   S    
C116  H50   S    
C126  H46   S    
C39   C43   A    
Cu1   O21   S    
C133  H53   S    
C94   H34   S    
C6    C138  S    
C1    O1    A    
C151  O71   S    
C135  H55   S    
C81   C115  S    
C105  O65   S    
C100  C102  A    
C106  O66   S    
N15   H114  S    
C110  C113  A    
O69   H125  S    
C127  H47   S    
N11   H102  S    
N1    H66   S    
C84   C118  S    
Cu1   O2    S    
C35   O59   S    
C74   O8    A    
C62   O32   A    
C95   C104  A    
C106  C110  A    
Cu3   O18   S    
C33   C57   A    
C70   O47   A    
C34   C38   A    
C98   H38   S    
C88   C90   A    
C36   C60   A    
C9    C29   A    
C78   C91   A    
C67   C113  S    
C127  C130  A    
O56   H88   S    
C7    C139  S    
Cu3   O25   S    
C85   H29   S    
O71   H127  S    
C62   C90   S    
N14   H111  S    
C72   O6    A    
C72   O10   A    
O57   H89   S    
C23   N7    S    
C152  H12   S    
C52   C56   A    
Cu8   O39   S    
C95   H35   S    
C68   C114  S    
C81   H1    S    
O65   H105  S    
C97   C101  A    
C75   C129  S    
C45   O25   A    
C65   O39   A    
