data_mof_unit_pretest_89.cif
_audit_creation_date              2012-10-26T18:41:24-0400
_audit_creation_method            fapswitch 2.2
_symmetry_space_group_name_H-M    P1
_symmetry_Int_Tables_number       1
_space_group_crystal_system       triclinic
_cell_length_a                    19.395979
_cell_length_b                    18.130053
_cell_length_c                    10.8738
_cell_angle_alpha                 92.201366
_cell_angle_beta                  89.90241
_cell_angle_gamma                 90.493691
_cell_volume                      3820.80576772

loop_
_atom_site_label
_atom_site_type_symbol
_atom_type_description
_atom_site_fract_x
_atom_site_fract_y
_atom_site_fract_z
_atom_type_partial_charge
C1    C     C_R   0.367493 0.499696 0.498282 0.548348
C2    C     C_R   0.928192 0.500993 0.490629 0.081738
C3    C     C_R   0.449238 0.721760 0.560943 0.034906
C4    C     C_R   0.551760 0.280517 0.557119 0.036872
C5    C     C_R   0.550425 0.720595 0.439742 0.032343
C6    C     C_R   0.447394 0.277348 0.444664 0.012099
C7    C     C_R   0.447520 0.799196 0.561121 -0.130106
C8    C     C_R   0.552533 0.203143 0.557911 -0.129719
C9    C     C_R   0.551039 0.797956 0.438524 -0.129966
C10   C     C_R   0.446389 0.199909 0.442952 -0.139716
C11   C     C_R   0.498942 0.838533 0.499375 0.063599
C12   C     C_R   0.632535 0.500130 0.499448 0.520798
C13   C     C_R   0.499525 0.161737 0.499807 0.070598
C14   C     C_R   0.497683 0.963681 0.611548 0.115750
C15   C     C_R   0.500966 0.037053 0.386951 0.116920
C16   C     C_R   0.499765 0.958565 0.386758 0.115639
C17   C     C_R   0.497434 0.042047 0.611547 0.116354
C18   C     C_R   0.499346 0.078922 0.499383 0.027414
C19   C     C_R   0.498640 0.921558 0.499194 0.026243
C20   C     C_R   0.508442 0.498138 0.262427 0.557944
C21   C     C_R   0.501721 0.501786 0.738761 0.542214
C22   C     C_R   0.609567 0.595167 0.131908 0.025963
C23   C     C_R   0.708204 0.500439 0.497087 -0.047252
C24   C     C_R   0.410696 0.411919 0.894840 0.034101
C25   C     C_R   0.594209 0.610218 0.883210 0.019541
C26   C     C_R   0.488639 0.360304 0.090627 0.036025
C27   C     C_R   0.630075 0.662377 0.081154 0.040335
C28   C     C_R   0.394117 0.342152 0.943359 0.045046
C29   C     C_R   0.619249 0.671165 0.954862 0.036670
C30   C     C_R   0.436785 0.314111 0.036659 0.031406
C31   C     C_R   0.552867 0.555422 0.939831 -0.014071
C32   C     C_R   0.494183 0.434485 0.055522 -0.011550
C33   C     C_R   0.559762 0.549664 0.069145 -0.007673
C34   C     C_R   0.291885 0.499149 0.495190 -0.041830
C35   C     C_R   0.469635 0.451455 0.940014 -0.008774
C36   C     C_R   0.506096 0.505719 0.874520 -0.028087
C37   C     C_R   0.524316 0.492275 0.128425 -0.039102
C38   C     C_R   0.743872 0.435371 0.466580 -0.141009
C39   C     C_R   0.256458 0.561693 0.458794 -0.137113
C40   C     C_R   0.254778 0.436232 0.528104 -0.147571
C41   C     C_R   0.745062 0.566015 0.522751 -0.153542
C42   C     C_R   0.815909 0.435089 0.463430 0.112776
C43   C     C_R   0.184421 0.562171 0.456323 0.112387
C44   C     C_R   0.182713 0.435799 0.527063 0.114660
C45   C     C_R   0.964197 0.495814 0.378943 -0.105867
C46   C     C_R   0.817068 0.566841 0.520202 0.115161
C47   C     C_R   0.852688 0.501035 0.490985 0.075738
C48   C     C_R   0.147358 0.499068 0.491100 0.075312
C49   C     C_3   0.427348 0.236647 0.082568 -0.403029
C50   C     C_3   0.645990 0.739267 0.893379 -0.411469
C51   C     C_3   0.333552 0.296526 0.893853 -0.402081
C52   C     C_3   0.670838 0.720372 0.155183 -0.406921
C53   C     C_3   0.655916 0.563044 0.226846 -0.371115
C54   C     C_3   0.360630 0.448302 0.810125 -0.373625
C55   C     C_3   0.632257 0.594058 0.764984 -0.352201
C56   C     C_R   0.035791 0.503818 0.602469 -0.107605
C57   C     C_3   0.546491 0.326392 0.162526 -0.360829
C58   C     C_3   0.872078 0.327014 0.535904 -0.309623
C59   C     C_3   0.128710 0.675983 0.518152 -0.309629
C60   C     C_3   0.125046 0.322625 0.462517 -0.308850
C61   C     C_3   0.872245 0.674274 0.439897 -0.310948
C62   C     C_3   0.562417 0.904573 0.769332 -0.319657
C63   C     C_3   0.571238 0.097926 0.236836 -0.322145
C64   C     C_3   0.433533 0.890846 0.230980 -0.312281
C65   C     C_3   0.428911 0.108845 0.763802 -0.317757
C66   C     C_R   0.035992 0.496016 0.378978 -0.105823
C67   C     C_R   0.964066 0.505520 0.602344 -0.107713
C68   C     C_R   0.071841 0.499497 0.490785 0.080634
Cu1   Cu    Cu3+1 0.500000 0.573360 0.500000 0.911060
Cu2   Cu    Cu3+1 0.500000 0.426640 0.500000 0.911756
H1    H     H_    0.715889 0.384522 0.445071 0.121925
H2    H     H_    0.592692 0.311823 0.602584 0.123469
H3    H     H_    0.590479 0.690169 0.392748 0.116215
H4    H     H_    0.406421 0.306179 0.399973 0.123684
H5    H     H_    0.406150 0.828152 0.608725 0.108651
H6    H     H_    0.594402 0.175753 0.602919 0.102366
H7    H     H_    0.592177 0.825916 0.390983 0.106079
H8    H     H_    0.404271 0.169990 0.398122 0.101750
H9    H     H_    0.419535 0.239374 0.183618 0.130719
H10   H     H_    0.382561 0.206166 0.042855 0.114507
H11   H     H_    0.473793 0.203404 0.060573 0.130070
H12   H     H_    0.284665 0.610433 0.432206 0.127734
H13   H     H_    0.625717 0.742884 0.798472 0.123713
H14   H     H_    0.629008 0.789679 0.945317 0.121069
H15   H     H_    0.703181 0.738588 0.889685 0.119330
H16   H     H_    0.303834 0.322700 0.820890 0.116051
H17   H     H_    0.352266 0.243618 0.852380 0.119280
H18   H     H_    0.297053 0.285512 0.969878 0.122686
H19   H     H_    0.722485 0.728005 0.113179 0.123523
H20   H     H_    0.642857 0.773544 0.156923 0.128304
H21   H     H_    0.679058 0.706478 0.252018 0.103775
H22   H     H_    0.710169 0.565012 0.194144 0.118712
H23   H     H_    0.281582 0.387214 0.554900 0.114959
H24   H     H_    0.653015 0.595679 0.313656 0.149684
H25   H     H_    0.644300 0.504243 0.242854 0.118111
H26   H     H_    0.308189 0.448286 0.851232 0.112084
H27   H     H_    0.373231 0.507129 0.796099 0.126764
H28   H     H_    0.359697 0.417639 0.720322 0.157576
H29   H     H_    0.688067 0.606720 0.777017 0.102648
H30   H     H_    0.630103 0.534593 0.738434 0.138847
H31   H     H_    0.612352 0.629536 0.692754 0.178453
H32   H     H_    0.571281 0.282208 0.104937 0.102335
H33   H     H_    0.587747 0.367017 0.187623 0.131711
H34   H     H_    0.718056 0.616972 0.544119 0.114202
H35   H     H_    0.526592 0.301954 0.247233 0.162677
H36   H     H_    0.825659 0.335666 0.366359 0.239877
H37   H     H_    0.901981 0.278110 0.503211 0.134849
H38   H     H_    0.826020 0.307866 0.587063 0.128688
H39   H     H_    0.905391 0.361182 0.598827 0.163005
H40   H     H_    0.175060 0.653397 0.349937 0.242533
H41   H     H_    0.099027 0.722202 0.480906 0.135780
H42   H     H_    0.174846 0.698962 0.567102 0.128831
H43   H     H_    0.095244 0.647219 0.584264 0.162741
H44   H     H_    0.170333 0.344123 0.632055 0.239183
H45   H     H_    0.936644 0.492373 0.292318 0.103429
H46   H     H_    0.094036 0.276398 0.498481 0.134381
H47   H     H_    0.171108 0.299599 0.414258 0.129807
H48   H     H_    0.092790 0.351927 0.396124 0.162317
H49   H     H_    0.829649 0.667362 0.613319 0.239328
H50   H     H_    0.903039 0.723895 0.468516 0.135276
H51   H     H_    0.825165 0.692193 0.391476 0.126583
H52   H     H_    0.904002 0.639626 0.375758 0.161424
H53   H     H_    0.465622 0.951225 0.792585 0.249691
H54   H     H_    0.555298 0.875072 0.855953 0.136293
H55   H     H_    0.595955 0.953655 0.788277 0.126549
H56   H     H_    0.063303 0.506739 0.689154 0.104765
H57   H     H_    0.588008 0.866861 0.700917 0.158113
H58   H     H_    0.475035 0.049951 0.203014 0.249290
H59   H     H_    0.567593 0.129126 0.151286 0.127986
H60   H     H_    0.604682 0.049240 0.218892 0.128566
H61   H     H_    0.595145 0.134651 0.309165 0.157435
H62   H     H_    0.530335 0.937874 0.204798 0.248053
H63   H     H_    0.439682 0.855150 0.146459 0.141933
H64   H     H_    0.400705 0.938540 0.209320 0.125226
H65   H     H_    0.407564 0.857923 0.301881 0.161696
H66   H     H_    0.524842 0.063117 0.794884 0.249156
H67   H     H_    0.063671 0.492606 0.292370 0.105642
H68   H     H_    0.433829 0.143018 0.850112 0.138406
H69   H     H_    0.394921 0.060740 0.781268 0.124504
H70   H     H_    0.405008 0.142883 0.692918 0.161107
H71   H     H_    0.936412 0.509345 0.688959 0.103986
H72   H     H_    0.409667 0.692196 0.609562 0.121654
N1    N     N_R   0.500000 0.683620 0.500000 -0.224508
N2    N     N_2   0.496524 0.084451 0.724696 -0.522486
N3    N     N_R   0.500000 0.316380 0.500000 -0.225330
N4    N     N_2   0.851156 0.368509 0.431505 -0.521808
N5    N     N_2   0.149457 0.626087 0.418150 -0.521012
N6    N     N_2   0.146001 0.371916 0.563597 -0.521390
N7    N     N_2   0.853477 0.633965 0.547369 -0.520535
N8    N     N_2   0.495831 0.926693 0.724838 -0.525733
N9    N     N_2   0.503058 0.074560 0.274037 -0.526891
N10   N     N_2   0.500587 0.916233 0.273479 -0.526753
O1    O     O_R   0.400190 0.561980 0.499980 -0.503884
O2    O     O_R   0.599810 0.438020 0.500020 -0.513902
O3    O     O_R   0.599810 0.561980 0.500020 -0.537080
O4    O     O_R   0.400190 0.438020 0.499980 -0.511230
O5    O     O_R   0.500000 0.561950 0.319660 -0.479338
O6    O     O_R   0.500000 0.438050 0.680340 -0.486691
O7    O     O_R   0.500000 0.561950 0.680340 -0.504334
O8    O     O_R   0.500000 0.438050 0.319660 -0.500939

loop_
_geom_bond_atom_site_label_1
_geom_bond_atom_site_label_2
_ccdc_geom_bond_type
C25   C31   A    
C15   C18   A    
C57   H35   S    
C26   C32   A    
C8    C13   A    
C27   C29   A    
C58   H39   S    
C21   O6    A    
C52   H20   S    
C35   C36   A    
C40   H23   S    
C4    C8    A    
C42   N4    S    
C15   N9    S    
C10   H8    S    
C50   H14   S    
C21   C36   S    
C7    C11   A    
C57   H32   S    
C12   C23   S    
C11   C19   S    
Cu1   O3    S    
C13   C18   S    
C64   N10   S    
C17   N2    S    
C34   C40   A    
C38   C42   A    
C3    C7    A    
C62   H57   S    
C28   C51   S    
C5    N1    A    
C53   H25   S    
C66   C68   A    
C24   C54   S    
C15   C16   A    
C8    H6    S    
C61   H51   S    
C58   H37   S    
C46   C47   A    
C63   H60   S    
C49   H11   S    
C50   H15   S    
C59   H42   S    
C38   H1    S    
C65   H70   S    
C55   H30   S    
C1    C34   S    
Cu1   O5    S    
C41   C46   A    
C31   C33   A    
C54   H27   S    
C60   H48   S    
C56   H56   S    
C43   C48   A    
C54   H26   S    
H53   N8    S    
C61   H50   S    
C21   O7    A    
C14   C17   A    
C52   H19   S    
C3    H72   S    
C51   H16   S    
C62   H54   S    
C50   H13   S    
C6    H4    S    
C22   C53   S    
C29   C50   S    
C2    C45   A    
C25   C29   A    
C57   H33   S    
C64   H64   S    
C24   C35   A    
C34   C39   A    
C32   C35   A    
C25   C55   S    
C3    N1    A    
C2    C67   A    
C51   H17   S    
H49   N7    S    
C65   N2    S    
C39   C43   A    
C56   C68   A    
C33   C37   A    
C49   H9    S    
C61   H52   S    
Cu2   O6    S    
C1    O4    A    
C41   H34   S    
C5    C9    A    
C45   H45   S    
H58   N9    S    
C59   H41   S    
C59   H43   S    
C14   N8    S    
C53   H22   S    
C17   C18   A    
C60   H47   S    
C16   N10   S    
Cu2   N3    S    
C9    H7    S    
C32   C37   A    
C48   C68   S    
C1    O1    A    
C9    C11   A    
C63   N9    S    
C65   H68   S    
C30   C49   S    
C26   C30   A    
C63   H61   S    
C22   C27   A    
H62   N10   S    
Cu2   O4    S    
C60   H46   S    
C12   O3    A    
H40   N5    S    
C67   H71   S    
C4    H2    S    
C27   C52   S    
C6    N3    A    
C22   C33   A    
C64   H63   S    
C44   N6    S    
C62   N8    S    
C53   H24   S    
Cu2   O2    S    
C14   C19   A    
C24   C28   A    
C39   H12   S    
C12   O2    A    
C10   C13   A    
C23   C41   A    
C51   H18   S    
C6    C10   A    
C62   H55   S    
C7    H5    S    
C58   N4    S    
C2    C47   S    
Cu1   N1    S    
C56   C67   A    
C55   H31   S    
H36   N4    S    
C23   C38   A    
C20   O5    A    
C28   C30   A    
H44   N6    S    
H66   N2    S    
C20   C37   S    
C66   H67   S    
C16   C19   A    
C4    N3    A    
Cu1   O7    S    
Cu2   O8    S    
C58   H38   S    
C42   C47   A    
C63   H59   S    
C5    H3    S    
Cu1   Cu2   S    
C26   C57   S    
Cu1   O1    S    
C64   H65   S    
C43   N5    S    
C65   H69   S    
C40   C44   A    
C46   N7    S    
C20   O8    A    
C55   H29   S    
C45   C66   A    
C49   H10   S    
C31   C36   A    
C54   H28   S    
C52   H21   S    
C60   N6    S    
C61   N7    S    
C44   C48   A    
C59   N5    S    
