data_mof_unit_pretest_1218.cif
_audit_creation_date              2012-12-11T14:52:43-0500
_audit_creation_method            fapswitch 2.2
_symmetry_space_group_name_H-M    P1
_symmetry_Int_Tables_number       1
_space_group_crystal_system       triclinic
_cell_length_a                    20.641242
_cell_length_b                    7.265056
_cell_length_c                    20.261956
_cell_angle_alpha                 90.004065
_cell_angle_beta                  101.659394
_cell_angle_gamma                 90.002863
_cell_volume                      2975.78332264

loop_
_atom_site_label
_atom_site_type_symbol
_atom_type_description
_atom_site_fract_x
_atom_site_fract_y
_atom_site_fract_z
_atom_type_partial_charge
O1    O     O_R   0.673670 0.377510 0.185950 -0.538975
O2    O     O_R   0.326330 0.622490 0.814050 -0.538977
O3    O     O_R   0.826330 0.877510 0.314050 -0.538974
O4    O     O_R   0.173670 0.122490 0.685950 -0.538973
O5    O     O_R   0.806260 0.705340 0.185590 -0.531344
O6    O     O_R   0.193740 0.294660 0.814410 -0.531349
O7    O     O_R   0.693740 0.205340 0.314410 -0.531325
O8    O     O_R   0.306260 0.794660 0.685590 -0.531324
C1    C     C_R   0.825600 0.539207 0.170885 0.729989
C2    C     C_R   0.174400 0.460793 0.829115 0.730011
C3    C     C_R   0.674399 0.039208 0.329114 0.729921
C4    C     C_R   0.325601 0.960792 0.670886 0.729946
O9    O     O_R   0.672940 0.707120 0.178050 -0.523803
O10   O     O_R   0.327060 0.292880 0.821950 -0.523805
O11   O     O_R   0.827060 0.207120 0.321950 -0.523767
O12   O     O_R   0.172940 0.792880 0.678050 -0.523752
O13   O     O_R   0.692060 0.879040 0.306460 -0.521880
O14   O     O_R   0.307940 0.120960 0.693540 -0.521875
O15   O     O_R   0.807940 0.379040 0.193540 -0.521889
O16   O     O_R   0.192060 0.620960 0.806460 -0.521897
C5    C     C_R   0.648313 0.539632 0.161747 0.747565
C6    C     C_R   0.351687 0.460369 0.838254 0.747549
C7    C     C_R   0.851693 0.039652 0.338248 0.747564
C8    C     C_R   0.148304 0.960346 0.661755 0.747557
O17   O     O_3   0.756430 0.544390 0.292140 -0.376210
O18   O     O_3   0.243570 0.455610 0.707860 -0.376193
O19   O     O_3   0.743570 0.044390 0.207860 -0.376279
O20   O     O_3   0.256430 0.955610 0.792140 -0.376293
V1    V     V_3+5 0.748810 0.818610 0.242180 1.575436
V2    V     V_3+5 0.251190 0.181390 0.757820 1.575444
V3    V     V_3+5 0.751190 0.318610 0.257820 1.575504
V4    V     V_3+5 0.248810 0.681390 0.742180 1.575532
C9    C     C_R   0.085958 0.962406 0.609665 -0.109288
C10   C     C_R   0.914035 0.037580 0.390338 -0.109194
C11   C     C_R   0.414034 0.462505 0.890335 -0.109218
C12   C     C_R   0.585968 0.537497 0.109664 -0.109255
C13   C     C_R   0.024923 0.158801 0.436256 -0.064105
C14   C     C_R   0.975094 0.841062 0.563721 -0.064032
C15   C     C_R   0.474986 0.658202 0.063882 -0.063999
C16   C     C_R   0.525018 0.341799 0.936115 -0.064011
C17   C     C_R   0.967963 0.150887 0.384031 0.184697
C18   C     C_R   0.032049 0.848986 0.615946 0.184833
C19   C     C_R   0.531971 0.650387 0.116075 0.184717
C20   C     C_R   0.468031 0.349618 0.883922 0.184694
C21   C     C_R   0.917973 0.930626 0.448482 -0.213536
C22   C     C_R   0.082008 0.069417 0.551533 -0.213376
C23   C     C_R   0.582093 0.430922 0.051432 -0.213556
C24   C     C_R   0.417909 0.569076 0.948568 -0.213588
C25   C     C_R   0.972893 0.942426 0.503101 0.068782
C26   C     C_R   0.027103 0.057544 0.496897 0.068909
C27   C     C_R   0.527153 0.442695 0.996834 0.068935
C28   C     C_R   0.472851 0.557306 0.003163 0.068888
H1    H     H_    0.123283 0.159017 0.549309 0.170072
H2    H     H_    0.876681 0.841120 0.450726 0.170008
H3    H     H_    0.376551 0.658250 0.950896 0.169961
H4    H     H_    0.623446 0.341726 0.049110 0.169985
C29   C     C_3   0.553096 0.093094 0.532169 -0.144438
C30   C     C_3   0.446903 0.906906 0.467830 -0.144433
C31   C     C_3   0.946904 0.593070 0.967831 -0.144426
C32   C     C_3   0.053096 0.406930 0.032169 -0.144424
C33   C     C_3   0.529355 0.906480 0.554911 -0.147897
C34   C     C_3   0.470644 0.093520 0.445088 -0.147895
C35   C     C_3   0.970645 0.406457 0.945087 -0.147873
C36   C     C_3   0.029355 0.593544 0.054913 -0.147859
C37   C     C_1   0.371219 0.965733 0.625163 -0.054376
C38   C     C_1   0.628780 0.034267 0.374837 -0.054391
C39   C     C_1   0.128781 0.465734 0.874837 -0.054443
C40   C     C_1   0.871219 0.534266 0.125163 -0.054427
C41   C     C_3   0.480888 0.164845 0.518588 0.228219
C42   C     C_3   0.519112 0.835155 0.481412 0.228218
C43   C     C_3   0.019113 0.664846 0.981415 0.228188
C44   C     C_3   0.980887 0.335154 0.018585 0.228192
C45   C     C_3   0.457226 0.977705 0.541242 0.037492
C46   C     C_3   0.542773 0.022294 0.458758 0.037493
C47   C     C_3   0.042774 0.477708 0.958758 0.037500
C48   C     C_3   0.957226 0.522293 0.041242 0.037498
C49   C     C_1   0.409811 0.968158 0.587236 0.203373
C50   C     C_1   0.590189 0.031842 0.412764 0.203368
C51   C     C_1   0.090190 0.468160 0.912765 0.203335
C52   C     C_1   0.909810 0.531841 0.087235 0.203343
Br1   Br    Br    0.033474 0.717577 0.699407 -0.504631
Br2   Br    Br    0.966553 0.282115 0.300534 -0.504732
Br3   Br    Br    0.466643 0.218833 0.800335 -0.504625
Br4   Br    Br    0.533356 0.781184 0.199658 -0.504589
C53   C     C_2   0.081562 0.272909 0.425468 0.448255
H5    H     H_    0.073019 0.411030 0.405212 0.099149
O21   O     O_2   0.137627 0.210519 0.435767 -0.502656
C54   C     C_2   0.918489 0.726744 0.574465 0.448398
H6    H     H_    0.927051 0.588441 0.594552 0.098938
O22   O     O_2   0.862426 0.789136 0.564311 -0.502554
C55   C     C_2   0.418277 0.771861 0.074777 0.448335
H7    H     H_    0.426719 0.909989 0.095073 0.099189
O23   O     O_2   0.362265 0.709088 0.064518 -0.502654
C56   C     C_2   0.581732 0.228170 0.925212 0.448291
H8    H     H_    0.573295 0.090080 0.904879 0.099243
O24   O     O_2   0.637746 0.290938 0.935501 -0.502673
C57   C     C_2   0.563930 0.799639 0.614988 0.522528
H9    H     H_    0.614620 0.755458 0.617962 0.070767
O25   O     O_2   0.535561 0.761760 0.660521 -0.483619
C58   C     C_2   0.436070 0.200360 0.385012 0.522532
H10   H     H_    0.385380 0.244542 0.382037 0.070757
O26   O     O_2   0.464438 0.238239 0.339478 -0.483616
C59   C     C_2   0.936069 0.299592 0.885009 0.522539
H11   H     H_    0.885378 0.255407 0.882032 0.070754
O27   O     O_2   0.964440 0.261694 0.839478 -0.483625
C60   C     C_2   0.063931 0.700408 0.114991 0.522513
H12   H     H_    0.114623 0.744593 0.117969 0.070753
O28   O     O_2   0.035560 0.738307 0.160522 -0.483635
C61   C     C_2   0.611025 0.199566 0.569862 0.506785
H13   H     H_    0.611710 0.243310 0.621171 0.080764
O29   O     O_2   0.657354 0.237688 0.543326 -0.495624
C62   C     C_2   0.388974 0.800434 0.430138 0.506782
H14   H     H_    0.388289 0.756692 0.378828 0.080758
O30   O     O_2   0.342646 0.762309 0.456674 -0.495620
C63   C     C_2   0.888976 0.699511 0.930139 0.506820
H15   H     H_    0.888293 0.743248 0.878831 0.080742
O31   O     O_2   0.842644 0.737615 0.956673 -0.495625
C64   C     C_2   0.111024 0.300489 0.069861 0.506813
H16   H     H_    0.111707 0.256752 0.121169 0.080732
O32   O     O_2   0.157356 0.262386 0.043327 -0.495627
Br5   Br    Br    0.550084 0.603596 0.451189 -0.461640
Br6   Br    Br    0.449916 0.396404 0.548811 -0.461634
Br7   Br    Br    0.949913 0.103595 0.048805 -0.461761
Br8   Br    Br    0.050087 0.896405 0.951195 -0.461792

loop_
_geom_bond_atom_site_label_1
_geom_bond_atom_site_label_2
_ccdc_geom_bond_type
C33   C42   S    
C40   C52   T    
C24   H3    S    
C30   C34   S    
O1    C5    A    
C9    C22   A    
O19   V1    S    
O13   V1    S    
O3    C7    A    
C44   C48   S    
C20   Br3   S    
O15   V3    S    
C62   O30   D    
C57   H9    S    
C5    C12   S    
C2    C39   S    
O7    C3    A    
C6    C11   S    
C18   Br1   S    
O5    C1    A    
C60   O28   D    
C30   C62   S    
C9    C18   A    
O9    V1    S    
C14   C18   A    
C61   O29   D    
O4    C8    A    
C60   H12   S    
C32   C44   S    
C63   H15   S    
O1    V3    S    
C12   C23   A    
O2    V4    S    
C36   C43   S    
O3    V1    S    
C64   H16   S    
C1    O15   A    
C29   C61   S    
C2    O16   A    
C63   O31   D    
O2    C6    A    
C41   C45   S    
O14   V2    S    
C16   C20   A    
C3    C38   S    
O11   C7    A    
C15   C28   A    
O12   C8    A    
C19   Br4   S    
C10   C17   A    
O10   V2    S    
C11   C24   A    
C15   C55   S    
C62   H14   S    
C57   O25   D    
O5    V1    S    
C53   O21   D    
C38   C50   T    
C37   C49   T    
C27   C28   A    
O8    V4    S    
C43   Br8   S    
O7    V3    S    
C35   C59   S    
C55   H7    S    
C14   C25   A    
O18   V4    S    
C30   C42   S    
C15   C19   A    
C33   C45   S    
C53   H5    S    
O11   V3    S    
C34   C41   S    
C14   C54   S    
C29   C46   S    
C56   O24   D    
C42   C46   S    
C55   O23   D    
C21   C25   A    
O8    C4    A    
C7    C10   S    
C58   O26   D    
C36   C48   S    
O9    C5    A    
C59   O27   D    
C10   C21   A    
C54   H6    S    
C32   C64   S    
C11   C20   A    
C34   C58   S    
O6    V2    S    
C54   O22   D    
C21   H2    S    
C44   Br7   S    
C36   C60   S    
O16   V4    S    
C13   C53   S    
C3    O13   A    
O17   V3    S    
C33   C57   S    
C48   C52   S    
C16   C56   S    
O6    C2    A    
C23   C27   A    
C29   C33   S    
O12   V4    S    
C16   C27   A    
C4    C37   S    
C22   C26   A    
C32   C47   S    
C31   C35   S    
C8    C9    S    
C32   C36   S    
O10   C6    A    
O20   V2    S    
C1    C40   S    
C61   H13   S    
C43   C47   S    
C13   C26   A    
C42   Br5   S    
C35   C47   S    
C41   Br6   S    
C17   Br2   S    
C22   H1    S    
C58   H10   S    
C13   C17   A    
C56   H8    S    
C64   O32   D    
C24   C28   A    
C35   C44   S    
C31   C63   S    
C25   C26   A    
C46   C50   S    
C4    O14   A    
C59   H11   S    
C45   C49   S    
C34   C46   S    
C12   C19   A    
C29   C41   S    
C47   C51   S    
C31   C48   S    
C39   C51   T    
O4    V2    S    
C30   C45   S    
C31   C43   S    
C23   H4    S    
