data_mof_unit_pretest_1961.cif
_audit_creation_date              2012-12-10T19:34:38-0500
_audit_creation_method            fapswitch 2.2
_symmetry_space_group_name_H-M    P1
_symmetry_Int_Tables_number       1
_space_group_crystal_system       triclinic
_cell_length_a                    10.976078
_cell_length_b                    15.960314
_cell_length_c                    17.028085
_cell_angle_alpha                 96.361481
_cell_angle_beta                  90.96909
_cell_angle_gamma                 92.62286
_cell_volume                      2960.80867631

loop_
_atom_site_label
_atom_site_type_symbol
_atom_type_description
_atom_site_fract_x
_atom_site_fract_y
_atom_site_fract_z
_atom_type_partial_charge
C1    C     C_R   0.499921 0.490568 0.348857 0.869303
C2    C     C_R   0.057066 0.416751 0.462548 -0.033467
C3    C     C_R   0.128087 0.495377 0.477812 -0.092636
C4    C     C_R   0.068370 0.572716 0.481118 0.130431
C5    C     C_R   0.940885 0.573464 0.480926 0.111950
C6    C     C_R   0.870191 0.497200 0.477219 -0.108576
C7    C     C_R   0.507342 0.491530 0.263114 -0.186196
C8    C     C_R   0.399528 0.485584 0.216141 0.152651
C9    C     C_R   0.404552 0.498920 0.136096 0.254304
C10   C     C_R   0.517198 0.522242 0.103852 0.142536
C11   C     C_R   0.622494 0.534048 0.151908 0.288368
C12   C     C_R   0.262238 0.498864 0.493040 0.844127
C13   C     C_R   0.617897 0.520968 0.231542 0.039888
C14   C     C_R   0.573176 0.441727 0.850913 0.223576
C15   C     C_R   0.584982 0.451027 0.770582 0.210609
C16   C     C_R   0.499088 0.495074 0.897897 0.208144
C17   C     C_R   0.517525 0.511944 0.736869 -0.203535
C18   C     C_R   0.448786 0.567821 0.784866 -0.292162
C19   C     C_R   0.439346 0.559966 0.865261 0.283971
C20   C     C_R   0.453661 0.754690 0.455427 0.226507
C21   C     C_R   0.451426 0.844201 0.463971 0.024572
C22   C     C_R   0.518269 0.892652 0.526074 0.253145
C23   C     C_R   0.507125 0.509960 0.651038 0.899601
C24   C     C_R   0.581920 0.849323 0.578974 0.153495
C25   C     C_R   0.579483 0.760407 0.570987 0.229684
C26   C     C_R   0.447269 0.158270 0.553154 0.157302
C27   C     C_R   0.437548 0.246953 0.551603 0.328842
C28   C     C_R   0.505993 0.110648 0.491010 0.162823
C29   C     C_R   0.518683 0.237177 0.423773 0.341749
C30   C     C_R   0.544874 0.152305 0.427560 0.113925
C31   C     C_R   0.737151 0.499274 0.492688 0.831942
C32   C     C_R   0.105967 0.334068 0.447695 0.148022
C33   C     C_R   0.032212 0.262452 0.458836 0.317441
C34   C     C_R   0.907216 0.266735 0.451653 -0.179674
C35   C     C_R   0.860011 0.342894 0.437994 0.248640
C36   C     C_R   0.927933 0.419359 0.460700 -0.030563
Cu1   Cu    Cu3+1 0.493970 0.415220 0.496180 1.046628
Cu2   Cu    Cu3+1 0.506030 0.584780 0.503820 0.959250
H1    H     H_    0.397501 0.614807 0.759133 0.205945
H2    H     H_    0.851208 0.208837 0.440464 0.208929
N1    N     N_2   0.526429 0.539328 0.024431 -0.126101
N2    N     N_2   0.483289 0.480054 0.977143 -0.118165
N3    N     N_R   0.515100 0.712130 0.509560 -0.220974
N4    N     N_2   0.521066 0.983530 0.539836 -0.096089
N5    N     N_2   0.503590 0.020008 0.479759 -0.097979
N6    N     N_R   0.484890 0.287850 0.490450 -0.289656
O1    O     O_R   0.494360 0.420530 0.382500 -0.520373
O2    O     O_R   0.504550 0.563720 0.388950 -0.627759
O3    O     O_R   0.314550 0.428390 0.496780 -0.591255
O4    O     O_R   0.324740 0.571580 0.503230 -0.554518
O5    O     O_R   0.495450 0.436280 0.611050 -0.509608
O6    O     O_R   0.505640 0.579470 0.617500 -0.612633
O7    O     O_R   0.675260 0.428420 0.496770 -0.552611
O8    O     O_R   0.685450 0.571610 0.503220 -0.577168
N7    N     N_3   0.137608 0.651894 0.486643 -0.566432
H3    H     H_    0.117958 0.688288 0.539351 0.238174
H4    H     H_    0.115215 0.684142 0.438623 0.235853
N8    N     N_3   0.723649 0.545808 0.280861 -0.488880
H5    H     H_    0.745316 0.496622 0.312970 0.255554
H6    H     H_    0.703415 0.597661 0.320690 0.236695
Br1   Br    Br    0.255356 0.492925 0.073441 -0.209459
Br2   Br    Br    0.337723 0.635567 0.926593 -0.301862
Br3   Br    Br    0.242435 0.476206 0.263614 -0.417468
Br4   Br    Br    0.327343 0.302446 0.625110 -0.327717
Br5   Br    Br    0.369288 0.102915 0.635737 -0.239838
Br6   Br    Br    0.673196 0.912838 0.665309 -0.297587
N9    N     N_3   0.644245 0.723789 0.631288 -0.517263
H7    H     H_    0.694428 0.673353 0.609113 0.274111
H8    H     H_    0.584839 0.709539 0.675676 0.259371
Br7   Br    Br    0.467446 0.256501 0.318199 -0.282132
N10   N     N_3   0.206237 0.317036 0.396668 -0.470060
H9    H     H_    0.274162 0.291064 0.428286 0.269338
H10   H     H_    0.239486 0.370539 0.373225 0.277364
N11   N     N_3   0.378969 0.885121 0.409999 -0.482048
H11   H     H_    0.288513 0.862074 0.412227 0.258308
H12   H     H_    0.410217 0.869500 0.352817 0.269535
Br8   Br    Br    0.619907 0.088188 0.339867 -0.281106
N12   N     N_3   0.392108 0.711211 0.386988 -0.573429
H13   H     H_    0.337718 0.660452 0.401387 0.293161
H14   H     H_    0.456530 0.692548 0.344979 0.251466
Br9   Br    Br    0.098658 0.152955 0.455318 -0.354636
Br10  Br    Br    0.755052 0.335291 0.347055 -0.391778
N13   N     N_3   0.882853 0.652753 0.484818 -0.562101
H15   H     H_    0.907017 0.683565 0.435918 0.240315
H16   H     H_    0.910470 0.690308 0.536816 0.236356
Br11  Br    Br    0.696287 0.381931 0.708334 -0.352587
Br12  Br    Br    0.657953 0.356175 0.898241 -0.218067
Br13  Br    Br    0.774059 0.571263 0.108777 -0.257749

loop_
_geom_bond_atom_site_label_1
_geom_bond_atom_site_label_2
_ccdc_geom_bond_type
N7    H3    S    
N1    N2    D    
C35   C36   A    
C25   N9    S    
C25   N3    A    
C12   O3    A    
C7    C8    A    
C26   C27   A    
C29   C30   A    
N11   H12   S    
C9    Br1   S    
C14   Br12  S    
C18   C19   A    
C5    C6    A    
Cu1   O5    S    
N12   H14   S    
Cu2   O6    S    
C19   Br2   S    
N8    H6    S    
C2    C32   A    
C34   C35   A    
C3    C12   S    
C30   Br8   S    
C22   N4    S    
C8    C9    A    
Cu1   O1    S    
C9    C10   A    
Cu2   O2    S    
C24   Br6   S    
Cu1   O7    S    
C6    C31   S    
C21   C22   A    
C10   N1    S    
C35   Br10  S    
C33   C34   A    
C32   N10   S    
C28   N5    S    
N11   H11   S    
N9    H7    S    
C24   C25   A    
C10   C11   A    
N10   H10   S    
N12   H13   S    
C1    O1    A    
C13   N8    S    
N8    H5    S    
C21   N11   S    
N9    H8    S    
C18   H1    S    
Cu1   Cu2   S    
Cu1   O3    S    
C23   O5    A    
N13   H15   S    
Cu2   O8    S    
C11   Br13  S    
C17   C18   A    
C17   C23   S    
C31   O7    A    
C15   Br11  S    
C27   N6    A    
N13   H16   S    
N7    H4    S    
C4    N7    S    
C22   C24   A    
C3    C4    A    
C16   N2    S    
C20   N3    A    
N4    N5    D    
C29   Br7   S    
C2    C36   A    
C15   C17   A    
C1    C7    S    
C26   Br5   S    
C4    C5    A    
C12   O4    A    
C1    O2    A    
Cu2   O4    S    
C26   C28   A    
C20   N12   S    
C29   N6    A    
C32   C33   A    
C28   C30   A    
C2    C3    A    
Cu2   N3    S    
C11   C13   A    
C23   O6    A    
C16   C19   A    
C5    N13   S    
C6    C36   A    
C14   C16   A    
C31   O8    A    
C27   Br4   S    
C8    Br3   S    
C7    C13   A    
N10   H9    S    
C20   C21   A    
C14   C15   A    
C34   H2    S    
Cu1   N6    S    
C33   Br9   S    
