data_mof_unit_pretest_630.cif
_audit_creation_date              2012-12-10T17:16:42-0500
_audit_creation_method            fapswitch 2.2
_symmetry_space_group_name_H-M    P1
_symmetry_Int_Tables_number       1
_space_group_crystal_system       triclinic
_cell_length_a                    10.305349
_cell_length_b                    10.651839
_cell_length_c                    10.758272
_cell_angle_alpha                 92.263524
_cell_angle_beta                  95.349332
_cell_angle_gamma                 81.567002
_cell_volume                      1162.68953736

loop_
_atom_site_label
_atom_site_type_symbol
_atom_type_description
_atom_site_fract_x
_atom_site_fract_y
_atom_site_fract_z
_atom_type_partial_charge
C1    C     C_R   0.444727 0.511851 0.267819 0.905176
C2    C     C_R   0.500213 0.738645 0.500164 0.856793
C3    C     C_R   0.543933 0.115372 0.276751 -0.157510
C4    C     C_R   0.456089 0.884652 0.723399 -0.156968
C5    C     C_R   0.569264 0.042298 0.169155 -0.149055
C6    C     C_R   0.431150 0.957639 0.831104 -0.148933
C7    C     C_R   0.570673 0.911820 0.169503 -0.150195
C8    C     C_R   0.430246 0.088073 0.830910 -0.150023
C9    C     C_R   0.546675 0.854356 0.277422 -0.143646
C10   C     C_R   0.454354 0.145622 0.723041 -0.144211
C11   C     C_R   0.524210 0.926681 0.389054 0.075984
C12   C     C_R   0.555347 0.496524 0.732401 0.905899
C13   C     C_R   0.476227 0.073342 0.611241 0.074986
C14   C     C_R   0.523160 0.057935 0.388798 0.071263
C15   C     C_R   0.476984 0.942101 0.611407 0.072008
C16   C     C_R   0.500697 0.871223 0.500249 -0.189717
C17   C     C_R   0.499445 0.128809 0.499953 -0.192594
C18   C     C_3   0.887936 0.608664 0.612165 -0.833808
C19   C     C_3   0.112053 0.391366 0.387822 -0.835184
C20   C     C_2   0.414201 0.532801 0.136152 -0.372206
C21   C     C_2   0.586270 0.508501 0.865318 -0.379073
C22   C     C_2   0.512113 0.548600 0.068441 -0.172902
C23   C     C_2   0.488946 0.552716 0.935540 -0.171115
C24   C     C_2   0.071467 0.488948 0.488040 0.220373
C25   C     C_2   0.928525 0.511069 0.511953 0.218050
C26   C     C_R   0.499830 0.261376 0.499966 0.862763
H1    H     H_    0.411484 0.144940 0.914675 0.137928
H2    H     H_    0.612838 0.547492 0.109545 0.189874
H3    H     H_    0.686341 0.479579 0.905929 0.157475
H4    H     H_    0.313835 0.533688 0.094375 0.155777
H5    H     H_    0.872314 0.382541 0.381354 0.156975
H6    H     H_    0.127694 0.617452 0.618657 0.155146
H7    H     H_    0.942327 0.580244 0.703041 0.196994
H8    H     H_    0.910038 0.702896 0.586933 0.208506
H9    H     H_    0.784325 0.621731 0.627796 0.297226
H10   H     H_    0.057652 0.419794 0.296953 0.196491
H11   H     H_    0.215666 0.378310 0.372193 0.297190
H12   H     H_    0.589764 0.854841 0.085856 0.140634
H13   H     H_    0.089959 0.297128 0.413049 0.209078
H14   H     H_    0.540733 0.216849 0.270580 0.141039
H15   H     H_    0.458900 0.783233 0.729449 0.139206
H16   H     H_    0.587428 0.087213 0.085260 0.139917
H17   H     H_    0.412990 0.912666 0.914981 0.141277
H18   H     H_    0.546038 0.753096 0.271837 0.148712
H19   H     H_    0.455701 0.246887 0.728869 0.150614
H20   H     H_    0.388508 0.581498 0.895595 0.189502
N1    N     N_2   0.157300 0.551390 0.551120 -0.198325
N2    N     N_2   0.842700 0.448610 0.448880 -0.199021
O1    O     O_R   0.568940 0.489660 0.307530 -0.619399
O2    O     O_R   0.431060 0.510340 0.692470 -0.618729
O3    O     O_R   0.348880 0.522640 0.340350 -0.615243
O4    O     O_R   0.651120 0.477360 0.659650 -0.614697
O5    O     O_R   0.610030 0.300280 0.483580 -0.602771
O6    O     O_R   0.389970 0.699720 0.516420 -0.605747
O7    O     O_R   0.389970 0.333270 0.516400 -0.621702
O8    O     O_R   0.610030 0.666730 0.483600 -0.625309
Zn1   Zn    Zn3+2 0.646940 0.477980 0.478080 0.927533
Zn2   Zn    Zn3+2 0.353060 0.522020 0.521920 0.927693

loop_
_geom_bond_atom_site_label_1
_geom_bond_atom_site_label_2
_ccdc_geom_bond_type
C12   O2    A    
C5    H16   S    
C18   H7    S    
C2    C16   S    
C11   C16   A    
C14   C17   A    
C13   C17   A    
C9    C11   A    
C26   O7    A    
C10   H19   S    
C21   C23   D    
C19   C24   S    
N2    Zn1   S    
C23   H20   S    
C22   H2    S    
C24   C25   S    
N1    Zn2   S    
C1    O3    A    
C25   N2    D    
C3    C14   A    
C19   H13   S    
C18   H8    S    
C6    C8    A    
C17   C26   S    
C18   H9    S    
C8    C10   A    
C12   O4    A    
C7    H12   S    
C20   C22   D    
C3    H14   S    
C6    H17   S    
C13   C15   A    
C4    C15   A    
O6    Zn2   S    
H5    N2    S    
H6    N1    S    
C18   C25   S    
C2    O6    A    
C4    H15   S    
C15   C16   A    
O2    Zn2   S    
C26   O5    A    
C7    C9    A    
O1    Zn1   S    
O8    Zn1   S    
C4    C6    A    
O4    Zn1   S    
O7    Zn2   S    
O3    Zn2   S    
C11   C14   A    
C5    C7    A    
C8    H1    S    
O5    Zn1   S    
C22   C23   S    
C9    H18   S    
C20   H4    S    
C19   H11   S    
C3    C5    A    
C19   H10   S    
C24   N1    D    
C21   H3    S    
C12   C21   S    
C2    O8    A    
C1    C20   S    
C10   C13   A    
C1    O1    A    
