data_mof_unit_pretest_1578.cif
_audit_creation_date              2012-12-11T17:11:35-0500
_audit_creation_method            fapswitch 2.2
_symmetry_space_group_name_H-M    P1
_symmetry_Int_Tables_number       1
_space_group_crystal_system       triclinic
_cell_length_a                    8.28829
_cell_length_b                    16.487313
_cell_length_c                    16.364781
_cell_angle_alpha                 108.391563
_cell_angle_beta                  93.323368
_cell_angle_gamma                 82.635056
_cell_volume                      2104.17831396

loop_
_atom_site_label
_atom_site_type_symbol
_atom_type_description
_atom_site_fract_x
_atom_site_fract_y
_atom_site_fract_z
_atom_type_partial_charge
Ba1   Ba    Ba6+2 0.642070 0.542310 0.469620 1.735219
Ba2   Ba    Ba6+2 0.168110 0.457680 0.530320 1.709210
C1    C     C_3   0.788563 0.758130 0.201890 -0.359283
C2    C     C_R   0.097007 0.751218 0.526158 -0.180409
C3    C     C_2   0.520432 0.143461 0.421664 -0.076383
C4    C     C_3   0.322784 0.764513 0.269875 0.279423
C5    C     C_2   0.556400 0.224398 0.438405 0.074829
C6    C     C_2   0.820700 0.192497 0.506197 0.054533
C7    C     C_3   0.798883 0.097648 0.471174 0.035504
C8    C     C_3   0.618542 0.083137 0.463023 -0.040544
C9    C     C_2   0.895656 0.041530 0.517671 -0.118231
C10   C     C_2   0.908579 0.955906 0.482447 -0.098373
C11   C     C_R   0.158229 0.921369 0.563747 0.007333
C12   C     C_3   0.832305 0.737679 0.285893 0.683521
C13   C     C_R   0.014465 0.895723 0.518574 -0.060455
C14   C     C_R   0.269432 0.862942 0.590254 -0.129555
C15   C     C_R   0.241164 0.776857 0.569623 0.019259
C16   C     C_3   0.374874 0.846691 0.261425 -0.392689
C17   C     C_R   0.981936 0.809988 0.501509 0.059964
C18   C     C_R   0.099138 0.541551 0.277193 0.168692
C19   C     C_R   0.974580 0.490734 0.240366 -0.001882
C20   C     C_R   0.928196 0.478816 0.153948 -0.201618
C21   C     C_R   0.010065 0.515284 0.103098 0.248606
C22   C     C_R   0.145034 0.558836 0.138968 -0.221397
C23   C     C_3   0.964799 0.725433 0.723494 0.726753
C24   C     C_R   0.190884 0.571217 0.225369 0.003678
C25   C     C_R   0.881122 0.506137 0.852730 -0.134929
C26   C     C_R   0.831246 0.502268 0.768697 -0.014066
C27   C     C_R   0.797072 0.466955 0.900419 0.255698
C28   C     C_3   0.344264 0.347884 0.260399 0.451126
C29   C     C_R   0.700878 0.457282 0.730349 -0.219935
C30   C     C_R   0.610403 0.422186 0.777630 0.023106
C31   C     C_R   0.659343 0.426334 0.862360 -0.151873
C32   C     C_3   0.339808 0.326032 0.162749 0.239642
C33   C     C_3   0.468602 0.644183 0.734908 0.289525
C34   C     C_3   0.063565 0.788627 0.790644 -0.367121
C35   C     C_3   0.505977 0.666136 0.831247 -0.406059
C36   C     C_3   0.861018 0.277091 0.307011 0.347370
C37   C     C_3   0.905202 0.180330 0.263082 0.649004
C38   C     C_3   0.829096 0.046822 0.251547 0.167514
C39   C     C_3   0.742638 0.832268 0.730965 0.227963
C40   C     C_3   0.495609 0.225015 0.708867 0.280265
C41   C     C_3   0.444887 0.135427 0.691099 -0.363263
C42   C     C_3   0.996106 0.261126 0.717068 0.685817
C43   C     C_3   0.048206 0.237585 0.798836 -0.338280
C44   C     C_2   0.704413 0.251054 0.489860 -0.237322
H1    H     H_    0.815705 0.669132 0.274436 0.062519
H2    H     H_    0.923242 0.296401 0.371159 0.027645
H3    H     H_    0.669440 0.736916 0.175985 0.131916
H4    H     H_    0.866490 0.165919 0.193754 -0.008355
H5    H     H_    0.881428 0.723439 0.152773 0.087971
H6    H     H_    0.054995 0.683326 0.676145 -0.009123
H7    H     H_    0.160164 0.752015 0.818481 0.093739
H8    H     H_    0.119501 0.829504 0.760308 0.074829
H9    H     H_    0.986765 0.830121 0.844899 0.081235
H10   H     H_    0.784102 0.828358 0.212608 0.079408
H11   H     H_    0.269285 0.897483 0.273669 0.077385
H12   H     H_    0.270599 0.269853 0.133933 0.028167
H13   H     H_    0.549038 0.226693 0.648630 0.048724
H14   H     H_    0.584271 0.235621 0.763658 0.053187
H15   H     H_    0.365623 0.119049 0.632592 0.163727
H16   H     H_    0.554803 0.087372 0.679667 0.054329
H17   H     H_    0.379773 0.131662 0.746946 0.116964
H18   H     H_    0.016020 0.329255 0.728621 0.075063
H19   H     H_    0.963069 0.273677 0.851515 0.090986
H20   H     H_    0.171635 0.254419 0.821080 0.124763
H21   H     H_    0.283338 0.778623 0.337300 0.067911
H22   H     H_    0.046261 0.167555 0.787002 0.087082
H23   H     H_    0.277277 0.381981 0.144898 -0.058434
H24   H     H_    0.413614 0.122512 0.383131 0.117354
H25   H     H_    0.378192 0.884774 0.625609 0.073572
H26   H     H_    0.722285 0.318557 0.509286 0.055536
H27   H     H_    0.072644 0.685495 0.513571 0.118310
H28   H     H_    0.956241 0.069569 0.578663 0.089832
H29   H     H_    0.841862 0.929815 0.422975 0.094361
H30   H     H_    0.981655 0.542157 0.881259 0.106156
H31   H     H_    0.216116 0.581748 0.099080 0.089455
H32   H     H_    0.830384 0.440253 0.126646 0.141056
H33   H     H_    0.223107 0.745723 0.221818 0.051521
H34   H     H_    0.582168 0.616058 0.699216 0.029140
H35   H     H_    0.588255 0.400100 0.899353 0.071881
H36   H     H_    0.661270 0.456173 0.665869 0.051629
H37   H     H_    0.472457 0.870001 0.309140 0.164426
H38   H     H_    0.418496 0.835271 0.195421 0.113096
H39   H     H_    0.218111 0.365173 0.283714 -0.160814
H40   H     H_    0.415315 0.403413 0.287587 0.028204
H41   H     H_    0.488250 0.294862 0.068449 0.296451
H42   H     H_    0.956668 0.015765 0.240606 0.078121
H43   H     H_    0.763242 0.040848 0.189113 0.016328
H44   H     H_    0.767301 0.011197 0.285411 0.052152
H45   H     H_    0.379976 0.596245 0.717297 0.069036
H46   H     H_    0.125330 0.177407 0.226487 0.281425
H47   H     H_    0.002244 0.811945 0.321333 0.261336
H48   H     H_    0.803034 0.891142 0.761652 -0.022822
H49   H     H_    0.689323 0.810788 0.780294 0.054203
H50   H     H_    0.641012 0.850950 0.691187 0.079423
H51   H     H_    0.821250 0.190368 0.685467 0.260861
H52   H     H_    0.208067 0.511350 0.370513 0.292323
H53   H     H_    0.600746 0.710750 0.850229 0.133441
H54   H     H_    0.549694 0.607047 0.848103 0.059078
H55   H     H_    0.395301 0.696824 0.868893 0.111560
H56   H     H_    0.727708 0.291281 0.314896 -0.028116
N1    N     N_2   0.965725 0.507607 0.015553 -0.231821
N2    N     N_2   0.840706 0.471672 0.987600 -0.231436
O1    O     O_2   0.554430 0.712240 0.583340 -0.420586
O2    O     O_2   0.275077 0.451759 0.779229 -0.490187
O3    O     O_3   0.361380 0.287402 0.732920 -0.587550
O4    O     O_3   0.337760 0.603960 0.562660 -0.494380
O5    O     O_3   0.954190 0.455690 0.394480 -0.461063
O6    O     O_2   0.106750 0.542200 0.705290 -0.474293
O7    O     O_3   0.884947 0.679155 0.765308 -0.675785
O8    O     O_2   0.154315 0.190334 0.486664 -0.456834
O9    O     O_3   0.087927 0.206801 0.646444 -0.611712
O10   O     O_3   0.813110 0.658990 0.426440 -0.438041
O11   O     O_2   0.643886 0.808101 0.508582 -0.476813
O12   O     O_3   0.909893 0.320014 0.252968 -0.679435
O13   O     O_3   0.403378 0.719369 0.716492 -0.656382
O14   O     O_3   0.730730 0.791389 0.352443 -0.620715
O15   O     O_2   0.703570 0.457750 0.294670 -0.441713
O16   O     O_3   0.412810 0.615240 0.376810 -0.437797
O17   O     O_2   0.518953 0.535139 0.218544 -0.473479
O18   O     O_3   0.498754 0.306896 0.131765 -0.705872
O19   O     O_3   0.823051 0.133752 0.303326 -0.682293
O20   O     O_3   0.074159 0.159282 0.270278 -0.719073
O21   O     O_3   0.995060 0.749311 0.307157 -0.823683
O22   O     O_3   0.851377 0.766901 0.676658 -0.665321
O23   O     O_3   0.452309 0.698714 0.251580 -0.592506
O24   O     O_3   0.830883 0.252938 0.701816 -0.835323
O25   O     O_3   0.133674 0.560891 0.363655 -0.702776
O26   O     O_2   0.255890 0.287710 0.416620 -0.435213
O27   O     O_3   0.472550 0.396030 0.437270 -0.523771
O28   O     O_3   0.997190 0.341000 0.573500 -0.481503
O29   O     O_3   0.415635 0.275892 0.282780 -0.623235
O30   O     O_3   0.856110 0.544300 0.605450 -0.460700
O31   O     O_3   0.397490 0.384750 0.623120 -0.472689
P1    P     P_3+3 0.385820 0.698700 0.604730 0.984426
P2    P     P_3+3 0.884390 0.431600 0.301750 1.029614
P3    P     P_3+3 0.389647 0.607318 0.267373 1.006023
P4    P     P_3+3 0.424480 0.301290 0.395200 1.001516
P5    P     P_3+3 0.414146 0.385919 0.730457 0.964050
P6    P     P_3+3 0.790958 0.770003 0.448972 1.045002
P7    P     P_3+3 0.917727 0.567606 0.713445 0.946605
P8    P     P_3+3 0.016720 0.230174 0.552122 1.015705

loop_
_geom_bond_atom_site_label_1
_geom_bond_atom_site_label_2
_ccdc_geom_bond_type
C5    P4    S    
O11   P6    D    
Ba2   O5    S    
C25   C27   A    
C19   P2    S    
C18   O25   S    
O14   P6    S    
C1    H3    S    
C41   H17   S    
C33   H45   S    
C42   H18   S    
C13   C17   A    
C10   H29   S    
Ba2   O30   S    
C29   H36   S    
Ba2   P4    S    
O8    P8    D    
C33   C35   S    
C22   C24   A    
C4    O23   S    
O4    P1    S    
H46   O20   S    
C36   C37   S    
C39   H50   S    
C27   C31   A    
C33   H34   S    
C37   O19   S    
O5    P2    S    
Ba1   Ba2   S    
Ba1   O15   S    
O3    P5    S    
O6    P7    D    
C34   H7    S    
O7    P7    S    
Ba1   O5    S    
C2    C17   A    
O2    P5    D    
C21   N1    S    
C29   C30   A    
C6    C7    S    
C12   O14   S    
Ba2   O28   S    
C21   C22   A    
O23   P3    S    
C38   H43   S    
C28   H40   S    
Ba1   P1    S    
C7    C8    S    
C36   H2    S    
O28   P8    S    
C32   O18   S    
C19   C20   A    
C14   H25   S    
C15   P1    S    
H51   O24   S    
O26   P4    D    
C16   H37   S    
H47   O21   S    
O31   P5    S    
C4    C16   S    
C28   C32   S    
O15   P2    D    
C5    C44   S    
O27   P4    S    
C20   H32   S    
C40   H14   S    
C3    C5    D    
C1    H5    S    
C14   C15   A    
Ba1   O4    S    
C24   P3    S    
C37   O20   S    
O9    P8    S    
C27   N2    S    
Ba1   O16   S    
O17   P3    D    
C23   O22   S    
O10   P6    S    
C3    H24   S    
O30   P7    S    
C36   O12   S    
C1    H10   S    
C16   H11   S    
C16   H38   S    
C39   H48   S    
C10   C13   S    
C28   O29   S    
C43   H22   S    
Ba2   O27   S    
C28   H39   S    
C7    C9    S    
C32   H23   S    
C2    H27   S    
C1    C12   S    
O1    P1    D    
C2    C15   A    
C4    H21   S    
C42   O9    S    
O29   P4    S    
C11   C13   A    
C43   H19   S    
C33   O13   S    
C26   P7    S    
Ba1   O10   S    
C25   H30   S    
N1    N2    D    
Ba1   P2    S    
C42   C43   S    
C41   H15   S    
O12   P2    S    
C40   O3    S    
C38   O19   S    
C42   O24   S    
C44   H26   S    
C39   O22   S    
C26   C29   A    
Ba1   O27   S    
C9    H28   S    
C40   H13   S    
H41   O18   S    
C9    C10   D    
C30   P5    S    
C12   H1    S    
C12   O21   S    
Ba2   O31   S    
C30   C31   A    
C38   H42   S    
C23   H6    S    
C3    C8    S    
C36   H56   S    
C34   H9    S    
C35   H55   S    
C35   H53   S    
C4    H33   S    
C39   H49   S    
C18   C24   A    
H52   O25   S    
Ba2   O4    S    
Ba2   O26   S    
C6    P8    S    
C6    C44   D    
C34   H8    S    
C23   O7    S    
C23   C34   S    
C22   H31   S    
C37   H4    S    
O16   P3    S    
C18   C19   A    
C17   P6    S    
C40   C41   S    
C11   C14   A    
C43   H20   S    
C32   H12   S    
C20   C21   A    
C38   H44   S    
O13   P1    S    
C31   H35   S    
C35   H54   S    
Ba1   O30   S    
C41   H16   S    
Ba1   O1    S    
C25   C26   A    
Ba2   O6    S    
