data_mof_unit_pretest_1099.cif
_audit_creation_date              2013-03-05T15:42:34-0500
_audit_creation_method            fapswitch 2.2
_symmetry_space_group_name_H-M    P1
_symmetry_Int_Tables_number       1
_space_group_crystal_system       triclinic
_cell_length_a                    10.967129
_cell_length_b                    10.998463
_cell_length_c                    9.76204
_cell_angle_alpha                 88.859709
_cell_angle_beta                  89.698855
_cell_angle_gamma                 92.046536
_cell_volume                      1176.50742633

loop_
_atom_site_label
_atom_site_type_symbol
_atom_site_description
_atom_site_fract_x
_atom_site_fract_y
_atom_site_fract_z
_atom_type_partial_charge
O1    O     O_R   0.500020 0.321960 0.617040 -0.618450
O2    O     O_R   0.499980 0.321920 0.382900 -0.491509
C1    C     C_R   0.504926 0.265231 0.500943 0.944991
O3    O     O_R   0.319670 0.500020 0.617100 -0.601912
O4    O     O_R   0.319630 0.499980 0.382950 -0.539722
C2    C     C_R   0.262214 0.498270 0.500658 0.841220
Cu1   Cu    Cu3+1 0.500020 0.500020 0.638630 1.060753
Cu2   Cu    Cu3+1 0.499980 0.499980 0.361370 1.186234
O5    O     O_R   0.500020 0.678080 0.617100 -0.592088
O6    O     O_R   0.499980 0.678040 0.382960 -0.528501
O7    O     O_R   0.680370 0.500020 0.617050 -0.513684
O8    O     O_R   0.680330 0.499980 0.382900 -0.555283
C3    C     C_R   0.510540 0.733225 0.498452 0.848291
C4    C     C_R   0.737013 0.503188 0.499202 0.849379
C5    C     C_R   0.108114 0.287138 0.615105 -0.029277
C6    C     C_R   0.036724 0.197503 0.687835 -0.118716
C7    C     C_R   0.909661 0.197380 0.673845 -0.135734
C8    C     C_R   0.858866 0.289008 0.594053 0.601502
C9    C     C_R   0.927693 0.394371 0.550262 -0.000629
C10   C     C_R   0.056176 0.393338 0.557229 -0.025688
C11   C     C_R   0.127047 0.495527 0.501944 -0.074843
C12   C     C_R   0.068163 0.598418 0.447357 -0.063578
C13   C     C_R   0.939597 0.600766 0.447353 -0.107386
C14   C     C_R   0.870354 0.498247 0.496619 -0.105433
C15   C     C_2   0.511557 0.934219 0.391340 0.476195
C16   C     C_2   0.545307 0.860948 0.494641 0.356570
C17   C     C_2   0.537774 0.065598 0.395365 -0.049268
C18   C     C_2   0.500970 0.131447 0.504494 -0.157020
C19   C     C_2   0.513734 0.405678 0.929971 0.014018
N1    N     N_2   0.498640 0.498660 0.846910 -0.268371
C20   C     C_2   0.476432 0.405350 0.077840 0.744145
N2    N     N_2   0.498610 0.498630 0.153040 0.040886
C21   C     C_2   0.140245 0.704469 0.388172 0.528579
H1    H     H_    0.110671 0.748251 0.294059 0.124588
O9    O     O_2   0.229698 0.746806 0.446683 -0.500653
C22   C     C_2   0.441740 0.073521 0.628763 0.426305
H2    H     H_    0.466083 0.105827 0.729542 0.094835
O10   O     O_2   0.360430 0.995339 0.619275 -0.483542
C23   C     C_2   0.585889 0.302388 0.889489 0.429463
H3    H     H_    0.565511 0.212300 0.932867 0.068354
O11   O     O_2   0.675173 0.318778 0.816196 -0.492404
C24   C     C_2   0.415523 0.588700 0.887803 0.700368
H4    H     H_    0.440771 0.684357 0.873777 0.111269
O12   O     O_2   0.313634 0.559728 0.931349 -0.557798
F1    F     F_    0.422268 0.302930 0.133632 -0.654136
F2    F     F_    0.575690 0.584288 0.099354 -0.588853
C25   C     C_2   0.228463 0.252004 0.574041 0.388490
H5    H     H_    0.296807 0.245642 0.651957 0.084509
O13   O     O_2   0.248263 0.226331 0.455045 -0.497557
C26   C     C_2   0.095555 0.095464 0.761621 0.554890
H6    H     H_    0.058683 0.003011 0.754107 0.135344
O14   O     O_2   0.184999 0.114456 0.833075 -0.509634
C27   C     C_2   0.825906 0.102506 0.737710 0.505858
H7    H     H_    0.735800 0.085743 0.695357 0.171978
O15   O     O_2   0.852923 0.047071 0.842197 -0.524136
F3    F     F_    0.741884 0.271999 0.556292 -0.685183
C28   C     C_2   0.875718 0.712750 0.402954 0.355814
H8    H     H_    0.788437 0.705741 0.351623 0.103777
O16   O     O_2   0.917546 0.814186 0.428192 -0.502544
F4    F     F_    0.447923 0.889954 0.282588 -0.612654
F5    F     F_    0.616429 0.903864 0.598131 -0.698874
C29   C     C_2   0.606176 0.117270 0.274442 0.512425
H9    H     H_    0.594498 0.075417 0.175378 0.110933
O17   O     O_2   0.681887 0.200549 0.285407 -0.486900

loop_
_geom_bond_atom_site_label_1
_geom_bond_atom_site_label_2
_geom_bond_distance
_ccdc_geom_bond_type
O4    Cu2   1.988009 S    
C26   O14   1.220990 D    
C13   C14   1.411663 A    
C19   N1    1.308127 D    
C15   F4    1.362067 S    
C5    C25   1.445381 S    
C15   C17   1.464533 S    
C23   O11   1.215778 D    
C20   N2    1.290214 D    
C8    F3    1.344407 S    
Cu2   O8    1.990155 S    
Cu1   O5    1.965469 S    
C19   C23   1.466874 S    
C9    C10   1.411532 A    
C22   O10   1.221653 D    
C9    C14   1.416291 A    
Cu1   Cu2   2.706634 S    
C19   C20   1.498187 S    
Cu1   N1    2.032968 S    
O1    Cu1   1.973861 S    
C27   H7    1.084343 S    
Cu1   O7    1.988007 S    
C28   H8    1.083793 S    
C29   H9    1.085503 S    
C24   O12   1.222737 D    
O3    Cu1   1.990155 S    
O3    C2    1.302715 A    
C22   H2    1.084111 S    
C17   C29   1.487532 S    
C16   F5    1.361182 S    
C6    C26   1.489648 S    
C7    C8    1.395014 A    
O2    C1    1.301559 A    
C27   O15   1.221181 D    
O4    C2    1.306872 A    
O7    C4    1.303827 A    
O2    Cu2   1.965470 S    
C3    C16   1.442092 S    
C28   O16   1.221211 D    
C6    C7    1.400859 A    
C24   H4    1.084136 S    
C5    C6    1.414263 A    
Cu2   N2    2.034207 S    
C7    C27   1.490260 S    
C17   C18   1.367268 D    
C21   H1    1.085274 S    
C10   C11   1.437930 A    
C18   C22   1.493625 S    
C25   O13   1.221096 D    
C8    C9    1.417685 A    
C20   F1    1.357499 S    
C4    C14   1.465412 S    
C23   H3    1.085126 S    
C13   C28   1.496399 S    
C12   C21   1.490567 S    
O5    C3    1.299363 A    
C12   C13   1.411152 A    
C1    C18   1.470216 S    
C29   O17   1.220812 D    
C26   H6    1.084801 S    
C21   O9    1.220391 D    
C15   C16   1.340238 D    
C11   C12   1.418956 A    
C2    C11   1.481608 S    
N2    F2    1.340018 S    
Cu2   O6    1.973859 S    
N1    C24   1.430863 S    
C25   H5    1.073720 S    
O8    C4    1.297749 A    
C5    C10   1.425704 A    
O1    C1    1.306348 A    
O6    C3    1.294801 A    
