data_mof_unit_pretest_1835.cif
_audit_creation_date              2012-10-26T17:56:55-0400
_audit_creation_method            fapswitch 2.2
_symmetry_space_group_name_H-M    P1
_symmetry_Int_Tables_number       1
_space_group_crystal_system       triclinic
_cell_length_a                    18.598879
_cell_length_b                    18.584177
_cell_length_c                    18.711248
_cell_angle_alpha                 109.425073
_cell_angle_beta                  109.772312
_cell_angle_gamma                 109.177498
_cell_volume                      4980.92239554

loop_
_atom_site_label
_atom_site_type_symbol
_atom_type_description
_atom_site_fract_x
_atom_site_fract_y
_atom_site_fract_z
_atom_type_partial_charge
C1    C     C_R   0.620876 0.620234 0.500949 0.595086
C2    C     C_3   0.810744 0.809118 0.498103 -0.007074
C3    C     C_3   0.721292 0.758864 0.411200 -0.176749
C4    C     C_R   0.380036 0.500276 0.379963 0.580171
C5    C     C_3   0.797778 0.852845 0.575334 -0.226521
C6    C     C_3   0.701689 0.418992 0.650588 -0.226212
C7    C     C_3   0.772707 0.419646 0.723797 -0.239340
C8    C     C_3   0.776208 0.584450 0.734754 -0.239054
C9    C     C_3   0.662581 0.493479 0.759066 -0.234108
C10   C     C_3   0.688182 0.498473 0.689344 0.053626
C11   C     C_3   0.811449 0.501287 0.813030 0.052531
C12   C     C_3   0.188778 0.417053 0.188624 -0.127341
C13   C     C_3   0.849287 0.585277 0.806055 -0.226776
C14   C     C_3   0.736167 0.497394 0.833021 -0.233923
C15   C     C_3   0.268988 0.218244 0.419189 -0.226264
C16   C     C_R   0.378776 0.379770 0.498720 0.542007
C17   C     C_3   0.196664 0.148103 0.419802 -0.239136
C18   C     C_3   0.350840 0.308010 0.584152 -0.239043
C19   C     C_3   0.234661 0.331702 0.494454 -0.233829
C20   C     C_3   0.309735 0.310768 0.498760 0.053216
C21   C     C_3   0.189198 0.190576 0.501502 0.053021
C22   C     C_3   0.280589 0.235925 0.584913 -0.227034
C23   C     C_3   0.214570 0.458984 0.286394 -0.124473
C24   C     C_3   0.164896 0.262237 0.498335 -0.233775
C25   C     C_R   0.999895 0.620252 0.119768 0.545001
C26   C     C_R   0.121421 0.500071 0.121222 0.553447
C27   C     C_R   0.002725 0.379865 0.882586 0.547918
C28   C     C_R   0.619075 0.498549 0.620149 0.541990
C29   C     C_R   0.880849 0.501554 0.882294 0.545845
C30   C     C_R   0.999159 0.878546 0.380387 0.544142
C31   C     C_R   0.879823 0.878084 0.498087 0.563720
C32   C     C_R   0.998408 0.118993 0.619606 0.590264
C33   C     C_R   0.120203 0.121586 0.501582 0.544092
C34   C     C_3   0.311805 0.500541 0.311626 0.051818
C35   C     C_3   0.903907 0.667769 0.164575 -0.234348
C36   C     C_3   0.903626 0.737269 0.237882 -0.233369
C37   C     C_3   0.045052 0.692874 0.277065 -0.238778
C38   C     C_3   0.049917 0.781580 0.200279 -0.226539
C39   C     C_3   0.999764 0.689272 0.188714 0.052126
C40   C     C_3   0.313168 0.583869 0.312680 -0.098191
C41   C     C_3   0.999375 0.809548 0.311529 0.052591
C42   C     C_3   0.046877 0.765051 0.349824 -0.227514
C43   C     C_3   0.047681 0.851750 0.270964 -0.238867
C44   C     C_3   0.994664 0.233419 0.831020 -0.175160
C45   C     C_3   0.768032 0.672041 0.512546 -0.297990
C46   C     C_3   0.991016 0.160378 0.757172 0.237569
C47   C     C_3   0.921684 0.274559 0.723314 -0.244266
C48   C     C_3   0.087236 0.347695 0.808138 -0.251682
C49   C     C_3   0.001903 0.310551 0.813009 0.010497
C50   C     C_3   0.998308 0.187728 0.688802 0.068543
C51   C     C_3   0.920700 0.203955 0.649844 -0.206998
C52   C     C_3   0.214745 0.542267 0.286315 -0.126298
C53   C     C_3   0.085779 0.274981 0.736364 -0.300848
C54   C     C_3   0.190067 0.500362 0.189697 0.038534
C55   C     C_3   0.287407 0.541982 0.215033 -0.108396
C56   C     C_3   0.838307 0.741370 0.509037 -0.262206
C57   C     C_3   0.287018 0.458608 0.214904 -0.119528
C58   C     C_3   0.650712 0.686758 0.411786 0.236905
C59   C     C_3   0.725649 0.782752 0.576144 -0.217321
C60   C     C_3   0.689703 0.689214 0.500660 0.062108
Cu1   Cu    Cu3+1 0.500160 0.437540 0.437660 0.896743
Cu2   Cu    Cu3+1 0.499840 0.562460 0.562340 0.912160
Cu3   Cu    Cu3+1 0.938720 0.437560 0.001120 0.894854
Cu4   Cu    Cu3+1 0.063680 0.562470 0.001100 0.891308
Cu5   Cu    Cu3+1 0.062620 0.000040 0.562660 0.897693
Cu6   Cu    Cu3+1 0.937380 0.999960 0.437350 0.897580
F1    F     F_    0.578298 0.698717 0.397047 -0.659667
F2    F     F_    0.913254 0.082222 0.716973 -0.675797
H1    H     H_    0.183796 0.576580 0.314173 0.101672
H2    H     H_    0.638702 0.356234 0.616068 0.118625
H3    H     H_    0.743245 0.358461 0.726327 0.121996
H4    H     H_    0.825826 0.420165 0.708724 0.104101
H5    H     H_    0.901988 0.588895 0.789418 0.132604
H6    H     H_    0.651662 0.548983 0.787959 0.132601
H7    H     H_    0.599862 0.431381 0.727798 0.100803
H8    H     H_    0.707648 0.438386 0.839097 0.133793
H9    H     H_    0.762578 0.556284 0.896588 0.101284
H10   H     H_    0.769065 0.642452 0.765034 0.124159
H11   H     H_    0.316348 0.575978 0.184711 0.134619
H12   H     H_    0.846965 0.708377 0.453403 0.108080
H13   H     H_    0.879208 0.645105 0.870150 0.114494
H14   H     H_    0.320911 0.200253 0.421584 0.130779
H15   H     H_    0.240329 0.218906 0.356822 0.119600
H16   H     H_    0.132659 0.116970 0.359009 0.120982
H17   H     H_    0.212596 0.095356 0.419819 0.104467
H18   H     H_    0.406032 0.294650 0.589519 0.102345
H19   H     H_    0.301149 0.186634 0.588014 0.132367
H20   H     H_    0.261263 0.397789 0.550069 0.132890
H21   H     H_    0.203362 0.332778 0.432782 0.102353
H22   H     H_    0.099491 0.232347 0.439776 0.133680
H23   H     H_    0.628166 0.621449 0.357434 0.128522
H24   H     H_    0.317707 0.424329 0.186530 0.123211
H25   H     H_    0.160393 0.294480 0.557309 0.101240
H26   H     H_    0.378581 0.372803 0.642237 0.122325
H27   H     H_    0.276483 0.265578 0.644778 0.114271
H28   H     H_    0.865537 0.601802 0.155085 0.132783
H29   H     H_    0.870511 0.666115 0.101710 0.100577
H30   H     H_    0.867080 0.766556 0.209114 0.134070
H31   H     H_    0.868061 0.705190 0.265566 0.101586
H32   H     H_    0.009147 0.628238 0.271336 0.123189
H33   H     H_    0.014320 0.735618 0.380984 0.114427
H34   H     H_    0.671395 0.798001 0.569103 0.187374
H35   H     H_    0.119712 0.800013 0.219873 0.133314
H36   H     H_    0.136606 0.348685 0.136511 0.112873
H37   H     H_    0.019550 0.780302 0.137064 0.116313
H38   H     H_    0.013745 0.882269 0.241116 0.121322
H39   H     H_    0.116158 0.904933 0.322854 0.104269
H40   H     H_    0.113531 0.706642 0.295027 0.107446
H41   H     H_    0.934580 0.205545 0.835597 0.183612
H42   H     H_    0.052312 0.257919 0.895041 0.061874
H43   H     H_    0.046539 0.149510 0.786804 0.133705
H44   H     H_    0.859524 0.245536 0.724305 0.134081
H45   H     H_    0.753389 0.785631 0.640540 0.111046
H46   H     H_    0.186105 0.424970 0.316967 0.099948
H47   H     H_    0.856723 0.141833 0.613379 0.174131
H48   H     H_    0.093357 0.401863 0.793149 0.145344
H49   H     H_    0.146079 0.375401 0.872513 0.121788
H50   H     H_    0.142714 0.266143 0.766620 0.114417
H51   H     H_    0.093429 0.295333 0.688539 0.111283
H52   H     H_    0.924458 0.329020 0.709629 0.105327
H53   H     H_    0.926015 0.226174 0.602540 0.111949
H54   H     H_    0.745091 0.605420 0.460154 0.123815
H55   H     H_    0.797751 0.674408 0.576464 0.111467
H56   H     H_    0.860559 0.888115 0.638563 0.166035
H57   H     H_    0.902406 0.774875 0.570421 0.147868
H58   H     H_    0.729505 0.728354 0.354427 0.072593
H59   H     H_    0.365426 0.652222 0.364745 0.147664
H60   H     H_    0.795108 0.590276 0.685633 0.101075
H61   H     H_    0.116581 0.814821 0.401350 0.132956
H62   H     H_    0.778802 0.902380 0.569372 0.172842
H63   H     H_    0.698709 0.805431 0.402418 0.184318
H64   H     H_    0.722268 0.421855 0.601769 0.129992
O1    O     O_R   0.591300 0.538410 0.447360 -0.523608
O2    O     O_R   0.947410 0.908840 0.356190 -0.519375
O3    O     O_R   0.961720 0.908880 0.552900 -0.506814
O4    O     O_R   0.591030 0.643900 0.552660 -0.501870
O5    O     O_R   0.855960 0.908820 0.447080 -0.514621
O6    O     O_R   0.052590 0.091170 0.643810 -0.515964
O7    O     O_R   0.946830 0.091100 0.537990 -0.516186
O8    O     O_R   0.144040 0.091190 0.552920 -0.520555
O9    O     O_R   0.038280 0.091120 0.447100 -0.519841
O10   O     O_R   0.408770 0.447260 0.356000 -0.511011
O11   O     O_R   0.408500 0.552750 0.461290 -0.504408
O12   O     O_R   0.053760 0.643910 0.092060 -0.517471
O13   O     O_R   0.408970 0.356100 0.447340 -0.520984
O14   O     O_R   0.408700 0.461590 0.552640 -0.522146
O15   O     O_R   0.591500 0.447250 0.538710 -0.521910
O16   O     O_R   0.591230 0.552740 0.644000 -0.522841
O17   O     O_R   0.948230 0.538430 0.092080 -0.518724
O18   O     O_R   0.039800 0.447260 0.092470 -0.509787
O19   O     O_R   0.145330 0.552750 0.092450 -0.513142
O20   O     O_R   0.948640 0.356110 0.910160 -0.516940
O21   O     O_R   0.054170 0.461590 0.910140 -0.514426
O22   O     O_R   0.857070 0.447280 0.909760 -0.517417
O23   O     O_R   0.962600 0.552760 0.909740 -0.518961
O24   O     O_R   0.053170 0.908900 0.462020 -0.520222

loop_
_geom_bond_atom_site_label_1
_geom_bond_atom_site_label_2
_ccdc_geom_bond_type
C44   C49   S    
C27   O21   A    
C45   C60   S    
C27   O20   A    
C57   H24   S    
C22   H27   S    
C35   C36   S    
Cu2   O11   S    
C4    O11   A    
C42   H61   S    
C3    H58   S    
Cu1   O1    S    
C47   C49   S    
Cu6   O9    S    
C35   H28   S    
C45   H55   S    
C7    C11   S    
C12   C23   S    
C8    C13   S    
C3    H63   S    
C25   O17   A    
C26   O19   A    
C12   H36   S    
Cu5   O24   S    
C4    O10   A    
C38   C39   S    
C11   C14   S    
Cu4   O23   S    
C21   C33   S    
C33   O8    A    
C58   C60   S    
C47   H44   S    
C13   H13   S    
C16   O14   A    
C41   C42   S    
C14   H9    S    
Cu2   O4    S    
C37   C42   S    
Cu1   O13   S    
Cu3   O17   S    
C52   H1    S    
C46   F2    S    
Cu6   O2    S    
Cu5   O8    S    
C8    H60   S    
Cu6   O7    S    
C19   C20   S    
C45   C56   S    
C44   C46   S    
C30   O2    A    
C34   C57   S    
C30   C41   S    
C31   O5    A    
C1    O4    A    
C9    C10   S    
C59   H45   S    
C48   H48   S    
C44   H41   S    
C23   C34   S    
C30   O24   A    
C59   C60   S    
Cu2   O16   S    
C46   H43   S    
C8    H10   S    
C41   C43   S    
C36   C41   S    
C15   C20   S    
C1    O1    A    
C26   C54   S    
C52   C54   S    
C15   H14   S    
C48   C53   S    
C4    C34   S    
C28   O16   A    
C50   C53   S    
C5    C59   S    
Cu4   O19   S    
C26   O18   A    
C37   H40   S    
C31   O3    A    
C19   H20   S    
C1    C60   S    
C7    H4    S    
C53   H50   S    
C15   H15   S    
Cu4   O12   S    
C33   O9    A    
C40   C52   S    
C40   H59   S    
Cu4   O21   S    
C17   C21   S    
C2    C31   S    
C43   H38   S    
C14   H8    S    
C35   C39   S    
C9    C14   S    
Cu3   O18   S    
C32   O6    A    
C38   H35   S    
C19   H21   S    
C55   H11   S    
C58   F1    S    
C5    H56   S    
C16   C20   S    
C40   C55   S    
C50   C51   S    
C18   H18   S    
C56   H57   S    
C32   C50   S    
Cu5   O3    S    
C32   O7    A    
C12   C57   S    
C34   C40   S    
C6    H64   S    
C48   C49   S    
C13   H5    S    
C55   C57   S    
C51   H53   S    
C17   H17   S    
C2    C5    S    
C9    H6    S    
Cu5   O6    S    
C42   H33   S    
C58   H23   S    
C22   H19   S    
C10   C28   S    
C6    H2    S    
C54   C55   S    
C47   H52   S    
C28   O15   A    
C18   C22   S    
C59   H34   S    
Cu3   O22   S    
C24   H22   S    
C6    C10   S    
C47   C51   S    
C53   H51   S    
C15   C17   S    
C6    C7    S    
C45   H54   S    
C46   C50   S    
C56   H12   S    
C29   O23   A    
C17   H16   S    
C21   C22   S    
C38   H37   S    
C2    C3    S    
Cu1   O15   S    
C38   C43   S    
C37   C39   S    
C2    C56   S    
C24   H25   S    
C25   C39   S    
C23   H46   S    
C7    H3    S    
C11   C13   S    
C23   C52   S    
Cu6   O5    S    
C18   H26   S    
C19   C24   S    
C36   H31   S    
C18   C20   S    
Cu1   Cu2   S    
C51   H47   S    
Cu3   O20   S    
C48   H49   S    
Cu3   Cu4   S    
C25   O12   A    
C3    C58   S    
C5    H62   S    
Cu1   O10   S    
C11   C29   S    
C8    C10   S    
Cu5   Cu6   S    
Cu2   O14   S    
C21   C24   S    
C16   O13   A    
C36   H30   S    
C9    H7    S    
C35   H29   S    
C43   H39   S    
C37   H32   S    
C12   C54   S    
C27   C49   S    
C29   O22   A    
C44   H42   S    
