data_mof_unit_pretest_1296.cif
_audit_creation_date              2012-12-10T18:48:42-0500
_audit_creation_method            fapswitch 2.2
_symmetry_space_group_name_H-M    P1
_symmetry_Int_Tables_number       1
_space_group_crystal_system       triclinic
_cell_length_a                    15.567424
_cell_length_b                    14.956641
_cell_length_c                    9.962966
_cell_angle_alpha                 89.734766
_cell_angle_beta                  88.929699
_cell_angle_gamma                 89.775358
_cell_volume                      2319.29422398

loop_
_atom_site_label
_atom_site_type_symbol
_atom_type_description
_atom_site_fract_x
_atom_site_fract_y
_atom_site_fract_z
_atom_type_partial_charge
C1    C     C_R   0.119784 0.380206 0.499500 0.967712
C2    C     C_R   0.975617 0.425795 0.929138 0.340230
C3    C     C_R   0.968714 0.428238 0.073213 0.383661
C4    C     C_R   0.024068 0.574345 0.926875 0.369918
C5    C     C_R   0.522746 0.074404 0.070472 0.328583
C6    C     C_R   0.475613 0.925797 0.929138 0.340250
C7    C     C_R   0.468712 0.928239 0.073213 0.383657
C8    C     C_R   0.524070 0.074346 0.926871 0.369978
C9    C     C_R   0.747118 0.323369 0.419428 0.345082
C10   C     C_R   0.251855 0.681163 0.601290 0.356244
C11   C     C_R   0.196103 0.749372 0.397169 0.315480
C12   C     C_R   0.877778 0.617356 0.500941 0.959323
C13   C     C_R   0.822940 0.238414 0.589243 0.370517
C14   C     C_R   0.240973 0.307503 0.606856 0.348125
C15   C     C_R   0.751826 0.683714 0.393884 0.351495
C16   C     C_R   0.794323 0.734283 0.615731 0.354672
C17   C     C_R   0.185647 0.247153 0.397958 0.376047
C18   C     C_R   0.247112 0.823372 0.419431 0.345109
C19   C     C_R   0.751857 0.181159 0.601285 0.356255
C20   C     C_R   0.696107 0.249370 0.397165 0.315519
C21   C     C_R   0.322938 0.738419 0.589246 0.370517
C22   C     C_R   0.740942 0.807468 0.606893 0.348223
C23   C     C_R   0.881440 0.379384 0.501434 1.002113
C24   C     C_R   0.251822 0.183705 0.393904 0.351480
C25   C     C_R   0.294366 0.234324 0.615701 0.354655
C26   C     C_R   0.685647 0.747158 0.397948 0.376044
C27   C     C_R   0.190854 0.683173 0.497982 -0.385075
C28   C     C_R   0.815857 0.313308 0.505077 -0.392234
C29   C     C_R   0.807283 0.679644 0.503128 -0.410270
C30   C     C_R   0.184603 0.312344 0.499250 -0.409814
C31   C     C_R   0.690855 0.183172 0.497979 -0.385086
C32   C     C_R   0.315855 0.813311 0.505076 -0.392243
C33   C     C_R   0.307297 0.179657 0.503126 -0.410222
C34   C     C_R   0.121273 0.619052 0.499016 0.958682
C35   C     C_R   0.684595 0.812336 0.499258 -0.409871
C36   C     C_3   0.976017 0.705215 0.166795 -0.121919
C37   C     C_3   0.034034 0.296534 0.847076 -0.140032
C38   C     C_3   0.938117 0.281377 0.131298 -0.249960
C39   C     C_3   0.010310 0.718473 0.846095 -0.184290
C40   C     C_3   0.476013 0.205203 0.166837 -0.121953
C41   C     C_3   0.534014 0.796519 0.847098 -0.139933
C42   C     C_3   0.438105 0.781380 0.131299 -0.249965
C43   C     C_3   0.510397 0.218511 0.846175 -0.184267
C44   C     C_3   0.659914 0.444067 0.390938 -0.201322
C45   C     C_R   0.619783 0.880205 0.499502 0.967684
C46   C     C_3   0.249533 0.659976 0.830471 -0.167008
C47   C     C_3   0.202646 0.739050 0.169581 -0.138054
C48   C     C_3   0.930804 0.137605 0.638893 -0.376764
C49   C     C_3   0.310346 0.421770 0.707486 -0.217561
C50   C     C_3   0.742185 0.642381 0.168797 -0.203469
C51   C     C_3   0.778270 0.661985 0.814195 -0.278038
C52   C     C_3   0.055817 0.183046 0.367321 -0.366441
C53   C     C_3   0.159892 0.944058 0.390959 -0.201263
C54   C     C_3   0.749547 0.159962 0.830466 -0.167021
C55   C     C_3   0.702685 0.239023 0.169590 -0.138151
C56   C     C_R   0.377782 0.117360 0.500941 0.959380
C57   C     C_3   0.430807 0.637619 0.638911 -0.376764
C58   C     C_3   0.810300 0.921712 0.707608 -0.217566
C59   C     C_3   0.242159 0.142314 0.168845 -0.203504
C60   C     C_3   0.278339 0.162194 0.814290 -0.278180
C61   C     C_3   0.555821 0.683046 0.367296 -0.366414
C62   C     C_R   0.381437 0.879387 0.501434 1.002123
C63   C     C_R   0.621273 0.119052 0.499015 0.958668
C64   C     C_R   0.022747 0.574403 0.070473 0.328639
H1    H     H_    0.975793 0.722355 0.274857 0.194158
H2    H     H_    0.947813 0.713341 0.900886 0.160657
H3    H     H_    0.998379 0.730689 0.738165 0.201537
H4    H     H_    0.044575 0.777784 0.884235 0.122485
H5    H     H_    0.475811 0.222336 0.274904 0.194179
H6    H     H_    0.412752 0.176080 0.142374 0.100684
H7    H     H_    0.483657 0.269540 0.112441 0.116751
H8    H     H_    0.593657 0.828331 0.884937 0.132433
H9    H     H_    0.545022 0.780151 0.740216 0.216475
H10   H     H_    0.525523 0.731319 0.898759 0.100917
H11   H     H_    0.413838 0.746460 0.222586 0.151660
H12   H     H_    0.912761 0.676101 0.142310 0.100668
H13   H     H_    0.509038 0.772772 0.125650 0.187602
H14   H     H_    0.406229 0.748865 0.045861 0.166955
H15   H     H_    0.498487 0.230805 0.738256 0.201473
H16   H     H_    0.544705 0.277767 0.884410 0.122516
H17   H     H_    0.447888 0.213398 0.900928 0.160632
H18   H     H_    0.671872 0.480107 0.486103 0.131381
H19   H     H_    0.604451 0.397940 0.405055 0.126730
H20   H     H_    0.640160 0.493368 0.314082 0.206807
H21   H     H_    0.211514 0.723196 0.834908 0.163983
H22   H     H_    0.316564 0.673340 0.859479 0.166294
H23   H     H_    0.983681 0.769543 0.112388 0.116782
H24   H     H_    0.222960 0.613455 0.907480 0.180239
H25   H     H_    0.165192 0.750015 0.077474 0.190636
H26   H     H_    0.231617 0.671011 0.165269 0.125201
H27   H     H_    0.253997 0.790190 0.164983 0.192590
H28   H     H_    0.916725 0.110530 0.537578 0.134687
H29   H     H_    0.906986 0.090939 0.717552 0.191068
H30   H     H_    0.001576 0.139504 0.648300 0.150395
H31   H     H_    0.370569 0.382158 0.716517 0.142834
H32   H     H_    0.307554 0.467598 0.794525 0.197738
H33   H     H_    0.312651 0.462564 0.613796 0.154682
H34   H     H_    0.093680 0.328379 0.884831 0.132467
H35   H     H_    0.779680 0.596450 0.103460 0.153041
H36   H     H_    0.764863 0.711872 0.149001 0.128292
H37   H     H_    0.674017 0.635133 0.140373 0.181390
H38   H     H_    0.817239 0.628974 0.891800 0.148839
H39   H     H_    0.748275 0.607292 0.755621 0.145661
H40   H     H_    0.727694 0.703171 0.864566 0.162319
H41   H     H_    0.081815 0.131091 0.436448 0.140627
H42   H     H_    0.024365 0.146103 0.285670 0.153883
H43   H     H_    0.006604 0.223896 0.420878 0.196547
H44   H     H_    0.171852 0.980105 0.486114 0.131414
H45   H     H_    0.045011 0.280132 0.740200 0.216460
H46   H     H_    0.104438 0.897923 0.405092 0.126721
H47   H     H_    0.140122 0.993349 0.314103 0.206769
H48   H     H_    0.711540 0.223189 0.834909 0.163946
H49   H     H_    0.816580 0.173312 0.859470 0.166300
H50   H     H_    0.722967 0.113444 0.907477 0.180237
H51   H     H_    0.665227 0.249864 0.077444 0.190682
H52   H     H_    0.731749 0.171019 0.165400 0.125070
H53   H     H_    0.753962 0.290244 0.164933 0.192729
H54   H     H_    0.416718 0.610530 0.537608 0.134681
H55   H     H_    0.407004 0.590962 0.717592 0.191042
H56   H     H_    0.025581 0.231351 0.898795 0.100880
H57   H     H_    0.501580 0.639527 0.648292 0.150394
H58   H     H_    0.870527 0.882093 0.716682 0.142798
H59   H     H_    0.807478 0.967541 0.794652 0.197720
H60   H     H_    0.812633 0.962512 0.613909 0.154679
H61   H     H_    0.279635 0.096350 0.103529 0.153117
H62   H     H_    0.264856 0.211792 0.149001 0.128235
H63   H     H_    0.173987 0.135081 0.140439 0.181400
H64   H     H_    0.317268 0.129369 0.892098 0.148696
H65   H     H_    0.248426 0.107376 0.755891 0.145803
H66   H     H_    0.227706 0.203433 0.864408 0.162418
H67   H     H_    0.913845 0.246453 0.222580 0.151665
H68   H     H_    0.581820 0.631087 0.436414 0.140603
H69   H     H_    0.524371 0.646107 0.285637 0.153883
H70   H     H_    0.506604 0.723888 0.420862 0.196531
H71   H     H_    0.009051 0.272775 0.125662 0.187617
H72   H     H_    0.906250 0.248861 0.045853 0.166974
N1    N     N_R   0.000000 0.500000 0.857200 -0.190192
N2    N     N_R   0.000000 0.500000 0.142800 -0.192637
N3    N     N_R   0.500000 0.000000 0.857200 -0.190160
N4    N     N_R   0.500000 0.000000 0.142800 -0.192629
O1    O     O_R   0.091610 0.408380 0.614620 -0.580566
O2    O     O_R   0.408390 0.091620 0.385380 -0.587864
O3    O     O_R   0.408390 0.091620 0.614620 -0.597330
O4    O     O_R   0.591610 0.908380 0.385380 -0.598997
O5    O     O_R   0.408390 0.908380 0.385380 -0.527151
O6    O     O_R   0.591610 0.091620 0.614620 -0.529118
O7    O     O_R   0.591610 0.091620 0.385380 -0.566931
O8    O     O_R   0.408390 0.908380 0.614620 -0.572278
O9    O     O_3   0.047474 0.649500 0.137676 -0.542214
O10   O     O_3   0.957689 0.348233 0.861073 -0.543311
O11   O     O_3   0.912609 0.371347 0.140381 -0.539764
O12   O     O_R   0.908390 0.591620 0.385380 -0.587800
O13   O     O_3   0.064204 0.643189 0.858248 -0.571689
O14   O     O_3   0.547473 0.149501 0.137675 -0.542230
O15   O     O_3   0.457678 0.848236 0.861074 -0.543323
O16   O     O_3   0.412604 0.871352 0.140382 -0.539761
O17   O     O_3   0.564228 0.143171 0.858235 -0.571665
O18   O     O_3   0.736014 0.401128 0.345512 -0.531028
O19   O     O_3   0.245623 0.618052 0.703584 -0.587012
O20   O     O_3   0.147028 0.746896 0.283530 -0.553704
O21   O     O_3   0.897636 0.224806 0.660592 -0.562137
O22   O     O_3   0.236398 0.367659 0.712043 -0.565972
O23   O     O_R   0.908390 0.591620 0.614620 -0.597403
O24   O     O_3   0.753561 0.613740 0.302287 -0.560260
O25   O     O_3   0.833426 0.716697 0.735775 -0.599507
O26   O     O_3   0.118435 0.240562 0.310283 -0.593411
O27   O     O_3   0.235998 0.901133 0.345529 -0.531015
O28   O     O_3   0.745626 0.118043 0.703574 -0.587019
O29   O     O_3   0.647049 0.246886 0.283509 -0.553675
O30   O     O_3   0.397632 0.724818 0.660601 -0.562121
O31   O     O_3   0.736350 0.867598 0.712113 -0.565938
O32   O     O_3   0.253538 0.113706 0.302349 -0.560255
O33   O     O_3   0.333520 0.216779 0.735716 -0.599463
O34   O     O_R   0.091610 0.408380 0.385380 -0.599013
O35   O     O_3   0.618437 0.740571 0.310269 -0.593392
O36   O     O_R   0.908390 0.408380 0.385380 -0.527137
O37   O     O_R   0.091610 0.591620 0.614620 -0.529150
O38   O     O_R   0.091610 0.591620 0.385380 -0.566930
O39   O     O_R   0.908390 0.408380 0.614620 -0.572283
O40   O     O_R   0.591610 0.908380 0.614620 -0.580555
Zn1   Zn    Zn3+2 0.000000 0.500000 0.653120 1.043013
Zn2   Zn    Zn3+2 0.000000 0.500000 0.346880 1.046067
Zn3   Zn    Zn3+2 0.500000 0.000000 0.653120 1.043080
Zn4   Zn    Zn3+2 0.500000 0.000000 0.346880 1.046056

loop_
_geom_bond_atom_site_label_1
_geom_bond_atom_site_label_2
_ccdc_geom_bond_type
C10   C27   A    
O7    Zn4   S    
O2    Zn4   S    
O4    Zn4   S    
C11   C18   A    
C2    O10   S    
C60   O33   S    
C40   H7    S    
C12   C29   S    
O23   Zn1   S    
C44   O18   S    
C39   H4    S    
C12   O12   A    
C61   O35   S    
C37   O10   S    
C44   H19   S    
C19   C31   A    
O34   Zn2   S    
C41   H9    S    
C61   H69   S    
C51   O25   S    
C64   N2    A    
C59   H62   S    
O36   Zn2   S    
C22   C35   A    
O5    Zn4   S    
C50   H35   S    
N4    Zn4   S    
C48   H30   S    
O6    Zn3   S    
C39   O13   S    
C8    N3    A    
C26   O35   S    
C44   H18   S    
C17   O26   S    
C7    N4    A    
O37   Zn1   S    
C36   O9    S    
N1    Zn1   S    
C55   H52   S    
C43   H15   S    
C5    O14   S    
C54   H49   S    
C6    N3    A    
C36   H12   S    
C45   O40   A    
C52   O26   S    
C41   H10   S    
C56   O3    A    
C10   C21   A    
C53   O27   S    
C53   H46   S    
C7    O16   S    
C52   H43   S    
C62   O5    A    
C61   H70   S    
C45   O4    A    
C13   C28   A    
C38   H72   S    
C3    O11   S    
C63   O6    A    
C37   H45   S    
C6    O15   S    
C61   H68   S    
O40   Zn3   S    
C57   H55   S    
C46   H21   S    
C56   O2    A    
C53   H47   S    
C33   C56   S    
C20   O29   S    
C4    N1    A    
C52   H42   S    
C36   H23   S    
C62   O8    A    
C17   C30   A    
C47   H25   S    
C40   O14   S    
C39   H3    S    
C14   C30   A    
N2    Zn2   S    
C8    O17   S    
C63   O7    A    
C37   H34   S    
C11   O20   S    
C15   C29   A    
C46   H24   S    
C47   O20   S    
C27   C34   S    
C21   C32   A    
C1    O34   A    
C58   H58   S    
C17   C24   A    
C40   H5    S    
C13   C19   A    
C50   O24   S    
C31   C63   S    
C15   O24   S    
C60   H64   S    
C48   H29   S    
C60   H66   S    
C36   H1    S    
C15   C26   A    
C48   O21   S    
C43   O17   S    
C16   C29   A    
C23   C28   S    
C57   H57   S    
C51   H38   S    
O3    Zn3   S    
C14   O22   S    
C42   O16   S    
C23   O39   A    
C9    C20   A    
C11   C27   A    
C16   O25   S    
C42   H11   S    
C54   H48   S    
C3    N2    A    
C38   H71   S    
C49   H31   S    
C49   O22   S    
O38   Zn2   S    
C40   H6    S    
C50   H37   S    
C41   H8    S    
C52   H41   S    
C42   H14   S    
C43   H17   S    
C39   H2    S    
C34   O38   A    
C18   C32   A    
C19   O28   S    
O12   Zn2   S    
C59   O32   S    
C35   C45   S    
C38   O11   S    
N3    Zn3   S    
C5    N4    A    
C57   O30   S    
C55   H53   S    
C16   C22   A    
C2    N1    A    
C47   H27   S    
C22   O31   S    
C54   O28   S    
C58   H60   S    
C44   H20   S    
C60   H65   S    
C5    C8    A    
C18   O27   S    
C59   H63   S    
C13   O21   S    
C6    C7    A    
C23   O36   A    
C59   H61   S    
C4    C64   A    
C50   H36   S    
C24   C33   A    
C64   O9    S    
C38   H67   S    
C58   O31   S    
C51   H40   S    
C32   C62   S    
C14   C25   A    
C12   O23   A    
C53   H44   S    
C37   H56   S    
C55   H51   S    
C9    O18   S    
O8    Zn3   S    
C58   H59   S    
C46   O19   S    
C54   H50   S    
C1    C30   S    
C43   H16   S    
C4    O13   S    
O1    Zn1   S    
C49   H32   S    
C24   O32   S    
C41   O15   S    
C47   H26   S    
C1    O1    A    
C49   H33   S    
C25   O33   S    
C26   C35   A    
C42   H13   S    
C48   H28   S    
C34   O37   A    
C2    C3    A    
C46   H22   S    
C51   H39   S    
C10   O19   S    
C55   O29   S    
C21   O30   S    
C9    C28   A    
C25   C33   A    
C57   H54   S    
O39   Zn1   S    
C20   C31   A    
