data_mof_unit_pretest_200.cif
_audit_creation_date              2012-12-11T17:12:48-0500
_audit_creation_method            fapswitch 2.2
_symmetry_space_group_name_H-M    P1
_symmetry_Int_Tables_number       1
_space_group_crystal_system       triclinic
_cell_length_a                    17.181541
_cell_length_b                    6.883054
_cell_length_c                    14.395005
_cell_angle_alpha                 88.888616
_cell_angle_beta                  109.977624
_cell_angle_gamma                 91.383403
_cell_volume                      1599.3571082

loop_
_atom_site_label
_atom_site_type_symbol
_atom_type_description
_atom_site_fract_x
_atom_site_fract_y
_atom_site_fract_z
_atom_type_partial_charge
O1    O     O_R   0.314130 0.635770 0.168990 -0.518632
O2    O     O_R   0.685870 0.364230 0.831010 -0.517566
O3    O     O_R   0.185870 0.135770 0.331010 -0.544707
O4    O     O_R   0.814130 0.864230 0.668990 -0.554700
O5    O     O_R   0.146800 0.302460 0.139760 -0.542127
O6    O     O_R   0.853200 0.697540 0.860240 -0.540462
O7    O     O_R   0.353200 0.802460 0.360240 -0.536679
O8    O     O_R   0.646800 0.197540 0.639760 -0.533570
C1    C     C_R   0.114015 0.475408 0.112736 0.709847
C2    C     C_R   0.885995 0.524596 0.887241 0.709380
C3    C     C_R   0.385950 0.976318 0.387285 0.718424
C4    C     C_R   0.613993 0.023682 0.612811 0.730907
O9    O     O_R   0.311100 0.305780 0.157130 -0.541143
O10   O     O_R   0.688900 0.694220 0.842870 -0.539477
O11   O     O_R   0.188900 0.805780 0.342870 -0.520476
O12   O     O_R   0.811100 0.194220 0.657130 -0.527588
O13   O     O_R   0.351340 0.139640 0.348510 -0.539479
O14   O     O_R   0.648660 0.860360 0.651490 -0.540921
O15   O     O_R   0.148660 0.639640 0.151490 -0.535840
O16   O     O_R   0.851340 0.360360 0.848510 -0.535207
C5    C     C_R   0.332475 0.478332 0.135239 0.733891
C6    C     C_R   0.667394 0.521674 0.864613 0.737538
C7    C     C_R   0.167099 0.971716 0.364535 0.729339
C8    C     C_R   0.832864 0.028438 0.635331 0.736974
C9    C     C_1   0.533551 0.008308 0.533154 -0.183688
C10   C     C_1   0.466346 0.991671 0.467014 -0.187132
C11   C     C_1   0.966450 0.509442 0.966984 -0.192199
C12   C     C_1   0.033565 0.490564 0.032983 -0.193050
O17   O     O_3   0.263010 0.470920 0.312770 -0.363646
O18   O     O_3   0.736990 0.529080 0.687230 -0.373923
O19   O     O_3   0.236990 0.970920 0.187230 -0.357721
O20   O     O_3   0.763010 0.029080 0.812770 -0.353844
V1    V     V_3+5 0.247590 0.194450 0.238360 1.461407
V2    V     V_3+5 0.752410 0.805550 0.761640 1.441331
V3    V     V_3+5 0.252410 0.694450 0.261640 1.503538
V4    V     V_3+5 0.747590 0.305550 0.738360 1.478660
C13   C     C_R   0.116481 0.968289 0.429807 -0.157565
C14   C     C_R   0.884094 0.033333 0.570608 -0.151078
C15   C     C_R   0.382841 0.502462 0.070212 -0.160914
C16   C     C_R   0.616819 0.497435 0.929389 -0.160709
C17   C     C_R   0.925424 0.193318 0.441244 -0.245842
C18   C     C_R   0.075351 0.808024 0.559210 -0.245842
C19   C     C_R   0.571149 0.293743 0.042534 -0.231222
C20   C     C_R   0.428274 0.705795 0.956725 -0.240018
C21   C     C_R   0.871535 0.178293 0.495971 0.444446
C22   C     C_R   0.130576 0.827962 0.506821 0.462998
C23   C     C_R   0.627787 0.334130 0.993814 0.454846
C24   C     C_R   0.371759 0.665604 0.005659 0.459043
C25   C     C_R   0.951569 0.908840 0.590366 -0.314103
C26   C     C_R   0.048994 0.092551 0.409984 -0.269247
C27   C     C_R   0.551488 0.623732 0.919555 -0.264692
C28   C     C_R   0.448053 0.375977 0.079835 -0.258751
C29   C     C_R   0.006913 0.928976 0.537792 0.088680
C30   C     C_R   0.993980 0.072950 0.463023 0.095736
C31   C     C_R   0.494975 0.583318 0.968962 0.082167
C32   C     C_R   0.504484 0.416285 0.030317 0.080654
H1    H     H_    0.037612 0.199726 0.350833 0.136328
H2    H     H_    0.962660 0.800931 0.649126 0.129940
H3    H     H_    0.457031 0.251159 0.129285 0.146278
H4    H     H_    0.542536 0.748550 0.870108 0.142207
O21   O     O_3   0.195901 0.701782 0.528064 -0.545100
C33   C     C_3   0.265361 0.788474 0.599428 -0.246085
H5    H     H_    0.253227 0.815642 0.669214 0.125724
H6    H     H_    0.284775 0.925863 0.570738 0.115703
H7    H     H_    0.317831 0.687124 0.617199 0.161010
O22   O     O_3   0.802575 0.294761 0.471916 -0.559281
C34   C     C_3   0.828212 0.490014 0.494001 -0.171632
H8    H     H_    0.855241 0.553167 0.439928 0.121536
H9    H     H_    0.872816 0.505169 0.570756 0.124637
H10   H     H_    0.773125 0.576346 0.488673 0.160966
O23   O     O_3   0.308536 0.794216 0.994372 -0.543225
C35   C     C_3   0.237584 0.726746 0.917991 -0.239809
H11   H     H_    0.216043 0.582395 0.936979 0.111774
H12   H     H_    0.248989 0.719851 0.846497 0.123479
H13   H     H_    0.186885 0.830532 0.908090 0.160526
O24   O     O_3   0.691024 0.205532 0.005143 -0.543195
C36   C     C_3   0.761806 0.272363 0.081965 -0.232290
H14   H     H_    0.750218 0.277408 0.153414 0.137515
H15   H     H_    0.783261 0.417426 0.063736 0.109779
H16   H     H_    0.812647 0.169165 0.091495 0.159868
H17   H     H_    0.913664 0.299475 0.381692 0.121357
H18   H     H_    0.086118 0.697030 0.616460 0.130387
H19   H     H_    0.579392 0.165556 0.089630 0.141178
H20   H     H_    0.419946 0.833834 0.909512 0.134383

loop_
_geom_bond_atom_site_label_1
_geom_bond_atom_site_label_2
_ccdc_geom_bond_type
C2    C11   S    
C16   C23   A    
C31   C32   A    
O1    C5    A    
C19   H19   S    
O3    C7    A    
C18   H18   S    
C14   C25   A    
C29   C30   A    
O7    C3    A    
C26   C30   A    
O20   V4    S    
C23   O24   S    
C18   C29   A    
C18   C22   A    
O4    C8    A    
O3    V1    S    
O17   V1    S    
O8    V4    S    
C14   C21   A    
C33   H6    S    
C1    O15   A    
C2    O16   A    
O5    V1    S    
O2    C6    A    
C8    C14   S    
O19   V1    S    
C36   H14   S    
O11   C7    A    
O22   C34   S    
C6    C16   S    
O12   C8    A    
O13   V1    S    
C35   H13   S    
O11   V3    S    
C36   H15   S    
O4    V2    S    
O18   V2    S    
C22   O21   S    
C34   H8    S    
O24   C36   S    
C35   H12   S    
C3    C10   S    
C9    C10   T    
C7    C13   S    
C25   H2    S    
O6    V2    S    
C34   H9    S    
O20   V2    S    
O5    C1    A    
C33   H5    S    
C28   H3    S    
C5    C15   S    
O8    C4    A    
C17   H17   S    
O9    C5    A    
O14   V2    S    
O19   V3    S    
C24   O23   S    
C11   C12   T    
O1    V3    S    
C36   H16   S    
O2    V4    S    
C3    O13   A    
C33   H7    S    
C26   H1    S    
O7    V3    S    
C35   H11   S    
C20   H20   S    
O10   V2    S    
C16   C27   A    
O17   V3    S    
O18   V4    S    
C4    C9    S    
C34   H10   S    
O10   C6    A    
O23   C35   S    
O15   V3    S    
O12   V4    S    
C13   C26   A    
C20   C31   A    
C25   C29   A    
C15   C28   A    
C27   C31   A    
O21   C33   S    
C17   C30   A    
O6    C2    A    
O16   V4    S    
C28   C32   A    
C19   C32   A    
O9    V1    S    
C4    O14   A    
C21   O22   S    
C17   C21   A    
C27   H4    S    
C13   C22   A    
C19   C23   A    
C20   C24   A    
C1    C12   S    
C15   C24   A    
