data_mof_unit_pretest_812.cif
_audit_creation_date              2013-03-05T15:59:37-0500
_audit_creation_method            fapswitch 2.2
_symmetry_space_group_name_H-M    P1
_symmetry_Int_Tables_number       1
_space_group_crystal_system       triclinic
_cell_length_a                    14.963881
_cell_length_b                    13.86394
_cell_length_c                    27.741422
_cell_angle_alpha                 89.995125
_cell_angle_beta                  89.957091
_cell_angle_gamma                 89.942912
_cell_volume                      5755.18509789

loop_
_atom_site_label
_atom_site_type_symbol
_atom_site_description
_atom_site_fract_x
_atom_site_fract_y
_atom_site_fract_z
_atom_type_partial_charge
O1    O     O_R   0.370260 0.582280 0.500010 -0.546344
O2    O     O_R   0.629740 0.417720 0.499990 -0.589804
O3    O     O_R   0.629740 0.582280 0.499990 -0.546236
O4    O     O_R   0.370260 0.417720 0.500010 -0.590047
C1    C     C_R   0.329194 0.499690 0.499505 0.871484
C2    C     C_R   0.670809 0.499653 0.500540 0.867090
O5    O     O_R   0.500020 0.582260 0.430260 -0.518528
O6    O     O_R   0.499980 0.417740 0.569740 -0.577850
O7    O     O_R   0.499980 0.582260 0.569740 -0.518153
O8    O     O_R   0.500020 0.417740 0.430260 -0.576424
C3    C     C_R   0.499904 0.500517 0.407620 0.878697
C4    C     C_R   0.499822 0.500556 0.592410 0.872886
Cu1   Cu    Cu3+1 0.500000 0.597420 0.500000 1.091646
Cu2   Cu    Cu3+1 0.500000 0.402580 0.500000 0.988808
C5    C     C_R   0.434347 0.468673 0.179760 0.597840
C6    C     C_R   0.563752 0.470612 0.820282 0.597033
O9    O     O_2   0.360512 0.451096 0.206341 -0.525400
O10   O     O_2   0.638073 0.455383 0.793708 -0.526059
N1    N     N_R   0.513160 0.490879 0.202068 -0.448697
N2    N     N_R   0.484382 0.490505 0.797966 -0.448866
C7    C     C_R   0.590433 0.502745 0.176274 0.614896
C8    C     C_R   0.406795 0.500053 0.823738 0.615498
C9    C     C_R   0.564571 0.436330 0.281199 -0.152056
C10   C     C_R   0.435086 0.434680 0.718684 -0.153591
C11   C     C_R   0.559991 0.438413 0.331148 -0.272576
C12   C     C_R   0.440205 0.436976 0.668748 -0.274529
C13   C     C_R   0.455652 0.572909 0.327664 0.235494
C14   C     C_R   0.540279 0.574861 0.672604 0.236681
C15   C     C_R   0.461900 0.572370 0.276842 0.297268
C16   C     C_R   0.533412 0.574091 0.723396 0.297217
C17   C     C_R   0.514454 0.501251 0.253695 0.191281
C18   C     C_R   0.482961 0.501122 0.746357 0.193378
C19   C     C_R   0.507969 0.476783 0.101918 -0.110122
C20   C     C_R   0.489899 0.476489 0.898110 -0.109888
C21   C     C_R   0.429611 0.464637 0.129420 0.005006
C22   C     C_R   0.568554 0.466573 0.870616 0.005447
C23   C     C_R   0.348036 0.448847 0.106244 -0.129292
C24   C     C_R   0.650498 0.453027 0.893794 -0.129219
C25   C     C_R   0.590223 0.493306 0.125541 -0.123347
C26   C     C_R   0.407250 0.490715 0.874479 -0.123532
C27   C     C_R   0.502990 0.502823 0.354710 -0.193392
C28   C     C_R   0.495743 0.503020 0.645357 -0.194474
H1    H     H_    0.287232 0.437276 0.126662 0.190349
H2    H     H_    0.711584 0.443169 0.873379 0.190375
C29   C     C_R   0.414608 0.473876 0.976639 -0.018115
C30   C     C_R   0.583300 0.476175 0.023392 -0.017970
C31   C     C_R   0.578741 0.467442 0.972442 0.087665
C32   C     C_R   0.419386 0.465290 0.027590 0.087562
C33   C     C_R   0.494342 0.472559 0.949204 0.072092
C34   C     C_R   0.503626 0.472718 0.050826 0.072132
C35   C     C_R   0.332631 0.485914 0.952273 -0.294560
C36   C     C_R   0.664953 0.490385 0.047758 -0.294903
C37   C     C_R   0.328374 0.497647 0.902167 0.478644
C38   C     C_R   0.668921 0.502279 0.097864 0.478932
O11   O     O_2   0.330072 0.519927 0.800236 -0.461521
O12   O     O_2   0.666587 0.524985 0.199749 -0.462348
C39   C     C_R   0.342694 0.450014 0.056313 -0.203676
C40   C     C_R   0.655798 0.454281 0.943722 -0.203705
H3    H     H_    0.399684 0.387722 0.648013 0.209140
H4    H     H_    0.601977 0.390255 0.351763 0.207771
H5    H     H_    0.394795 0.379880 0.736034 0.183654
H6    H     H_    0.606235 0.382841 0.263707 0.184634
H7    H     H_    0.270194 0.490303 0.971412 0.146309
H8    H     H_    0.727266 0.496324 0.028621 0.146131
H9    H     H_    0.277622 0.436144 0.041207 0.142419
H10   H     H_    0.721202 0.442190 0.958820 0.142179
C41   C     C_R   0.812231 0.500684 0.457243 -0.261684
C42   C     C_R   0.187792 0.507628 0.542626 -0.263751
C43   C     C_R   0.767244 0.498506 0.500999 -0.163990
C44   C     C_R   0.232770 0.498481 0.499086 -0.161745
C45   C     C_R   0.813426 0.494195 0.544705 0.420449
C46   C     C_R   0.186577 0.486556 0.455728 0.424656
C47   C     C_R   0.906761 0.509200 0.544691 -0.156029
C48   C     C_R   0.093236 0.501839 0.455132 -0.157060
C49   C     C_R   0.953081 0.508619 0.500071 -0.065516
C50   C     C_R   0.046929 0.508518 0.499641 -0.064607
C51   C     C_R   0.905421 0.505463 0.455948 -0.026292
C52   C     C_R   0.094584 0.512153 0.543763 -0.027935
C53   C     C_R   0.954655 0.525450 0.587932 0.333400
C54   C     C_R   0.045338 0.511474 0.411377 0.331809
C55   C     C_R   0.048220 0.521677 0.587854 0.244730
C56   C     C_R   0.951733 0.508536 0.411625 0.247129
H11   H     H_    0.773205 0.498399 0.424428 0.200260
H12   H     H_    0.226835 0.510774 0.575416 0.201624
C57   C     C_R   0.433520 0.795051 0.523541 0.530651
C58   C     C_R   0.542575 0.204320 0.463848 0.497435
C59   C     C_R   0.566374 0.794664 0.476200 0.528769
C60   C     C_R   0.457323 0.204321 0.536071 0.498042
N3    N     N_R   0.500000 0.743810 0.500000 -0.249544
N4    N     N_R   0.500000 0.256190 0.500000 -0.269279
C61   C     C_R   0.560823 0.897116 0.471336 -0.094162
C62   C     C_R   0.446006 0.102565 0.532022 -0.092749
C63   C     C_R   0.439413 0.897311 0.528601 -0.092879
C64   C     C_R   0.553906 0.102504 0.467832 -0.091621
C65   C     C_R   0.500250 0.948417 0.500050 0.022530
C66   C     C_R   0.500096 0.051156 0.499984 0.009980
C67   C     C_R   0.616919 0.949658 0.440007 -0.158096
C68   C     C_R   0.386083 0.050898 0.561307 -0.173411
C69   C     C_R   0.382569 0.949873 0.559546 -0.154988
C70   C     C_R   0.613474 0.050708 0.438341 -0.171122
H13   H     H_    0.663397 0.912919 0.416436 0.170955
H14   H     H_    0.340039 0.088680 0.584738 0.167314
H15   H     H_    0.335593 0.913107 0.582785 0.172844
H16   H     H_    0.659296 0.088387 0.414789 0.167259
N5    N     N_R   0.403540 0.645931 0.351412 0.148699
O13   O     O_R   0.417703 0.736675 0.342222 -0.314399
O14   O     O_R   0.342438 0.622247 0.382578 -0.378414
N6    N     N_R   0.589787 0.650132 0.649109 0.151646
O15   O     O_R   0.653616 0.629207 0.619044 -0.367912
O16   O     O_R   0.570965 0.740146 0.657726 -0.313670
O17   O     O_3   0.765475 0.477940 0.586796 -0.580123
C71   C     C_3   0.784410 0.384653 0.605331 0.133716
H17   H     H_    0.764078 0.384359 0.643858 0.197357
H18   H     H_    0.856917 0.366594 0.604666 0.155904
C72   C     C_3   0.731536 0.306193 0.578873 -0.419511
H19   H     H_    0.659560 0.324961 0.579223 0.247134
H20   H     H_    0.754511 0.301394 0.540859 0.233230
C73   C     C_3   0.743906 0.207795 0.602573 -0.918886
H21   H     H_    0.815782 0.187750 0.603252 0.270336
H22   H     H_    0.706983 0.152355 0.581681 0.257059
H23   H     H_    0.717445 0.208956 0.639999 0.262472
O18   O     O_3   0.234555 0.463508 0.414417 -0.582040
C74   C     C_3   0.215234 0.367773 0.399491 0.130559
H24   H     H_    0.233298 0.362210 0.360737 0.195241
H25   H     H_    0.142971 0.349308 0.402041 0.153632
C75   C     C_3   0.270373 0.293577 0.427691 -0.411934
H26   H     H_    0.342147 0.312637 0.425366 0.247017
H27   H     H_    0.249685 0.294075 0.466157 0.234790
C76   C     C_3   0.257584 0.191947 0.407811 -0.924447
H28   H     H_    0.186075 0.170871 0.409743 0.269949
H29   H     H_    0.297356 0.140117 0.429555 0.258529
H30   H     H_    0.280631 0.188224 0.369778 0.261822
O19   O     O_3   0.911224 0.543628 0.631188 -0.555689
C77   C     C_3   0.877066 0.639073 0.631464 0.168300
H31   H     H_    0.821616 0.641334 0.658078 0.234723
H32   H     H_    0.847798 0.661285 0.596202 0.131610
C78   C     C_3   0.948561 0.711577 0.647213 -0.377982
H33   H     H_    0.975793 0.690019 0.682890 0.276380
H34   H     H_    0.004059 0.712194 0.620664 0.225819
C79   C     C_3   0.910054 0.813277 0.650690 -0.867677
H35   H     H_    0.883981 0.836700 0.615061 0.250784
H36   H     H_    0.963278 0.864152 0.662062 0.265718
H37   H     H_    0.855171 0.815627 0.677655 0.286261
O20   O     O_3   0.088806 0.522203 0.367526 -0.558010
C80   C     C_3   0.123492 0.616973 0.363329 0.168487
H38   H     H_    0.179662 0.614095 0.337169 0.235694
H39   H     H_    0.151863 0.645237 0.397703 0.136597
C81   C     C_3   0.052784 0.686840 0.343885 -0.380136
H40   H     H_    0.025510 0.658601 0.309413 0.277344
H41   H     H_    0.997212 0.693454 0.370200 0.226123
C82   C     C_3   0.092303 0.786812 0.335378 -0.851014
H42   H     H_    0.118539 0.816904 0.369681 0.252311
H43   H     H_    0.039614 0.835857 0.321439 0.263753
H44   H     H_    0.147266 0.783009 0.308498 0.291441
N7    N     N_R   0.094924 0.527196 0.633054 0.130688
O21   O     O_R   0.071870 0.470982 0.668492 -0.294078
O22   O     O_R   0.150981 0.596967 0.641189 -0.390759
N8    N     N_R   0.904828 0.508930 0.366403 0.129089
O23   O     O_R   0.927566 0.448620 0.332609 -0.297074
O24   O     O_R   0.848563 0.577683 0.356432 -0.390758
O25   O     O_3   0.360048 0.747492 0.542321 -0.572707
C83   C     C_3   0.282928 0.770504 0.514386 0.043590
H45   H     H_    0.277311 0.719737 0.483608 0.197386
H46   H     H_    0.283546 0.844366 0.498474 0.120712
C84   C     C_3   0.199400 0.762786 0.545853 -0.308580
H47   H     H_    0.200370 0.693578 0.565602 0.272210
H48   H     H_    0.199108 0.821805 0.572918 0.214402
C85   C     C_3   0.114266 0.768965 0.515702 -0.932960
H49   H     H_    0.110497 0.839690 0.497005 0.260736
H50   H     H_    0.055009 0.761384 0.539465 0.261742
H51   H     H_    0.112727 0.710325 0.488460 0.257351
O26   O     O_3   0.567881 0.248694 0.421264 -0.585899
C86   C     C_3   0.506829 0.222136 0.383895 0.049067
H52   H     H_    0.467615 0.286633 0.373517 0.185267
H53   H     H_    0.456366 0.166495 0.394299 0.127362
C87   C     C_3   0.556668 0.185027 0.339203 -0.374747
H54   H     H_    0.615081 0.231455 0.331062 0.231411
H55   H     H_    0.581604 0.110896 0.345689 0.223701
C88   C     C_3   0.495196 0.181739 0.295305 -0.852119
H56   H     H_    0.438132 0.132403 0.302179 0.265818
H57   H     H_    0.533026 0.154891 0.263572 0.265138
H58   H     H_    0.468997 0.254775 0.286892 0.262728
O27   O     O_3   0.637761 0.746062 0.455687 -0.571991
C89   C     C_3   0.717643 0.768236 0.481358 0.037909
H59   H     H_    0.724774 0.719210 0.512752 0.192499
H60   H     H_    0.720077 0.842943 0.496109 0.121225
C90   C     C_3   0.798017 0.755868 0.447913 -0.302381
H61   H     H_    0.794634 0.684528 0.430175 0.269597
H62   H     H_    0.796120 0.811773 0.419253 0.215979
C91   C     C_3   0.885948 0.764337 0.475457 -0.933843
H63   H     H_    0.892425 0.837394 0.491492 0.259596
H64   H     H_    0.942811 0.752140 0.450476 0.262712
H65   H     H_    0.889203 0.709679 0.504642 0.256055
O28   O     O_3   0.432352 0.248513 0.578755 -0.587072
C92   C     C_3   0.493690 0.221523 0.615935 0.051042
H66   H     H_    0.532470 0.286028 0.626590 0.185030
H67   H     H_    0.544543 0.166442 0.605209 0.126709
C93   C     C_3   0.444253 0.183215 0.660484 -0.375853
H68   H     H_    0.385499 0.229088 0.668888 0.230352
H69   H     H_    0.419884 0.109038 0.653658 0.225226
C94   C     C_3   0.505865 0.179533 0.704319 -0.852569
H70   H     H_    0.563346 0.130807 0.697160 0.266380
H71   H     H_    0.468355 0.151738 0.735943 0.266043
H72   H     H_    0.531434 0.252613 0.713073 0.261367
N9    N     N_R   0.413546 0.642147 0.248698 0.164671
O29   O     O_R   0.330135 0.660881 0.258205 -0.301348
O30   O     O_R   0.451615 0.684343 0.212171 -0.338637
N10   N     N_R   0.579008 0.645644 0.751708 0.163659
O31   O     O_R   0.661600 0.668124 0.742245 -0.292988
O32   O     O_R   0.539259 0.685981 0.788261 -0.338452
O33   O     O_3   0.245763 0.506614 0.879908 -0.560520
C95   C     C_3   0.201944 0.592799 0.894160 0.105433
H73   H     H_    0.192716 0.638190 0.861522 0.196028
H74   H     H_    0.239796 0.637633 0.920665 0.116068
C96   C     C_3   0.109933 0.568098 0.914852 -0.351873
H75   H     H_    0.069945 0.529842 0.887046 0.249924
H76   H     H_    0.117726 0.519366 0.946361 0.212540
C97   C     C_3   0.059685 0.658524 0.930749 -0.891921
H77   H     H_    0.097455 0.696640 0.959455 0.257263
H78   H     H_    0.993210 0.637982 0.945299 0.262236
H79   H     H_    0.049778 0.707902 0.899669 0.269357
O34   O     O_3   0.751288 0.513172 0.120162 -0.560289
C98   C     C_3   0.793578 0.600004 0.105687 0.104376
H80   H     H_    0.802030 0.645860 0.138213 0.194624
H81   H     H_    0.754917 0.643900 0.079095 0.116259
C99   C     C_3   0.886004 0.576785 0.085045 -0.352038
H82   H     H_    0.926668 0.539562 0.112948 0.249608
H83   H     H_    0.879076 0.527587 0.053668 0.212573
C100  C     C_3   0.934642 0.667950 0.068901 -0.892578
H84   H     H_    0.896213 0.705043 0.040087 0.257940
H85   H     H_    0.001476 0.648479 0.054416 0.262509
H86   H     H_    0.943657 0.717839 0.099844 0.268469

loop_
_geom_bond_atom_site_label_1
_geom_bond_atom_site_label_2
_geom_bond_distance
_ccdc_geom_bond_type
C2    C43   1.443185 S    
C69   H15   1.081451 S    
C41   H11   1.082400 S    
C91   H63   1.110632 S    
C92   H67   1.117711 S    
C59   C61   1.429106 A    
C13   C15   1.412918 A    
C57   O25   1.384005 S    
C94   H70   1.110971 S    
C60   N4    1.387839 A    
N5    O13   1.301171 A    
C65   C66   1.424360 A    
C41   C51   1.396559 A    
C81   C82   1.525696 S    
C62   C66   1.396756 A    
O27   C89   1.425664 S    
O3    C2    1.299519 A    
N1    C17   1.439572 S    
C67   C70   1.402607 A    
C77   C78   1.532570 S    
C71   H18   1.113399 S    
O25   C83   1.426416 S    
C98   C99   1.530456 S    
C62   C68   1.406129 A    
C32   C39   1.412748 A    
C31   C33   1.420094 A    
N9    O29   1.301438 A    
N6    O15   1.300127 A    
O5    C3    1.295722 A    
N5    O14   1.300281 A    
C84   H47   1.104929 S    
C48   C50   1.418419 A    
O1    C1    1.300122 A    
C6    N2    1.367599 A    
C21   C23   1.397515 A    
C79   H36   1.110344 S    
C83   H45   1.109864 S    
C100  H86   1.110818 S    
C26   C37   1.410923 A    
C96   H76   1.110863 S    
C59   O27   1.384457 S    
C56   N8    1.438005 S    
C74   H25   1.113668 S    
C25   C38   1.410926 A    
N7    O22   1.300842 A    
C13   N5    1.436924 S    
C72   H19   1.107812 S    
C30   C36   1.410814 A    
C70   H16   1.081620 S    
C15   N9    1.438151 S    
C89   H59   1.109852 S    
C76   H29   1.110857 S    
C82   H44   1.110971 S    
C43   C45   1.397277 A    
O7    Cu1   1.946049 S    
C73   H21   1.110776 S    
Cu2   N4    2.029542 S    
C90   C91   1.526668 S    
C4    C28   1.470443 S    
O5    Cu1   1.946090 S    
C58   C64   1.425836 A    
C91   H65   1.109959 S    
C19   C21   1.408657 A    
C24   C40   1.387524 A    
C57   C63   1.427483 A    
C40   H10   1.077811 S    
C87   C88   1.527432 S    
C60   C62   1.425475 A    
C91   H64   1.109831 S    
N10   O31   1.301430 A    
C54   O20   1.387101 S    
C45   O17   1.388547 S    
C75   H27   1.110909 S    
C82   H42   1.111197 S    
C79   H37   1.110909 S    
C93   H68   1.109234 S    
C11   H4    1.080364 S    
C64   C70   1.406150 A    
C12   H3    1.079928 S    
C63   C69   1.410431 A    
O3    Cu1   1.952518 S    
C37   O33   1.387712 S    
C76   H30   1.110984 S    
C46   O18   1.389001 S    
C85   H50   1.109583 S    
O28   C92   1.430709 S    
C16   N10   1.438313 S    
C63   C65   1.399352 A    
C48   C54   1.416356 A    
Cu1   Cu2   2.701249 S    
N8    O24   1.301022 A    
C94   H71   1.110318 S    
O2    C2    1.292140 A    
C5    C21   1.399480 A    
C71   H17   1.111036 S    
C80   H39   1.115390 S    
C36   C38   1.401063 A    
C80   H38   1.110742 S    
C83   H46   1.115120 S    
C9    H6    1.082951 S    
C42   C52   1.396436 A    
C53   O19   1.387233 S    
C78   C79   1.525659 S    
C42   H12   1.082357 S    
C60   O28   1.384256 S    
C74   H24   1.111010 S    
C35   H7    1.075946 S    
C79   H35   1.111245 S    
C98   H80   1.111224 S    
C46   C48   1.412610 A    
C36   H8    1.075855 S    
C96   C97   1.526179 S    
C11   C27   1.396408 A    
C53   C55   1.401020 A    
C57   N3    1.385092 A    
O20   C80   1.417915 S    
C74   C75   1.532984 S    
C77   H32   1.115296 S    
C75   C76   1.525403 S    
C72   H20   1.110920 S    
C19   C34   1.420042 A    
C86   H52   1.107220 S    
C88   H56   1.110968 S    
C35   C37   1.400995 A    
C73   H23   1.111017 S    
C9    C17   1.397902 A    
C23   H1    1.083491 S    
C5    N1    1.367656 A    
C49   C50   1.404370 A    
C10   C18   1.397616 A    
C24   H2    1.083497 S    
C100  H84   1.110919 S    
C83   C84   1.527854 S    
C78   H34   1.109645 S    
C13   C27   1.417084 A    
C67   H13   1.081375 S    
C97   H78   1.110605 S    
O33   C95   1.418482 S    
C7    C25   1.413496 A    
C95   C96   1.530427 S    
C29   C33   1.414821 A    
O6    C4    1.309155 A    
C72   C73   1.525470 S    
C8    C26   1.413586 A    
C93   C94   1.527414 S    
C47   C53   1.415981 A    
C6    O10   1.350259 S    
C19   C25   1.413754 A    
C61   C67   1.410892 A    
C64   C66   1.396667 A    
C32   C34   1.420065 A    
C49   C51   1.417789 A    
C77   H31   1.110662 S    
C86   H53   1.117748 S    
C10   H5    1.082940 S    
C81   H41   1.109880 S    
C42   C44   1.388050 A    
C85   H49   1.110626 S    
N2    C8    1.369324 A    
C99   H82   1.111653 S    
C84   C85   1.526830 S    
C99   H83   1.110857 S    
C59   N3    1.385572 A    
C58   N4    1.388191 A    
N8    O23   1.301094 A    
C100  H85   1.110595 S    
C94   H72   1.110334 S    
C58   O26   1.384605 S    
O1    Cu1   1.952935 S    
C47   C49   1.418247 A    
C80   C81   1.532138 S    
O26   C86   1.430749 S    
C12   C28   1.396688 A    
C97   H79   1.110815 S    
C45   C47   1.412267 A    
C76   H28   1.110753 S    
N2    C18   1.439430 S    
C29   C32   1.420294 A    
C5    O9    1.350225 S    
C30   C31   1.420291 A    
C87   H54   1.109132 S    
C20   C33   1.420086 A    
O6    Cu2   1.946085 S    
O17   C71   1.420112 S    
N1    C7    1.369389 A    
C10   C12   1.387727 A    
C50   C52   1.417967 A    
O4    C1    1.291476 A    
C1    C44   1.443033 S    
C7    O12   1.348931 S    
C44   C46   1.397627 A    
C98   H81   1.117631 S    
C8    O11   1.348904 S    
Cu1   N3    2.029542 S    
C99   C100  1.526110 S    
C78   H33   1.111421 S    
C30   C34   1.414809 A    
C55   N7    1.438041 S    
C89   C90   1.527965 S    
C88   H58   1.110299 S    
C22   C24   1.397473 A    
C14   C16   1.412750 A    
C15   C17   1.414491 A    
N10   O32   1.301277 A    
C68   H14   1.081800 S    
C6    C22   1.399357 A    
C31   C40   1.412750 A    
C16   C18   1.414135 A    
C52   C55   1.411902 A    
C97   H77   1.110925 S    
O19   C77   1.418076 S    
N6    O16   1.301188 A    
C51   C56   1.411643 A    
C14   N6    1.436438 S    
C75   H26   1.108130 S    
C39   H9    1.077839 S    
C14   C28   1.417631 A    
C86   C87   1.534912 S    
C54   C56   1.401331 A    
C89   H60   1.114322 S    
C3    C27   1.468848 S    
C20   C22   1.408645 A    
C81   H40   1.111445 S    
C82   H43   1.110332 S    
C96   H75   1.111652 S    
O4    Cu2   1.952520 S    
O34   C98   1.418440 S    
O2    Cu2   1.952934 S    
O7    C4    1.295576 A    
C73   H22   1.110566 S    
C90   H62   1.110655 S    
C38   O34   1.387849 S    
O8    C3    1.308186 A    
C95   H74   1.117682 S    
C61   C65   1.399887 A    
C92   H66   1.106902 S    
C92   C93   1.534918 S    
C90   H61   1.105962 S    
C9    C11   1.387589 A    
C95   H73   1.111229 S    
C84   H48   1.110574 S    
C68   C69   1.402506 A    
N7    O21   1.301089 A    
C29   C35   1.410807 A    
C20   C26   1.413826 A    
C93   H69   1.107822 S    
C85   H51   1.110308 S    
C41   C43   1.387933 A    
O18   C74   1.420462 S    
N9    O30   1.301264 A    
C71   C72   1.533194 S    
C23   C39   1.387619 A    
O8    Cu2   1.946055 S    
C87   H55   1.107785 S    
C88   H57   1.110323 S    
