data_mof_unit_pretest_1896.cif
_audit_creation_date              2012-10-26T20:52:21-0400
_audit_creation_method            fapswitch 2.2
_symmetry_space_group_name_H-M    P1
_symmetry_Int_Tables_number       1
_space_group_crystal_system       triclinic
_cell_length_a                    16.022054
_cell_length_b                    14.775346
_cell_length_c                    10.87525
_cell_angle_alpha                 89.450526
_cell_angle_beta                  89.939993
_cell_angle_gamma                 89.91905
_cell_volume                      2574.39073121

loop_
_atom_site_label
_atom_site_type_symbol
_atom_type_description
_atom_site_fract_x
_atom_site_fract_y
_atom_site_fract_z
_atom_type_partial_charge
C1    C     C_R   0.340998 0.500039 0.499387 0.589852
C2    C     C_1   0.499846 0.197415 0.501178 0.265431
C3    C     C_R   0.493273 0.500356 0.264630 0.553953
C4    C     C_R   0.498590 0.499381 0.735596 0.580809
C5    C     C_2   0.438702 0.445526 0.930823 0.009752
C6    C     C_2   0.450076 0.432317 0.065144 0.003869
C7    C     C_2   0.495359 0.496291 0.868605 -0.121833
C8    C     C_2   0.475674 0.503402 0.133048 -0.153909
C9    C     C_R   0.955912 0.582324 0.485088 0.031941
C10   C     C_R   0.043926 0.582886 0.491748 0.031150
C11   C     C_R   0.912684 0.499175 0.494060 -0.047054
C12   C     C_R   0.659016 0.499903 0.499816 0.547932
C13   C     C_R   0.087456 0.500305 0.507415 -0.047108
C14   C     C_R   0.956161 0.416627 0.510091 0.026496
C15   C     C_R   0.044312 0.417185 0.516632 0.026902
C16   C     C_1   0.822723 0.499355 0.496326 0.050801
C17   C     C_1   0.177374 0.500178 0.504264 0.060449
C18   C     C_1   0.252212 0.500124 0.501586 0.101086
C19   C     C_1   0.747850 0.499658 0.498217 0.066650
C20   C     C_2   0.363077 0.406574 0.869756 0.624346
C21   C     C_2   0.432748 0.341425 0.118742 0.666542
C22   C     C_2   0.090795 0.669386 0.476604 0.623561
C23   C     C_R   0.574055 0.951000 0.516280 -0.099762
C24   C     C_2   0.908741 0.669091 0.474450 0.625322
C25   C     C_2   0.908780 0.330404 0.524619 0.623406
C26   C     C_2   0.092077 0.330838 0.528321 0.629219
C27   C     C_2   0.657824 0.091907 0.537415 0.585459
C28   C     C_2   0.340927 0.093016 0.472173 0.592840
C29   C     C_R   0.425420 0.951467 0.485868 -0.101057
C30   C     C_R   0.499814 0.902564 0.500355 -0.047848
C31   C     C_R   0.423689 0.047546 0.487447 0.033232
C32   C     C_R   0.575413 0.047029 0.518604 0.038115
C33   C     C_R   0.499535 0.096988 0.503486 -0.049286
C34   C     C_1   0.499904 0.802603 0.500072 0.164623
Cu1   Cu    Cu3+1 0.500000 0.589220 0.500000 1.062172
Cu2   Cu    Cu3+1 0.500000 0.410780 0.500000 1.155995
H1    H     H_    0.546565 0.529272 0.915623 0.088384
H2    H     H_    0.219992 0.081541 0.422459 0.374547
H3    H     H_    0.631455 0.913079 0.528359 0.178215
H4    H     H_    0.367980 0.913868 0.474388 0.181120
H5    H     H_    0.480863 0.569893 0.090117 0.108220
H6    H     H_    0.272131 0.312105 0.870932 0.368042
H7    H     H_    0.451909 0.206811 0.108789 0.351713
H8    H     H_    0.106440 0.785442 0.380110 0.362774
H9    H     H_    0.892535 0.796586 0.534941 0.363207
H10   H     H_    0.816839 0.249775 0.462279 0.365854
H11   H     H_    0.184444 0.261567 0.613342 0.372028
H12   H     H_    0.783453 0.080064 0.535670 0.363382
N1    N     N_1   0.500000 0.276710 0.500000 -0.133591
N2    N     N_1   0.500000 0.723290 0.500000 -0.179171
O1    O     O_R   0.380310 0.575320 0.500020 -0.493807
O2    O     O_R   0.322840 0.330935 0.920144 -0.636009
O3    O     O_2   0.383818 0.332943 0.204496 -0.457473
O4    O     O_R   0.469258 0.265092 0.066004 -0.645933
O5    O     O_2   0.147134 0.688159 0.547710 -0.476045
O6    O     O_R   0.070390 0.729100 0.380688 -0.642078
O7    O     O_2   0.852500 0.677113 0.399153 -0.479839
O8    O     O_R   0.928770 0.741418 0.550948 -0.641303
O9    O     O_2   0.925618 0.277917 0.608668 -0.451815
O10   O     O_R   0.844560 0.309816 0.442562 -0.659356
O11   O     O_2   0.075467 0.266963 0.461993 -0.451983
O12   O     O_R   0.619690 0.575320 0.499980 -0.492564
O13   O     O_R   0.156443 0.323126 0.614580 -0.655404
O14   O     O_2   0.661978 0.170643 0.570403 -0.498202
O15   O     O_R   0.731551 0.042910 0.519267 -0.676002
O16   O     O_2   0.331332 0.172506 0.499097 -0.487706
O17   O     O_R   0.272796 0.043822 0.428240 -0.672882
O18   O     O_R   0.380310 0.424640 0.499970 -0.445055
O19   O     O_R   0.619690 0.424640 0.500030 -0.478772
O20   O     O_R   0.500000 0.575320 0.321940 -0.498679
O21   O     O_R   0.500000 0.575320 0.678060 -0.490217
O22   O     O_R   0.500000 0.424640 0.321880 -0.471191
O23   O     O_R   0.500000 0.424640 0.678120 -0.471621
O24   O     O_2   0.333970 0.442831 0.777794 -0.494834

loop_
_geom_bond_atom_site_label_1
_geom_bond_atom_site_label_2
_ccdc_geom_bond_type
C1    O18   A    
C28   O16   D    
C12   O19   A    
Cu2   O18   S    
C9    C24   S    
C22   O5    D    
C27   O15   S    
C2    N1    T    
H12   O15   S    
C29   H4    S    
C12   O12   A    
C9    C10   A    
H8    O6    S    
H7    O4    S    
Cu1   Cu2   S    
C13   C17   S    
C21   O4    S    
C26   O13   S    
C23   C32   A    
C3    O20   A    
Cu1   N2    S    
C31   C33   A    
C3    O22   A    
C7    H1    S    
Cu1   O21   S    
C20   O2    S    
C5    C20   S    
Cu2   O19   S    
C21   O3    D    
C1    O1    A    
C9    C11   A    
C1    C18   S    
C29   C30   A    
C4    C7    S    
C23   H3    S    
C6    C8    D    
C12   C19   S    
C24   O8    S    
C25   O10   S    
C26   O11   D    
C4    O23   A    
C17   C18   T    
Cu1   O12   S    
C13   C15   A    
C14   C25   S    
Cu1   O1    S    
C5    C6    S    
C11   C14   A    
H9    O8    S    
C34   N2    T    
C28   C31   S    
C27   O14   D    
C30   C34   S    
C20   O24   D    
H2    O17   S    
C23   C30   A    
C28   O17   S    
C8    H5    S    
C2    C33   S    
C29   C31   A    
C3    C8    S    
C11   C16   S    
C5    C7    D    
C14   C15   A    
C15   C26   S    
C22   O6    S    
C32   C33   A    
C25   O9    D    
H10   O10   S    
C27   C32   S    
C6    C21   S    
Cu2   O23   S    
C10   C13   A    
C4    O21   A    
C10   C22   S    
Cu2   N1    S    
Cu2   O22   S    
H11   O13   S    
H6    O2    S    
C24   O7    D    
Cu1   O20   S    
C16   C19   T    
