data_mof_unit_pretest_1680.cif
_audit_creation_date              2012-10-26T17:14:53-0400
_audit_creation_method            fapswitch 2.2
_symmetry_space_group_name_H-M    P1
_symmetry_Int_Tables_number       1
_space_group_crystal_system       triclinic
_cell_length_a                    18.973283
_cell_length_b                    18.994422
_cell_length_c                    19.213771
_cell_angle_alpha                 109.863963
_cell_angle_beta                  110.613994
_cell_angle_gamma                 109.170794
_cell_volume                      5246.95104746

loop_
_atom_site_label
_atom_site_type_symbol
_atom_type_description
_atom_site_fract_x
_atom_site_fract_y
_atom_site_fract_z
_atom_type_partial_charge
C1    C     C_R   0.620695 0.618222 0.503668 0.539031
C2    C     C_2   0.816443 0.502378 0.829982 -0.116418
C3    C     C_2   0.730206 0.559712 0.773608 -0.028601
C4    C     C_R   0.382245 0.500363 0.381057 0.581402
C5    C     C_2   0.704618 0.520868 0.687787 0.037776
C6    C     C_2   0.267074 0.224939 0.555906 -0.145440
C7    C     C_2   0.182625 0.201149 0.520555 -0.140087
C8    C     C_2   0.330722 0.301022 0.562084 -0.005379
C9    C     C_2   0.313150 0.309904 0.491006 0.035132
C10   C     C_R   0.008071 0.618222 0.124729 0.569356
C11   C     C_R   0.126362 0.499935 0.124839 0.584133
C12   C     C_3   0.201856 0.419782 0.182901 0.009318
C13   C     C_R   0.999374 0.382656 0.883717 0.573795
C14   C     C_R   0.887432 0.501583 0.890849 0.574977
C15   C     C_R   0.997706 0.116202 0.616984 0.581033
C16   C     C_R   0.380567 0.381466 0.496868 0.569743
C17   C     C_R   0.881975 0.884856 0.500973 0.593266
C18   C     C_R   0.999187 0.880748 0.383477 0.557078
C19   C     C_R   0.117520 0.121873 0.505476 0.550422
C20   C     C_2   0.011406 0.751454 0.326534 -0.154754
C21   C     C_2   0.992816 0.810317 0.314929 -0.111025
C22   C     C_2   0.000608 0.678591 0.254856 -0.168499
C23   C     C_3   0.216986 0.447037 0.274688 0.030064
C24   C     C_2   0.014482 0.687875 0.193969 -0.104107
C25   C     C_2   0.922143 0.180409 0.677035 0.008754
C26   C     C_2   0.996057 0.176574 0.688485 0.018793
C27   C     C_2   0.921860 0.232789 0.754427 -0.001094
C28   C     C_R   0.622377 0.503658 0.619946 0.517651
C29   C     C_2   0.976915 0.319571 0.798596 -0.118296
C30   C     C_3   0.310648 0.582435 0.322463 -0.120214
C31   C     C_3   0.210858 0.528116 0.282878 -0.027710
C32   C     C_3   0.195515 0.500714 0.191237 -0.014526
C33   C     C_3   0.295047 0.554699 0.230302 -0.032292
C34   C     C_3   0.316007 0.500346 0.312986 -0.026133
C35   C     C_3   0.301426 0.473525 0.221732 0.018064
C36   C     C_3   0.156975 0.560018 0.313535 -0.263931
C37   C     C_3   0.199207 0.604492 0.411782 -0.413359
C38   C     C_2   0.762348 0.656581 0.506261 0.567448
C39   C     C_2   0.883899 0.665233 0.907173 0.613854
C40   C     C_3   0.670651 0.578094 0.804578 -0.264285
C41   C     C_3   0.694942 0.592840 0.895285 -0.443759
C42   C     C_2   0.763290 0.501714 0.659089 0.564241
C43   C     C_3   0.419202 0.365519 0.646970 -0.261293
C44   C     C_3   0.432560 0.345288 0.719653 -0.446445
C45   C     C_2   0.805225 0.836112 0.571051 0.034660
C46   C     C_3   0.230037 0.240623 0.400967 -0.294968
C47   C     C_3   0.238060 0.231519 0.322170 -0.374443
C48   C     C_3   0.841121 0.133021 0.586683 -0.250047
C49   C     C_3   0.764475 0.145206 0.582963 -0.436582
C50   C     C_3   0.079179 0.224510 0.778451 -0.272930
C51   C     C_3   0.073021 0.175197 0.826491 -0.373764
C52   C     C_3   0.870115 0.185285 0.785229 -0.229387
C53   C     C_3   0.795834 0.202665 0.782513 -0.385801
C54   C     C_3   0.337917 0.617243 0.204818 -0.254924
C55   C     C_3   0.436211 0.677216 0.268818 -0.437955
C56   C     C_2   0.811793 0.823708 0.500786 -0.114317
C57   C     C_2   0.353518 0.444103 0.188382 0.594061
C58   C     C_2   0.143492 0.328509 0.106153 0.646559
C59   C     C_2   0.174448 0.388867 0.302038 0.554433
C60   C     C_2   0.869881 0.913957 0.659469 0.629883
C61   C     C_2   0.663799 0.801029 0.567865 0.607747
C62   C     C_2   0.724309 0.770674 0.556244 -0.052035
C63   C     C_2   0.701400 0.685220 0.520151 -0.010743
C64   C     C_2   0.813212 0.574200 0.837577 0.072115
Cu1   Cu    Cu3+1 0.500860 0.438990 0.439830 1.058799
Cu2   Cu    Cu3+1 0.499140 0.561010 0.560170 1.011732
Cu3   Cu    Cu3+1 0.946020 0.438950 0.007030 0.958812
Cu4   Cu    Cu3+1 0.068040 0.560950 0.006980 0.996105
Cu5   Cu    Cu3+1 0.938110 0.000000 0.438130 0.943087
Cu6   Cu    Cu3+1 0.061890 0.000000 0.561870 0.988429
H1    H     H_    0.758096 0.438990 0.780400 0.075056
H2    H     H_    0.757045 0.769173 0.437196 0.080151
H3    H     H_    0.206959 0.559542 0.434330 0.212027
H4    H     H_    0.264244 0.663094 0.444586 0.156944
H5    H     H_    0.157066 0.625102 0.430425 0.139849
H6    H     H_    0.150661 0.607234 0.293695 0.139215
H7    H     H_    0.090394 0.503902 0.281556 0.169980
H8    H     H_    0.777228 0.566765 0.429338 0.343316
H9    H     H_    0.934450 0.792469 0.945576 0.343404
H10   H     H_    0.699607 0.537640 0.899928 0.153442
H11   H     H_    0.757682 0.654590 0.945773 0.180647
H12   H     H_    0.289818 0.187185 0.578851 0.152665
H13   H     H_    0.643405 0.597387 0.908034 0.141558
H14   H     H_    0.670620 0.636296 0.803799 0.201288
H15   H     H_    0.603016 0.521312 0.759713 0.142353
H16   H     H_    0.885163 0.542713 0.679653 0.347682
H17   H     H_    0.380213 0.340933 0.734410 0.166136
H18   H     H_    0.433326 0.283570 0.701297 0.152419
H19   H     H_    0.496552 0.398270 0.779271 0.139061
H20   H     H_    0.472401 0.368201 0.633960 0.140089
H21   H     H_    0.426666 0.431134 0.671909 0.167268
H22   H     H_    0.257656 0.293359 0.322249 0.203793
H23   H     H_    0.159964 0.240328 0.500440 0.114785
H24   H     H_    0.285824 0.210314 0.320837 0.169522
H25   H     H_    0.173608 0.181215 0.261855 0.161661
H26   H     H_    0.207976 0.174989 0.392779 0.151287
H27   H     H_    0.177537 0.256131 0.395821 0.159790
H28   H     H_    0.731502 0.107555 0.606253 0.164549
H29   H     H_    0.786437 0.215081 0.621151 0.167712
H30   H     H_    0.715638 0.119411 0.514537 0.148128
H31   H     H_    0.860229 0.157760 0.547635 0.167612
H32   H     H_    0.816984 0.062103 0.555285 0.181423
H33   H     H_    0.012340 0.157345 0.828442 0.156080
H34   H     H_    0.030189 0.753770 0.387958 0.154282
H35   H     H_    0.074279 0.115174 0.794450 0.208169
H36   H     H_    0.129929 0.216675 0.894148 0.170338
H37   H     H_    0.136741 0.233314 0.771510 0.150167
H38   H     H_    0.097825 0.291942 0.820289 0.139656
H39   H     H_    0.798881 0.255666 0.768988 0.160991
H40   H     H_    0.731169 0.143021 0.732158 0.133591
H41   H     H_    0.799599 0.221208 0.845669 0.161720
H42   H     H_    0.841358 0.114032 0.744272 0.171348
H43   H     H_    0.915136 0.203284 0.851967 0.164175
H44   H     H_    0.449393 0.720355 0.333460 0.172050
H45   H     H_    0.356326 0.648650 0.380834 0.152996
H46   H     H_    0.469338 0.639510 0.275072 0.202695
H47   H     H_    0.464105 0.718630 0.245503 0.142709
H48   H     H_    0.325103 0.578968 0.138888 0.167934
H49   H     H_    0.308512 0.658902 0.203518 0.170433
H50   H     H_    0.472510 0.465384 0.209685 0.346195
H51   H     H_    0.042551 0.246336 0.982879 0.320620
H52   H     H_    0.079177 0.272961 0.265982 0.332969
H53   H     H_    0.920690 0.965330 0.788300 0.336155
H54   H     H_    0.563224 0.713067 0.444375 0.283283
H55   H     H_    0.965174 0.802806 0.251059 0.116641
H56   H     H_    0.985940 0.618379 0.255071 0.145327
H57   H     H_    0.038601 0.750835 0.198989 0.127458
H58   H     H_    0.010620 0.346465 0.770261 0.093212
O1    O     O_R   0.589740 0.537510 0.449170 -0.446403
O2    O     O_R   0.051000 0.089020 0.640050 -0.492764
O3    O     O_R   0.858720 0.910970 0.447760 -0.519203
O4    O     O_R   0.588290 0.640550 0.550800 -0.484653
O5    O     O_R   0.963250 0.910970 0.552260 -0.458596
O6    O     O_R   0.949000 0.910980 0.359950 -0.504718
O7    O     O_R   0.053520 0.910980 0.464460 -0.505036
O8    O     O_R   0.036750 0.089030 0.447740 -0.506312
O9    O     O_R   0.141280 0.089030 0.552240 -0.512569
O10   O     O_R   0.410430 0.448470 0.358910 -0.490106
O11   O     O_R   0.408980 0.551520 0.460540 -0.487092
O12   O     O_R   0.057320 0.640510 0.094780 -0.481099
O13   O     O_R   0.411710 0.359450 0.449200 -0.528803
O14   O     O_R   0.410260 0.462490 0.550830 -0.511950
O15   O     O_R   0.591020 0.448480 0.539460 -0.468378
O16   O     O_R   0.589570 0.551530 0.641090 -0.540685
O17   O     O_R   0.954280 0.537480 0.094820 -0.513710
O18   O     O_2   0.840499 0.699523 0.561238 -0.479582
O19   O     O_R   0.729771 0.579486 0.430989 -0.666819
O20   O     O_2   0.938985 0.681489 0.976592 -0.516599
O21   O     O_R   0.884555 0.733280 0.893770 -0.653960
O22   O     O_2   0.733212 0.432648 0.594259 -0.501234
O23   O     O_R   0.045810 0.448440 0.097300 -0.475103
O24   O     O_R   0.852524 0.563297 0.705552 -0.658422
O25   O     O_2   0.316023 0.378762 0.117415 -0.497058
O26   O     O_R   0.444803 0.491580 0.238844 -0.699762
O27   O     O_2   0.155588 0.270594 0.111148 -0.466818
O28   O     O_R   0.076791 0.310127 0.029309 -0.680650
O29   O     O_2   0.203281 0.414648 0.379108 -0.544853
O30   O     O_R   0.101900 0.305749 0.239452 -0.671646
O31   O     O_2   0.916012 0.983312 0.669496 -0.550385
O32   O     O_R   0.875466 0.908125 0.731630 -0.630282
O33   O     O_2   0.690661 0.864351 0.636424 -0.435636
O34   O     O_R   0.148850 0.551460 0.097260 -0.533324
O35   O     O_R   0.577334 0.760500 0.500548 -0.672803
O36   O     O_R   0.956740 0.359390 0.919230 -0.487634
O37   O     O_R   0.059790 0.462410 0.919190 -0.513120
O38   O     O_R   0.865220 0.448430 0.916750 -0.532663
O39   O     O_R   0.968260 0.551460 0.916710 -0.455301
O40   O     O_R   0.946480 0.089020 0.535540 -0.536485

loop_
_geom_bond_atom_site_label_1
_geom_bond_atom_site_label_2
_ccdc_geom_bond_type
C53   H40   S    
C37   H4    S    
C45   C60   S    
Cu5   O6    S    
C6    H12   S    
H51   O28   S    
C17   O3    A    
C18   C21   S    
C47   H22   S    
C40   H14   S    
C60   O31   D    
C5    C42   S    
C1    O4    A    
C41   H10   S    
C52   H43   S    
C52   C53   S    
C23   C59   S    
C39   C64   S    
C12   C23   S    
C61   O33   D    
C13   C29   S    
C36   C37   S    
C9    C16   S    
C1    O1    A    
C36   H7    S    
C26   C50   S    
C30   C31   S    
Cu1   O15   S    
C59   O30   S    
C22   H56   S    
C27   C29   D    
H53   O32   S    
C52   H42   S    
C51   H33   S    
C41   H13   S    
C45   C62   S    
Cu6   O2    S    
C38   O19   S    
C34   C35   S    
C38   O18   D    
C36   H6    S    
C49   H28   S    
C46   C47   S    
Cu3   O36   S    
Cu2   O11   S    
C45   C56   D    
C8    C9    D    
C56   H2    S    
C39   O20   D    
Cu3   O17   S    
Cu6   O5    S    
C8    C43   S    
C28   O16   A    
C14   O38   A    
C44   H17   S    
C42   O24   S    
C19   O9    A    
H9    O21   S    
H54   O35   S    
C12   C58   S    
Cu4   O37   S    
C53   H41   S    
C37   H5    S    
C41   H11   S    
C9    C46   S    
C54   H49   S    
C12   C32   S    
C50   H38   S    
Cu5   Cu6   S    
C10   O12   A    
C2    C14   S    
C1    C63   S    
C2    C64   D    
Cu2   O4    S    
C30   H45   S    
C7    H23   S    
C4    C34   S    
C43   H20   S    
C30   C34   S    
Cu3   O23   S    
Cu3   Cu4   S    
C15   C26   S    
C6    C8    S    
C10   C24   S    
C25   C26   D    
C3    C64   S    
C57   O25   D    
C11   O34   A    
C43   H21   S    
C23   C31   S    
C40   H15   S    
C16   O14   A    
C43   C44   S    
C24   H57   S    
C62   C63   D    
H16   O24   S    
C49   H29   S    
C5    C28   S    
Cu1   O13   S    
C13   O37   A    
C31   C32   S    
C17   C56   S    
Cu5   O3    S    
C23   C34   S    
C48   H32   S    
H50   O26   S    
C50   C51   S    
H52   O30   S    
C18   O7    A    
C28   O15   A    
C12   C35   S    
C25   C48   S    
C58   O28   S    
H8    O19   S    
C20   H34   S    
Cu1   O10   S    
Cu3   O38   S    
C11   O23   A    
C40   C41   S    
C46   H27   S    
C20   C22   S    
C3    C40   S    
Cu5   O8    S    
C7    C19   S    
C54   H48   S    
C17   O5    A    
C50   H37   S    
C22   C24   D    
C15   O40   A    
Cu4   O12   S    
C21   H55   S    
C2    H1    S    
C27   C52   S    
C13   O36   A    
C38   C63   S    
C55   H47   S    
C53   H39   S    
C33   C54   S    
C37   H3    S    
C54   C55   S    
C48   C49   S    
Cu2   O16   S    
C30   C33   S    
C61   O35   S    
C60   O32   S    
C3    C5    D    
C11   C32   S    
Cu1   O1    S    
C6    C7    D    
Cu2   O14   S    
C55   H44   S    
Cu4   O34   S    
C25   C27   S    
C57   O26   S    
C39   O21   S    
C35   C57   S    
C32   C33   S    
C16   O13   A    
C19   O8    A    
Cu5   O40   S    
C49   H30   S    
C59   O29   D    
Cu6   O7    S    
C15   O2    A    
C51   H36   S    
C48   H31   S    
C33   C35   S    
C47   H24   S    
C18   O6    A    
C61   C62   S    
C42   O22   D    
C51   H35   S    
C58   O27   D    
C10   O17   A    
C4    O10   A    
Cu4   O39   S    
C46   H26   S    
C20   C21   D    
Cu6   O9    S    
Cu1   Cu2   S    
C55   H46   S    
C29   H58   S    
C47   H25   S    
C31   C36   S    
C14   O39   A    
C44   H18   S    
C44   H19   S    
C4    O11   A    
