data_mof_unit_pretest_469.cif
_audit_creation_date              2012-12-10T20:51:26-0500
_audit_creation_method            fapswitch 2.2
_symmetry_space_group_name_H-M    P1
_symmetry_Int_Tables_number       1
_space_group_crystal_system       triclinic
_cell_length_a                    17.182977
_cell_length_b                    8.941678
_cell_length_c                    8.105907
_cell_angle_alpha                 89.999334
_cell_angle_beta                  89.604532
_cell_angle_gamma                 89.999234
_cell_volume                      1245.39955641

loop_
_atom_site_label
_atom_site_type_symbol
_atom_type_description
_atom_site_fract_x
_atom_site_fract_y
_atom_site_fract_z
_atom_type_partial_charge
C1    C     C_R   0.500000 0.217959 0.500001 0.940556
C2    C     C_R   0.852885 0.575106 0.354282 0.450058
C3    C     C_R   0.763575 0.602390 0.642476 -0.348428
C4    C     C_R   0.236426 0.602435 0.357546 -0.348434
C5    C     C_R   0.224905 0.529862 0.644688 -0.338760
C6    C     C_R   0.775094 0.529901 0.355310 -0.338777
C7    C     C_R   0.730903 0.540500 0.500000 -0.132395
C8    C     C_R   0.269097 0.540505 0.500004 -0.132392
C9    C     C_R   0.883744 0.644971 0.494984 -0.067376
C10   C     C_R   0.116250 0.644957 0.505044 -0.067383
C11   C     C_1   0.965286 0.672936 0.498457 0.083818
C12   C     C_R   0.500000 0.782040 0.499999 0.937327
C13   C     C_1   0.034708 0.672931 0.501585 0.083774
C14   C     C_3   0.821399 0.779660 0.897545 0.117213
C15   C     C_3   0.861550 0.884905 0.018455 -0.294933
C16   C     C_3   0.804340 0.937161 0.151955 -0.974544
C17   C     C_3   0.178578 0.779670 0.102467 0.117182
C18   C     C_3   0.138408 0.884827 0.981481 -0.294850
C19   C     C_3   0.195617 0.937069 0.847970 -0.974570
C20   C     C_3   0.088126 0.409766 0.826505 0.103216
C21   C     C_3   0.028514 0.340474 0.708865 -0.396961
C22   C     C_3   0.998497 0.189075 0.767821 -0.971285
C23   C     C_1   0.500000 0.065160 0.500001 -0.200562
C24   C     C_3   0.911869 0.409847 0.173460 0.103262
C25   C     C_3   0.971420 0.340455 0.291179 -0.396987
C26   C     C_3   0.001449 0.189075 0.232183 -0.971342
C27   C     C_1   0.500000 0.934824 0.499999 -0.198469
C28   C     C_R   0.352049 0.504359 0.500360 0.910589
C29   C     C_R   0.647952 0.504356 0.499640 0.910594
C30   C     C_R   0.839701 0.661520 0.640603 0.439472
C31   C     C_R   0.160293 0.661543 0.359428 0.439530
C32   C     C_R   0.147113 0.575060 0.645727 0.450083
H1    H     H_    0.728141 0.607409 0.752887 0.158534
H2    H     H_    0.834676 0.005745 0.245445 0.262966
H3    H     H_    0.777657 0.839886 0.215873 0.279105
H4    H     H_    0.201523 0.682462 0.031475 0.165233
H5    H     H_    0.227143 0.843072 0.160506 0.127184
H6    H     H_    0.088521 0.826920 0.922947 0.276924
H7    H     H_    0.115712 0.983651 0.049235 0.210126
H8    H     H_    0.242372 0.005930 0.903702 0.262180
H9    H     H_    0.165257 0.005452 0.754332 0.262948
H10   H     H_    0.222389 0.839789 0.784231 0.279087
H11   H     H_    0.064481 0.406989 0.953773 0.187141
H12   H     H_    0.271866 0.607499 0.247148 0.158518
H13   H     H_    0.142382 0.341813 0.828286 0.120371
H14   H     H_    0.978024 0.416942 0.696232 0.241876
H15   H     H_    0.056765 0.325358 0.586534 0.214505
H16   H     H_    0.047259 0.114294 0.800231 0.274996
H17   H     H_    0.964117 0.135640 0.668403 0.279614
H18   H     H_    0.960043 0.203256 0.876767 0.258073
H19   H     H_    0.935568 0.407108 0.046234 0.187198
H20   H     H_    0.857601 0.341937 0.171539 0.120345
H21   H     H_    0.021911 0.416892 0.303963 0.241838
H22   H     H_    0.943113 0.325284 0.413448 0.214501
H23   H     H_    0.250572 0.486300 0.756514 0.167698
H24   H     H_    0.952705 0.114400 0.199414 0.274948
H25   H     H_    0.035690 0.135482 0.331703 0.279690
H26   H     H_    0.040035 0.203315 0.123467 0.258056
H27   H     H_    0.749426 0.486368 0.243473 0.167698
H28   H     H_    0.798471 0.682474 0.968592 0.165266
H29   H     H_    0.772823 0.843005 0.839476 0.127156
H30   H     H_    0.911458 0.827075 0.077004 0.276900
H31   H     H_    0.884212 0.983715 0.950627 0.210117
H32   H     H_    0.757519 0.005829 0.096176 0.262188
N1    N     N_1   0.500000 0.500000 0.073640 -0.040060
N2    N     N_1   0.500000 0.500000 0.926360 -0.040061
O1    O     O_R   0.500000 0.285350 0.636850 -0.612369
O2    O     O_3   0.124765 0.728872 0.223018 -0.629778
O3    O     O_3   0.101844 0.561972 0.787401 -0.640238
O4    O     O_3   0.898158 0.562045 0.212611 -0.640201
O5    O     O_R   0.500000 0.714650 0.363150 -0.615274
O6    O     O_R   0.500000 0.714650 0.636850 -0.615274
O7    O     O_R   0.500000 0.285350 0.363150 -0.612367
O8    O     O_R   0.389120 0.500000 0.636930 -0.618955
O9    O     O_R   0.610880 0.500000 0.363070 -0.618952
O10   O     O_R   0.610880 0.500000 0.636930 -0.621144
O11   O     O_R   0.389120 0.500000 0.363070 -0.621139
O12   O     O_3   0.875221 0.728834 0.777025 -0.629798
Zn1   Zn    Zn3+2 0.500000 0.500000 0.682780 0.972201
Zn2   Zn    Zn3+2 0.500000 0.500000 0.317220 0.972204

loop_
_geom_bond_atom_site_label_1
_geom_bond_atom_site_label_2
_ccdc_geom_bond_type
C24   H20   S    
C22   H16   S    
C7    C29   S    
O10   Zn1   S    
C4    C8    A    
C28   O8    A    
C24   O4    S    
C29   O10   A    
N2    Zn1   S    
C25   H21   S    
O6    Zn1   S    
C3    C7    A    
C16   H3    S    
C3    H1    S    
C15   C16   S    
C18   C19   S    
C16   H2    S    
C10   C31   A    
C15   H30   S    
C17   H4    S    
C23   C27   T    
O9    Zn2   S    
C20   H13   S    
C19   H10   S    
C22   H18   S    
C5    C32   A    
C24   H19   S    
C12   O6    A    
N1    Zn2   S    
C21   C22   S    
C2    C6    A    
O5    Zn2   S    
C31   O2    S    
C12   C27   S    
O1    Zn1   S    
C25   H22   S    
C4    H12   S    
C25   C26   S    
C14   H29   S    
C3    C30   A    
C18   H7    S    
C26   H26   S    
C17   C18   S    
C17   H5    S    
C24   C25   S    
C28   O11   A    
C9    C11   S    
C32   O3    S    
C9    C30   A    
C22   H17   S    
C12   O5    A    
C1    C23   S    
O8    Zn1   S    
C8    C28   S    
C20   O3    S    
C20   H11   S    
C21   H14   S    
O11   Zn2   S    
C17   O2    S    
C6    H27   S    
C5    H23   S    
C10   C13   S    
C26   H24   S    
C5    C8    A    
C6    C7    A    
C29   O9    A    
C14   H28   S    
C1    O7    A    
C18   H6    S    
C11   C13   T    
C1    O1    A    
O7    Zn2   S    
C14   O12   S    
C26   H25   S    
C4    C31   A    
C19   H8    S    
C30   O12   S    
C10   C32   A    
C20   C21   S    
N1    N2    T    
C15   H31   S    
C14   C15   S    
C16   H32   S    
C2    O4    S    
C2    C9    A    
C19   H9    S    
C21   H15   S    
