data_mof_unit_pretest_1147.cif
_audit_creation_date              2012-12-11T14:06:52-0500
_audit_creation_method            fapswitch 2.2
_symmetry_space_group_name_H-M    P1
_symmetry_Int_Tables_number       1
_space_group_crystal_system       triclinic
_cell_length_a                    6.925769
_cell_length_b                    17.288504
_cell_length_c                    24.103662
_cell_angle_alpha                 104.515809
_cell_angle_beta                  90.464424
_cell_angle_gamma                 89.947682
_cell_volume                      2793.85891884

loop_
_atom_site_label
_atom_site_type_symbol
_atom_type_description
_atom_site_fract_x
_atom_site_fract_y
_atom_site_fract_z
_atom_type_partial_charge
O1    O     O_R   0.494290 0.391990 0.999150 -0.535538
O2    O     O_R   0.827170 0.534410 0.082350 -0.541086
O3    O     O_R   0.994360 0.608010 0.000850 -0.535456
C1    C     C_R   0.658798 0.549876 0.106108 0.708244
O4    O     O_R   0.824210 0.388010 0.004470 -0.546009
O5    O     O_R   0.991370 0.460560 0.922410 -0.540529
C2    C     C_R   0.654561 0.354869 0.001472 0.774043
O6    O     O_R   0.497270 0.539440 0.077590 -0.541815
O7    O     O_3   0.659770 0.523970 0.973170 -0.371186
V1    V     V_3+5 0.935840 0.495550 0.004980 1.413400
O8    O     O_R   0.320910 0.465590 0.917650 -0.543505
C3    C     C_R   0.151334 0.450081 0.893903 0.707880
O9    O     O_R   0.323870 0.611990 0.995530 -0.545508
C4    C     C_R   0.154372 0.645117 0.998530 0.776007
V2    V     V_3+5 0.435470 0.504450 0.995020 1.412325
O10   O     O_3   0.161670 0.476030 0.026830 -0.371632
C5    C     C_2   0.142746 0.730262 0.998110 -0.340188
H1    H     H_    0.277129 0.761082 0.994731 0.150854
C6    C     C_2   0.972806 0.769787 0.002043 -0.340509
H2    H     H_    0.838425 0.738968 0.005426 0.150533
C7    C     C_R   0.182925 0.255689 0.623334 0.579054
N1    N     N_R   0.099346 0.327897 0.648482 -0.559280
C8    C     C_R   0.000319 0.370045 0.616097 0.575376
C9    C     C_R   0.981414 0.339746 0.556328 -0.023202
C10   C     C_R   0.066336 0.265714 0.530039 -0.016639
C11   C     C_R   0.168455 0.223264 0.563667 -0.025819
C12   C     C_R   0.879942 0.381649 0.522310 -0.150140
C13   C     C_R   0.862873 0.350408 0.463076 -0.138067
C14   C     C_R   0.946890 0.276492 0.436358 -0.025199
C15   C     C_R   0.049015 0.234040 0.469985 -0.016981
C16   C     C_R   0.133944 0.160009 0.443694 -0.023951
C17   C     C_R   0.235343 0.118090 0.477715 -0.148074
C18   C     C_R   0.252405 0.149331 0.536951 -0.137844
C19   C     C_R   0.932478 0.244086 0.376691 0.578375
N2    N     N_R   0.016126 0.171896 0.351538 -0.559604
C20   C     C_R   0.115116 0.129733 0.383920 0.577475
O11   O     O_2   0.277812 0.214811 0.655983 -0.513828
O12   O     O_2   0.921458 0.441383 0.641531 -0.517712
H3    H     H_    0.813268 0.438743 0.541319 0.161157
H4    H     H_    0.783711 0.384448 0.438316 0.177839
O13   O     O_2   0.837579 0.284964 0.344044 -0.514162
O14   O     O_2   0.194022 0.058407 0.358476 -0.515875
H5    H     H_    0.301966 0.060983 0.458708 0.162529
H6    H     H_    0.331514 0.115277 0.561712 0.178902
C21   C     C_R   0.822425 0.120572 0.263116 -0.076296
H7    H     H_    0.692110 0.127921 0.288416 0.129911
C22   C     C_R   0.809540 0.090968 0.203497 -0.196134
H8    H     H_    0.668467 0.076310 0.184042 0.130809
C23   C     C_R   0.976841 0.080568 0.169571 -0.058784
C24   C     C_R   0.157090 0.100431 0.196950 -0.195950
H9    H     H_    0.288977 0.093512 0.172384 0.130706
C25   C     C_R   0.169576 0.130093 0.256475 -0.082252
H10   H     H_    0.309552 0.145569 0.276501 0.125832
C26   C     C_R   0.002524 0.140504 0.290083 0.374016
C27   C     C_R   0.293172 0.379163 0.736899 -0.076812
H11   H     H_    0.423496 0.371670 0.711599 0.129894
C28   C     C_R   0.306090 0.408863 0.796512 -0.195134
H12   H     H_    0.447193 0.423431 0.815966 0.130909
C29   C     C_R   0.138775 0.419462 0.830435 -0.058739
C30   C     C_R   0.958488 0.399688 0.803061 -0.195300
H13   H     H_    0.826585 0.406753 0.827624 0.130815
C31   C     C_R   0.945969 0.369928 0.743546 -0.081544
H14   H     H_    0.805951 0.354533 0.723529 0.125982
C32   C     C_R   0.113023 0.359329 0.709937 0.373661
C33   C     C_R   0.437512 0.868521 0.611526 0.578612
N3    N     N_R   0.503234 0.824671 0.648120 -0.559527
C34   C     C_R   0.585402 0.750852 0.627063 0.576607
C35   C     C_R   0.606023 0.719016 0.567520 -0.026264
C36   C     C_R   0.540353 0.763637 0.529609 -0.013612
C37   C     C_R   0.454452 0.838863 0.551619 -0.025621
C38   C     C_R   0.691018 0.643832 0.545051 -0.136946
C39   C     C_R   0.711345 0.613628 0.485864 -0.145706
C40   C     C_R   0.647305 0.657832 0.447585 -0.024134
C41   C     C_R   0.561179 0.733057 0.469564 -0.015530
C42   C     C_R   0.496033 0.777803 0.431638 -0.019381
C43   C     C_R   0.409678 0.852688 0.454086 -0.113801
C44   C     C_R   0.389256 0.882844 0.513294 -0.146430
C45   C     C_R   0.667321 0.628803 0.387766 0.633487
N4    N     N_R   0.605210 0.673431 0.351355 -0.542989
C46   C     C_R   0.519511 0.746463 0.372142 0.636839
O15   O     O_2   0.358443 0.941111 0.632932 -0.514914
O16   O     O_2   0.646171 0.708011 0.663570 -0.513592
H15   H     H_    0.742636 0.608084 0.573131 0.178402
H16   H     H_    0.777856 0.555589 0.470247 0.160428
O17   O     O_2   0.748591 0.556697 0.366198 -0.513363
O18   O     O_2   0.457780 0.788766 0.335406 -0.510795
H17   H     H_    0.358003 0.888405 0.425991 0.180545
H18   H     H_    0.322631 0.940863 0.528905 0.162419
C47   C     C_R   0.798631 0.650967 0.261145 0.008275
C48   C     C_R   0.808921 0.619026 0.201310 -0.279500
H19   H     H_    0.940884 0.625885 0.179121 0.120787
C49   C     C_R   0.649358 0.580500 0.169615 -0.038041
C50   C     C_R   0.478624 0.572989 0.198946 -0.197579
H20   H     H_    0.353207 0.543475 0.175957 0.135342
C51   C     C_R   0.467850 0.602660 0.258391 -0.133819
H21   H     H_    0.335481 0.595216 0.280076 0.128202
C52   C     C_R   0.625375 0.642151 0.290101 0.383896
C53   C     C_R   0.309920 0.873113 0.736420 -0.075403
H22   H     H_    0.178434 0.861155 0.711116 0.125999
C54   C     C_R   0.298284 0.903630 0.796059 -0.194848
H23   H     H_    0.157171 0.914739 0.815419 0.128070
C55   C     C_R   0.466921 0.918929 0.830188 -0.058833
C56   C     C_R   0.647106 0.903280 0.802866 -0.193504
H24   H     H_    0.780218 0.914270 0.827448 0.130682
C57   C     C_R   0.658385 0.872912 0.743392 -0.082868
H25   H     H_    0.798690 0.861510 0.723522 0.122184
C58   C     C_R   0.490163 0.857215 0.709565 0.373855
C59   C     C_2   0.642889 0.269691 0.001884 -0.339648
H26   H     H_    0.777458 0.238764 0.005239 0.150481
C60   C     C_2   0.472619 0.230267 0.997976 -0.340116
H27   H     H_    0.338048 0.261194 0.994624 0.150381
O19   O     O_R   0.618210 0.960470 0.922400 -0.540693
O20   O     O_R   0.291310 0.111960 0.995450 -0.546004
O21   O     O_R   0.124210 0.039530 0.077580 -0.540648
C61   C     C_R   0.460954 0.145100 0.998421 0.775067
O22   O     O_R   0.288310 0.965490 0.917650 -0.542789
O23   O     O_R   0.121180 0.892010 0.999220 -0.535121
C62   C     C_R   0.456748 0.949904 0.893810 0.706403
O24   O     O_R   0.621230 0.107990 0.000760 -0.535101
O25   O     O_3   0.455770 0.976060 0.026840 -0.371261
V3    V     V_3+5 0.179680 0.004440 0.995020 1.413040
O26   O     O_R   0.791670 0.888040 0.004570 -0.545873
C63   C     C_R   0.961173 0.854918 0.001585 0.776250
O27   O     O_R   0.794680 0.034510 0.082370 -0.543768
C64   C     C_R   0.964272 0.050006 0.106102 0.706854
V4    V     V_3+5 0.680070 0.995560 0.005010 1.413121
O28   O     O_3   0.953840 0.023940 0.973160 -0.371528
C65   C     C_2   0.970395 0.694154 0.290878 0.416182
H28   H     H_    0.097255 0.700586 0.266259 0.059737
O29   O     O_2   0.973574 0.723458 0.342506 -0.512842

loop_
_geom_bond_atom_site_label_1
_geom_bond_atom_site_label_2
_ccdc_geom_bond_type
C27   H11   S    
V4    O28   S    
C40   C41   A    
C20   O14   S    
C51   H21   S    
C9    C12   A    
N3    C58   S    
C1    O6    A    
C65   H28   S    
C28   H12   S    
C22   C23   A    
C21   H7    S    
O25   V3    S    
C57   C58   A    
C6    C63   S    
C14   C15   A    
C13   C14   A    
V3    O28   S    
C16   C20   A    
O5    C3    A    
C15   C16   A    
O25   V4    S    
C28   C29   A    
C13   H4    S    
C33   C37   A    
C59   H26   S    
C30   C31   A    
C19   N2    A    
O23   V3    S    
C60   H27   S    
C54   H23   S    
C31   C32   A    
O21   V3    S    
O8    V2    S    
C16   C17   A    
C44   H18   S    
C12   H3    S    
C35   C36   A    
C24   C25   A    
C40   C45   A    
O1    V2    S    
C42   C46   A    
O19   V4    S    
C55   C62   S    
N3    C34   A    
C29   C30   A    
C50   C51   A    
O9    C4    A    
N2    C26   S    
C3    C29   S    
C4    C5    S    
C55   C56   A    
C19   O13   S    
C7    C11   A    
C25   C26   A    
C24   H9    S    
C38   H15   S    
C21   C22   A    
C37   C44   A    
C48   C49   A    
C41   C42   A    
C34   C35   A    
C43   C44   A    
O22   V3    S    
O4    C2    A    
O21   C64   A    
C45   N4    A    
C10   C11   A    
C14   C19   A    
C53   C58   A    
C61   O24   A    
C47   C52   A    
C30   H13   S    
N2    C20   A    
O26   V4    S    
O2    C1    A    
C42   C43   A    
C31   H14   S    
C11   C18   A    
C33   O15   S    
C22   H8    S    
C8    C9    A    
C27   C32   A    
C54   C55   A    
C5    H1    S    
O20   V3    S    
C36   C41   A    
C56   C57   A    
C50   H20   S    
C9    C10   A    
C43   H17   S    
C39   H16   S    
O3    C4    A    
C45   O17   S    
C21   C26   A    
C53   H22   S    
O6    V2    S    
C53   C54   A    
O9    V2    S    
O2    V1    S    
C56   H24   S    
C25   H10   S    
O27   V4    S    
O7    V1    S    
C10   C15   A    
O1    C2    A    
C18   H6    S    
N4    C52   S    
N1    C8    A    
C39   C40   A    
C65   O29   D    
O5    V1    S    
O8    C3    A    
C51   C52   A    
C8    O12   S    
C23   C64   S    
C57   H25   S    
C46   O18   S    
C17   C18   A    
C6    H2    S    
C27   C28   A    
O7    V2    S    
O4    V1    S    
O3    V1    S    
V1    O10   S    
O19   C62   A    
C48   H19   S    
C59   C60   D    
C35   C38   A    
C49   C50   A    
C5    C6    D    
C17   H5    S    
O22   C62   A    
C33   N3    A    
O23   C63   A    
C36   C37   A    
N1    C32   S    
N4    C46   A    
O24   V4    S    
C38   C39   A    
C7    O11   S    
C34   O16   S    
C23   C24   A    
C12   C13   A    
O26   C63   A    
C2    C59   S    
C1    C49   S    
C47   C48   A    
C7    N1    A    
C60   C61   S    
V2    O10   S    
O27   C64   A    
O20   C61   A    
C47   C65   S    
