data_mof_unit_pretest_1586.cif
_audit_creation_date              2013-03-05T16:35:42-0500
_audit_creation_method            fapswitch 2.2
_symmetry_space_group_name_H-M    P1
_symmetry_Int_Tables_number       1
_space_group_crystal_system       triclinic
_cell_length_a                    41.259088
_cell_length_b                    35.550426
_cell_length_c                    21.409336
_cell_angle_alpha                 90.041702
_cell_angle_beta                  59.43134
_cell_angle_gamma                 90.067133
_cell_volume                      27038.3843653

loop_
_atom_site_label
_atom_site_type_symbol
_atom_site_description
_atom_site_fract_x
_atom_site_fract_y
_atom_site_fract_z
_atom_type_partial_charge
O1    O     O_R   0.944560 0.468710 0.055440 -0.598686
O2    O     O_R   0.055440 0.468710 0.944560 -0.598661
O3    O     O_R   0.444560 0.968710 0.055440 -0.598398
O4    O     O_R   0.555440 0.968710 0.944560 -0.598301
O5    O     O_R   0.944560 0.531300 0.055450 -0.562488
O6    O     O_R   0.055440 0.531300 0.944550 -0.562625
O7    O     O_R   0.444560 0.031300 0.055450 -0.562572
O8    O     O_R   0.555440 0.031300 0.944550 -0.562523
C1    C     C_R   0.926505 0.500110 0.074554 0.980564
C2    C     C_R   0.073493 0.500145 0.925471 0.980172
C3    C     C_R   0.426498 0.000097 0.074682 0.979682
C4    C     C_R   0.573503 0.000129 0.925317 0.979280
O9    O     O_R   0.000010 0.468710 0.093020 -0.622855
O10   O     O_R   0.999990 0.468710 0.906980 -0.623031
O11   O     O_R   0.500010 0.968710 0.093020 -0.623049
O12   O     O_R   0.499990 0.968710 0.906980 -0.623067
O13   O     O_R   0.000010 0.531300 0.093030 -0.578211
O14   O     O_R   0.999990 0.531300 0.906970 -0.577991
O15   O     O_R   0.500010 0.031300 0.093030 -0.577869
O16   O     O_R   0.499990 0.031300 0.906970 -0.577723
C5    C     C_R   0.999724 0.499913 0.121783 0.990115
C6    C     C_R   0.000269 0.499896 0.878227 0.989573
C7    C     C_R   0.499716 0.999917 0.121783 0.989403
C8    C     C_R   0.500267 0.999900 0.878235 0.989012
Zn1   Zn    Zn3+2 1.000000 0.458210 0.000000 1.096015
Zn2   Zn    Zn3+2 0.500000 0.958210 0.000000 1.097303
Zn3   Zn    Zn3+2 0.000000 0.541790 0.000000 1.242697
Zn4   Zn    Zn3+2 0.500000 0.041790 0.000000 1.243254
C9    C     C_3   0.969951 0.520037 0.258822 0.197374
C10   C     C_3   0.029923 0.520236 0.741381 0.196352
C11   C     C_3   0.469828 0.019888 0.258901 0.196359
C12   C     C_3   0.530012 0.020111 0.741325 0.195780
C13   C     C_3   0.001933 0.535029 0.268371 0.173699
C14   C     C_3   0.997863 0.534987 0.731935 0.174012
C15   C     C_3   0.501706 0.035138 0.268505 0.174703
C16   C     C_3   0.498043 0.035076 0.731817 0.173998
C17   C     C_3   0.998566 0.500015 0.312995 -0.215577
C18   C     C_3   0.001444 0.500007 0.687004 -0.215920
C19   C     C_3   0.498605 0.000113 0.312928 -0.214914
C20   C     C_3   0.501403 0.000079 0.687069 -0.215534
C21   C     C_3   0.966080 0.484995 0.304080 0.071281
C22   C     C_3   0.034012 0.485231 0.695824 0.069412
C23   C     C_3   0.466223 0.984839 0.303940 0.070415
C24   C     C_3   0.533879 0.985092 0.695965 0.069030
C25   C     C_3   0.995265 0.464211 0.234724 0.128487
C26   C     C_3   0.004939 0.464220 0.765006 0.130904
C27   C     C_3   0.495553 0.964247 0.234464 0.127977
C28   C     C_3   0.504677 0.964249 0.765252 0.130585
C29   C     C_3   0.027962 0.478833 0.244078 -0.263850
C30   C     C_3   0.972163 0.478593 0.755741 -0.264711
C31   C     C_3   0.528161 0.979135 0.243848 -0.263892
C32   C     C_3   0.471978 0.978847 0.755954 -0.265071
C33   C     C_3   0.030694 0.514225 0.199884 0.191844
C34   C     C_3   0.969221 0.513958 0.800237 0.192414
C35   C     C_3   0.530610 0.014529 0.199868 0.192331
C36   C     C_3   0.469273 0.014221 0.800259 0.192994
C37   C     C_3   0.998793 0.499479 0.189668 -0.250919
C38   C     C_3   0.001198 0.499450 0.810350 -0.251011
C39   C     C_3   0.498802 0.999512 0.189637 -0.250937
C40   C     C_3   0.501171 0.999483 0.810394 -0.250852
H1    H     H_    0.051964 0.462041 0.238546 0.204662
H2    H     H_    0.948267 0.461619 0.761111 0.204085
H3    H     H_    0.552293 0.962533 0.238180 0.204556
H4    H     H_    0.447972 0.962029 0.761433 0.203891
C41   C     C_R   0.672856 0.526607 0.291372 0.003226
C42   C     C_R   0.327406 0.525965 0.711656 0.003382
C43   C     C_R   0.172845 0.022700 0.283798 0.001082
C44   C     C_R   0.827238 0.022938 0.716058 0.001115
C45   C     C_R   0.633385 0.527274 0.333659 0.283698
C46   C     C_R   0.366853 0.526605 0.668882 0.284152
C47   C     C_R   0.133482 0.024566 0.327939 0.296420
C48   C     C_R   0.866608 0.024734 0.671913 0.296500
C49   C     C_R   0.614239 0.499292 0.386584 -0.226021
C50   C     C_R   0.385696 0.499662 0.613541 -0.229087
C51   C     C_R   0.114378 0.999066 0.386006 -0.229095
C52   C     C_R   0.885626 0.999136 0.613995 -0.228925
C53   C     C_R   0.634157 0.470206 0.397618 -0.002827
C54   C     C_R   0.365406 0.471825 0.600219 -0.005805
C55   C     C_R   0.134382 0.971610 0.400862 -0.004726
C56   C     C_R   0.865534 0.971650 0.599288 -0.004583
C57   C     C_R   0.673673 0.469170 0.354187 0.326027
C58   C     C_R   0.325905 0.470826 0.644059 0.325707
C59   C     C_R   0.173844 0.969888 0.356588 0.326243
C60   C     C_R   0.826067 0.969994 0.643569 0.326340
C61   C     C_R   0.692640 0.496904 0.300810 -0.081948
C62   C     C_R   0.307296 0.497365 0.700051 -0.080965
C63   C     C_R   0.192605 0.994951 0.298002 -0.087827
C64   C     C_R   0.807389 0.995158 0.702011 -0.087873
C65   C     C_1   0.732825 0.495376 0.257681 0.110317
C66   C     C_1   0.267120 0.495880 0.743486 0.108681
C67   C     C_1   0.232843 0.993905 0.255424 0.111116
C68   C     C_1   0.767151 0.994161 0.744610 0.111057
C69   C     C_1   0.766450 0.494887 0.222558 0.129548
C70   C     C_1   0.233498 0.495351 0.778664 0.128958
C71   C     C_1   0.266481 0.994024 0.221046 0.133940
C72   C     C_1   0.733514 0.994292 0.778993 0.134205
C73   C     C_R   0.825441 0.527015 0.139065 0.261967
C74   C     C_R   0.174422 0.527350 0.861740 0.262498
C75   C     C_R   0.325307 0.027446 0.140952 0.263139
C76   C     C_R   0.674709 0.027700 0.858960 0.262918
C77   C     C_R   0.864646 0.529878 0.107327 0.198402
C78   C     C_R   0.135254 0.530134 0.893063 0.198996
C79   C     C_R   0.364526 0.030231 0.109141 0.198573
C80   C     C_R   0.635488 0.030416 0.890768 0.198502
C81   C     C_R   0.884993 0.500337 0.116607 -0.293208
C82   C     C_R   0.115001 0.500471 0.883670 -0.293540
C83   C     C_R   0.384970 0.000251 0.116867 -0.292829
C84   C     C_R   0.615032 0.000356 0.883126 -0.293125
C85   C     C_R   0.865186 0.469727 0.162884 0.291021
C86   C     C_R   0.134893 0.469833 0.837623 0.290141
C87   C     C_R   0.365233 0.969141 0.161615 0.290900
C88   C     C_R   0.634759 0.969234 0.838459 0.290581
C89   C     C_R   0.826168 0.467667 0.194489 -0.200994
C90   C     C_R   0.173891 0.467878 0.806366 -0.199926
C91   C     C_R   0.326269 0.966928 0.192594 -0.202785
C92   C     C_R   0.673717 0.967084 0.807507 -0.202726
H5    H     H_    0.810812 0.444688 0.231019 0.228047
H6    H     H_    0.189322 0.444890 0.769966 0.228917
H7    H     H_    0.311004 0.943416 0.227579 0.228598
H8    H     H_    0.688970 0.943556 0.772593 0.228762
C93   C     C_R   0.806560 0.495840 0.182504 -0.104469
C94   C     C_R   0.193391 0.496168 0.818514 -0.104861
C95   C     C_R   0.306573 0.995559 0.182040 -0.106560
C96   C     C_R   0.693425 0.995793 0.817981 -0.106572
O17   O     O_R   0.031280 0.555400 0.468730 -0.571834
O18   O     O_R   0.968720 0.555400 0.531270 -0.571142
O19   O     O_R   0.531280 0.055400 0.468730 -0.571770
O20   O     O_R   0.468720 0.055400 0.531270 -0.571397
C97   C     C_R   0.000014 0.573555 0.499948 1.047249
C98   C     C_R   0.500003 0.073545 0.499834 1.047116
O21   O     O_R   0.031290 0.499960 0.375690 -0.599558
O22   O     O_R   0.968710 0.499960 0.624310 -0.599046
O23   O     O_R   0.531290 0.999960 0.375690 -0.599898
O24   O     O_R   0.468710 0.999960 0.624310 -0.599646
O25   O     O_R   0.968700 0.499940 0.438280 -0.622430
O26   O     O_R   0.031300 0.499940 0.561720 -0.622035
O27   O     O_R   0.468700 0.999940 0.438280 -0.622372
O28   O     O_R   0.531300 0.999940 0.561720 -0.621715
C99   C     C_R   0.999657 0.499836 0.378839 0.971535
C100  C     C_R   0.000344 0.499845 0.621162 0.970989
C101  C     C_R   0.499664 0.999899 0.378823 0.971586
C102  C     C_R   0.500338 0.999886 0.621176 0.971216
Zn5   Zn    Zn3+2 0.041800 0.499960 0.458210 1.099526
Zn6   Zn    Zn3+2 0.958200 0.499960 0.541790 1.098048
Zn7   Zn    Zn3+2 0.541800 0.999960 0.458210 1.099357
Zn8   Zn    Zn3+2 0.458200 0.999960 0.541790 1.097634
O29   O     O_R   0.031310 0.444530 0.468680 -0.625018
O30   O     O_R   0.968690 0.444530 0.531320 -0.628632
O31   O     O_R   0.531310 0.944530 0.468680 -0.624970
O32   O     O_R   0.468690 0.944530 0.531320 -0.628573
C103  C     C_R   0.999966 0.426747 0.499612 0.894755
C104  C     C_R   0.499967 0.926745 0.499615 0.895027
O33   O     O_R   0.500010 0.555340 0.552490 -0.604528
O34   O     O_R   0.499990 0.555340 0.447510 -0.605173
O35   O     O_R   0.000010 0.055340 0.552490 -0.604455
O36   O     O_R   0.999990 0.055340 0.447510 -0.602892
C105  C     C_R   0.500014 0.573211 0.500046 0.982802
C106  C     C_R   0.000026 0.073212 0.500032 0.966802
O37   O     O_R   0.555450 0.499900 0.497080 -0.611976
O38   O     O_R   0.444550 0.499900 0.502920 -0.613388
O39   O     O_R   0.055450 0.999900 0.497080 -0.614928
O40   O     O_R   0.944550 0.999900 0.502920 -0.614599
O41   O     O_R   0.555440 0.499880 0.392050 -0.592565
O42   O     O_R   0.444560 0.499880 0.607950 -0.586881
O43   O     O_R   0.055440 0.999880 0.392050 -0.582947
O44   O     O_R   0.944560 0.999880 0.607950 -0.583139
C107  C     C_R   0.573120 0.499569 0.427244 0.949858
C108  C     C_R   0.426855 0.499647 0.572777 0.951566
C109  C     C_R   0.073173 0.999654 0.427157 0.940526
C110  C     C_R   0.926829 0.999663 0.572842 0.940820
Zn9   Zn    Zn3+2 0.500010 0.499910 0.570130 1.052768
Zn10  Zn    Zn3+2 0.499990 0.499910 0.429870 1.054154
Zn11  Zn    Zn3+2 0.000010 0.999910 0.570130 1.062177
Zn12  Zn    Zn3+2 0.999990 0.999910 0.429870 1.063307
O45   O     O_R   0.500000 0.444470 0.552540 -0.622942
O46   O     O_R   0.500000 0.444470 0.447460 -0.616818
O47   O     O_R   0.000000 0.944470 0.552540 -0.616216
O48   O     O_R   1.000000 0.944470 0.447460 -0.616244
C111  C     C_R   0.500432 0.426786 0.499590 0.834053
C112  C     C_R   0.000008 0.926860 0.499970 0.826614
C113  C     C_R   0.474554 0.326225 0.558780 -0.100440
C114  C     C_R   0.525465 0.326961 0.433701 -0.110047
C115  C     C_R   0.971248 0.826757 0.558110 -0.109852
C116  C     C_R   0.028985 0.826865 0.441424 -0.109916
H9    H     H_    0.454828 0.310205 0.606200 0.179640
H10   H     H_    0.545031 0.311600 0.385128 0.185711
H11   H     H_    0.948935 0.811098 0.602857 0.189494
H12   H     H_    0.051331 0.811291 0.396615 0.189423
C117  C     C_R   0.475011 0.365419 0.561581 0.105821
C118  C     C_R   0.527030 0.366117 0.434661 0.118087
C119  C     C_R   0.970569 0.865967 0.558917 0.114290
C120  C     C_R   0.029574 0.866078 0.440764 0.114226
C121  C     C_R   0.501139 0.385708 0.498770 -0.039475
C122  C     C_R   0.000049 0.885929 0.499880 -0.018548
C123  C     C_R   0.499485 0.307411 0.495253 0.026070
C124  C     C_R   0.000140 0.807582 0.499732 0.023573
C125  C     C_1   0.499274 0.267580 0.494117 0.065634
C126  C     C_1   0.000175 0.767726 0.499658 0.066323
C127  C     C_1   0.000174 0.734183 0.499638 0.199175
C128  C     C_1   0.499276 0.234049 0.493991 0.198041
C129  C     C_R   0.967307 0.674785 0.549150 0.226893
C130  C     C_R   0.032906 0.674751 0.450207 0.226988
C131  C     C_R   0.466729 0.174774 0.545321 0.225815
C132  C     C_R   0.532313 0.174589 0.446297 0.227129
C133  C     C_R   0.967192 0.635356 0.549578 0.213556
C134  C     C_R   0.032929 0.635318 0.449898 0.213024
C135  C     C_R   0.466934 0.135383 0.547575 0.212844
C136  C     C_R   0.532658 0.135181 0.447810 0.214391
C137  C     C_R   0.000047 0.615202 0.499814 -0.328208
C138  C     C_R   0.499926 0.115167 0.498596 -0.328044
C139  C     C_R   0.000133 0.694111 0.499670 -0.206480
C140  C     C_R   0.499377 0.194001 0.494868 -0.206587
C141  C     C_R   0.500826 0.673845 0.443561 0.133644
C142  C     C_R   0.499013 0.673132 0.559719 0.121999
C143  C     C_R   0.000729 0.173844 0.443628 0.133466
C144  C     C_R   0.999074 0.173142 0.559636 0.122566
C145  C     C_R   0.500949 0.634534 0.443283 -0.117461
C146  C     C_R   0.499096 0.633883 0.558324 -0.114101
C147  C     C_R   0.000873 0.134533 0.443340 -0.118471
C148  C     C_R   0.999171 0.133892 0.558240 -0.117533
H13   H     H_    0.501741 0.619602 0.398391 0.181262
H14   H     H_    0.498409 0.618475 0.602629 0.182286
H15   H     H_    0.001610 0.119596 0.398503 0.182771
H16   H     H_    0.998549 0.118488 0.602488 0.183337
C149  C     C_R   0.500019 0.614450 0.500463 -0.091724
C150  C     C_R   0.000028 0.114452 0.500447 -0.098456
C151  C     C_R   0.499796 0.693108 0.502143 0.102108
C152  C     C_R   0.999769 0.193113 0.502139 0.102476
C153  C     C_1   0.499306 0.733334 0.503403 0.028342
C154  C     C_1   0.999271 0.233342 0.503397 0.028065
C155  C     C_1   0.998724 0.266957 0.504349 0.158437
C156  C     C_1   0.498758 0.766948 0.504360 0.158298
C157  C     C_R   0.984059 0.326126 0.466020 0.324192
C158  C     C_R   0.013076 0.326867 0.541255 0.321001
C159  C     C_R   0.484053 0.826106 0.466082 0.324211
C160  C     C_R   0.513118 0.826863 0.541228 0.320986
C161  C     C_R   0.984648 0.365684 0.463930 0.035647
C162  C     C_R   0.013985 0.366403 0.539329 0.035457
C163  C     C_R   0.484629 0.865664 0.463999 0.035567
C164  C     C_R   0.514016 0.866399 0.539300 0.035395
C165  C     C_R   0.999799 0.385615 0.500471 -0.115938
C166  C     C_R   0.499800 0.885606 0.500489 -0.116084
C167  C     C_R   0.998024 0.307154 0.504949 -0.195834
C168  C     C_R   0.498049 0.807143 0.504964 -0.195931
N1    N     N_R   0.004363 0.574009 0.286729 0.273827
O49   O     O_R   0.007189 0.600789 0.242892 -0.243655
O50   O     O_R   0.998475 0.582523 0.350727 -0.359019
N2    N     N_R   0.995194 0.573951 0.713935 0.273773
O51   O     O_R   0.992364 0.600713 0.757866 -0.243600
O52   O     O_R   0.000762 0.582500 0.650201 -0.358713
N3    N     N_R   0.503872 0.074146 0.287055 0.273683
O53   O     O_R   0.506190 0.100947 0.243663 -0.243953
O54   O     O_R   0.498430 0.082611 0.350746 -0.361182
N4    N     N_R   0.495612 0.074057 0.713583 0.273607
O55   O     O_R   0.493111 0.100852 0.757192 -0.243407
O56   O     O_R   0.500956 0.082546 0.649986 -0.357174
N5    N     N_R   0.694816 0.440541 0.365217 0.205335
O57   O     O_R   0.694272 0.438709 0.426438 -0.333863
O58   O     O_R   0.716561 0.417932 0.312579 -0.348535
N6    N     N_R   0.304405 0.443500 0.630802 0.205702
O59   O     O_R   0.304761 0.443769 0.569685 -0.333211
O60   O     O_R   0.282620 0.419925 0.681399 -0.348998
N7    N     N_R   0.195156 0.943409 0.371999 0.206013
O61   O     O_R   0.194353 0.944974 0.433492 -0.332959
O62   O     O_R   0.217317 0.919410 0.322852 -0.351531
N8    N     N_R   0.804670 0.943478 0.628315 0.206029
O63   O     O_R   0.805467 0.944937 0.566822 -0.332614
O64   O     O_R   0.782442 0.919551 0.677594 -0.351506
N9    N     N_R   0.804785 0.556026 0.127770 0.224068
O65   O     O_R   0.784498 0.547793 0.098927 -0.339469
O66   O     O_R   0.807574 0.590884 0.143018 -0.278272
N10   N     N_R   0.194956 0.556437 0.873302 0.224034
O67   O     O_R   0.214286 0.548454 0.904213 -0.338397
O68   O     O_R   0.192612 0.591191 0.857011 -0.277441
N11   N     N_R   0.304511 0.057280 0.132226 0.229379
O69   O     O_R   0.283620 0.050307 0.104167 -0.351875
O70   O     O_R   0.307822 0.091707 0.148910 -0.273841
N12   N     N_R   0.695523 0.057625 0.867559 0.229597
O71   O     O_R   0.716489 0.050769 0.895473 -0.351841
O72   O     O_R   0.692194 0.092012 0.850827 -0.273239
N13   N     N_R   0.883387 0.562768 0.065673 0.249926
O73   O     O_R   0.880508 0.571580 0.009756 -0.218375
O74   O     O_R   0.895159 0.588113 0.093438 -0.266116
N14   N     N_R   0.116466 0.563100 0.934309 0.249886
O75   O     O_R   0.119165 0.572164 0.990344 -0.218103
O76   O     O_R   0.104827 0.588263 0.906081 -0.265990
N15   N     N_R   0.383213 0.063397 0.068562 0.250472
O77   O     O_R   0.380685 0.072618 0.012424 -0.221503
O78   O     O_R   0.394890 0.088383 0.097128 -0.263936
N16   N     N_R   0.616814 0.063598 0.931242 0.250575
O79   O     O_R   0.619368 0.072951 0.987319 -0.221260
O80   O     O_R   0.605119 0.088475 0.902620 -0.263728
N17   N     N_R   0.883854 0.441878 0.182085 0.234342
O81   O     O_R   0.872271 0.407143 0.192680 -0.331056
O82   O     O_R   0.907934 0.452222 0.200986 -0.391556
N18   N     N_R   0.116343 0.441854 0.818273 0.234799
O83   O     O_R   0.127948 0.407150 0.807863 -0.330106
O84   O     O_R   0.092366 0.452044 0.799066 -0.391076
N19   N     N_R   0.383914 0.940815 0.179783 0.235301
O85   O     O_R   0.372626 0.906014 0.188278 -0.331269
O86   O     O_R   0.407633 0.950638 0.199930 -0.389133
N20   N     N_R   0.616072 0.940833 0.820327 0.235506
O87   O     O_R   0.627327 0.906046 0.811944 -0.330514
O88   O     O_R   0.592396 0.950570 0.800074 -0.389580
C169  C     C_3   0.447204 0.384713 0.631497 -0.785942
H17   H     H_    0.430751 0.405944 0.621366 0.223436
H18   H     H_    0.426927 0.364468 0.672136 0.250300
H19   H     H_    0.462365 0.398635 0.655637 0.264089
C170  C     C_3   0.557481 0.385145 0.366981 -0.815791
H20   H     H_    0.561239 0.415272 0.374622 0.235718
H21   H     H_    0.584960 0.371359 0.349390 0.252376
H22   H     H_    0.550941 0.382403 0.322888 0.263907
C171  C     C_3   0.937439 0.884707 0.622846 -0.828387
H23   H     H_    0.936879 0.915628 0.617881 0.235095
H24   H     H_    0.910845 0.873690 0.628613 0.252841
H25   H     H_    0.937867 0.878183 0.673128 0.266549
C172  C     C_3   0.062659 0.884942 0.376896 -0.828554
H26   H     H_    0.063156 0.915866 0.381975 0.235182
H27   H     H_    0.089279 0.874036 0.371073 0.252792
H28   H     H_    0.062237 0.878403 0.326598 0.266616
N21   N     N_R   0.934107 0.695139 0.600170 0.243105
O89   O     O_R   0.917030 0.686974 0.668934 -0.252054
O90   O     O_R   0.920477 0.721487 0.577968 -0.336925
N22   N     N_R   0.066128 0.695072 0.399046 0.243287
O91   O     O_R   0.083110 0.686863 0.330303 -0.251696
O92   O     O_R   0.079851 0.721464 0.421085 -0.336802
N23   N     N_R   0.433427 0.195227 0.595621 0.242578
O93   O     O_R   0.416539 0.187927 0.664722 -0.254823
O94   O     O_R   0.419599 0.220892 0.572464 -0.331828
N24   N     N_R   0.565414 0.194801 0.394354 0.243370
O95   O     O_R   0.582528 0.185754 0.325985 -0.250066
O96   O     O_R   0.578986 0.221830 0.415357 -0.335407
N25   N     N_R   0.933224 0.616173 0.600216 0.259254
O97   O     O_R   0.903084 0.619920 0.595815 -0.274829
O98   O     O_R   0.931010 0.599111 0.655990 -0.254963
N26   N     N_R   0.066803 0.616091 0.399116 0.259232
O99   O     O_R   0.097090 0.619969 0.402998 -0.274781
O100  O     O_R   0.068761 0.598808 0.343720 -0.255943
N27   N     N_R   0.433171 0.116280 0.599333 0.259458
O101  O     O_R   0.402790 0.119399 0.595587 -0.274120
O102  O     O_R   0.431446 0.099779 0.655160 -0.255841
N28   N     N_R   0.566717 0.115901 0.398070 0.259041
O103  O     O_R   0.596775 0.120361 0.402540 -0.275229
O104  O     O_R   0.569120 0.098087 0.342771 -0.256452
C173  C     C_3   0.501731 0.694811 0.381472 -0.739201
H29   H     H_    0.502785 0.675352 0.339862 0.242534
H30   H     H_    0.476081 0.712412 0.402112 0.281031
H31   H     H_    0.526997 0.713192 0.354914 0.254860
C174  C     C_3   0.498167 0.693238 0.622561 -0.721739
H32   H     H_    0.497286 0.673243 0.663244 0.239052
H33   H     H_    0.523813 0.710852 0.602406 0.275224
H34   H     H_    0.472820 0.711418 0.650108 0.266122
C175  C     C_3   0.001534 0.194804 0.381627 -0.739250
H35   H     H_    0.002542 0.175341 0.340064 0.242748
H36   H     H_    0.975867 0.212388 0.402379 0.281231
H37   H     H_    0.026787 0.213200 0.354977 0.254743
C176  C     C_3   0.998307 0.193255 0.622398 -0.721908
H38   H     H_    0.997506 0.173264 0.663013 0.239186
H39   H     H_    0.023946 0.210892 0.602136 0.275151
H40   H     H_    0.972949 0.211413 0.650058 0.266291
N29   N     N_R   0.938037 0.542518 0.269102 0.250944
O105  O     O_R   0.917383 0.560072 0.330140 -0.290437
O106  O     O_R   0.928556 0.543299 0.219765 -0.330119
N30   N     N_R   0.061709 0.542955 0.731294 0.250873
O107  O     O_R   0.082207 0.560742 0.670468 -0.290188
O108  O     O_R   0.071314 0.543629 0.780459 -0.329656
N31   N     N_R   0.437748 0.042117 0.269300 0.250921
O109  O     O_R   0.416950 0.059528 0.330445 -0.289712
O110  O     O_R   0.428295 0.042826 0.219921 -0.331083
N32   N     N_R   0.561937 0.042622 0.731136 0.250733
O111  O     O_R   0.582558 0.060289 0.670216 -0.289712
O112  O     O_R   0.571516 0.043242 0.780340 -0.330819
N33   N     N_R   0.969797 0.304991 0.427974 0.206244
O113  O     O_R   0.988501 0.304104 0.357420 -0.367175
O114  O     O_R   0.940490 0.283427 0.463640 -0.359403
N34   N     N_R   0.027903 0.306524 0.579064 0.207512
O115  O     O_R   0.063819 0.307248 0.555672 -0.342633
O116  O     O_R   0.005694 0.286180 0.635350 -0.383643
N35   N     N_R   0.469774 0.804963 0.428074 0.206238
O117  O     O_R   0.488455 0.804080 0.357519 -0.367310
O118  O     O_R   0.440482 0.783385 0.463769 -0.359700
N36   N     N_R   0.527980 0.806529 0.578985 0.207568
O119  O     O_R   0.563900 0.807277 0.555551 -0.342787
O120  O     O_R   0.505800 0.786167 0.635264 -0.383834
C177  C     C_3   0.968868 0.386965 0.424048 -0.791917
H41   H     H_    0.958502 0.368536 0.396218 0.281178
H42   H     H_    0.944602 0.404208 0.463346 0.245190
H43   H     H_    0.990878 0.405644 0.382543 0.212427
C178  C     C_3   0.028730 0.388399 0.580296 -0.781340
H44   H     H_    0.034856 0.370623 0.615506 0.275495
H45   H     H_    0.055082 0.403013 0.540870 0.252222
H46   H     H_    0.007541 0.409486 0.616183 0.203558
C179  C     C_3   0.468806 0.886931 0.424189 -0.792193
H47   H     H_    0.458440 0.868499 0.396365 0.281265
H48   H     H_    0.444532 0.904146 0.463546 0.245345
H49   H     H_    0.490792 0.905632 0.382689 0.212444
C180  C     C_3   0.528790 0.888399 0.580203 -0.781748
H50   H     H_    0.534908 0.870635 0.615438 0.275541
H51   H     H_    0.555151 0.902981 0.540720 0.252369
H52   H     H_    0.507622 0.909510 0.616062 0.203584
C181  C     C_3   0.928524 0.468856 0.362161 -0.693680
H53   H     H_    0.911249 0.461502 0.337658 0.273916
H54   H     H_    0.933308 0.443201 0.385531 0.219665
H55   H     H_    0.913211 0.489935 0.405700 0.268952
C182  C     C_3   0.071717 0.469447 0.637697 -0.688802
H56   H     H_    0.089026 0.462343 0.662216 0.273702
H57   H     H_    0.067185 0.443698 0.614144 0.220824
H58   H     H_    0.086868 0.490636 0.594298 0.268525
C183  C     C_3   0.428756 0.968471 0.361883 -0.694312
H59   H     H_    0.411525 0.961068 0.337307 0.273406
H60   H     H_    0.433676 0.942812 0.385027 0.219797
H61   H     H_    0.413324 0.989432 0.405601 0.269235
C184  C     C_3   0.571516 0.969117 0.637973 -0.689988
H62   H     H_    0.588789 0.961998 0.662562 0.273205
H63   H     H_    0.566880 0.943348 0.614637 0.221011
H64   H     H_    0.586762 0.990199 0.594401 0.268714
C185  C     C_3   0.991662 0.423478 0.217131 -0.695581
H65   H     H_    0.989492 0.404894 0.260707 0.229935
H66   H     H_    0.966046 0.420047 0.213172 0.280543
H67   H     H_    0.016832 0.415364 0.164902 0.250648
C186  C     C_3   0.008726 0.423534 0.782425 -0.698863
H68   H     H_    0.010863 0.404924 0.738890 0.225975
H69   H     H_    0.034409 0.420268 0.786183 0.281462
H70   H     H_    0.983635 0.415312 0.834705 0.250663
C187  C     C_3   0.492220 0.923484 0.216645 -0.696343
H71   H     H_    0.490206 0.904897 0.260089 0.230163
H72   H     H_    0.466606 0.919873 0.212732 0.279986
H73   H     H_    0.517428 0.915538 0.164339 0.250758
C188  C     C_3   0.508223 0.923532 0.782863 -0.699529
H74   H     H_    0.510218 0.904923 0.739447 0.226101
H75   H     H_    0.533906 0.920100 0.786570 0.281214
H76   H     H_    0.483100 0.915459 0.835215 0.250717
N37   N     N_R   0.066299 0.528974 0.141947 0.246948
O121  O     O_R   0.078192 0.561857 0.148171 -0.218500
O122  O     O_R   0.087950 0.507683 0.086846 -0.371213
N38   N     N_R   0.933533 0.528454 0.858264 0.246690
O123  O     O_R   0.921448 0.561225 0.852217 -0.218932
O124  O     O_R   0.912010 0.507031 0.913252 -0.371287
N39   N     N_R   0.566048 0.029573 0.141851 0.246781
O125  O     O_R   0.577477 0.062775 0.147709 -0.219436
O126  O     O_R   0.587812 0.008478 0.086503 -0.371677
N40   N     N_R   0.433727 0.028973 0.858364 0.246502
O127  O     O_R   0.422029 0.062018 0.852626 -0.220322
O128  O     O_R   0.412128 0.007741 0.913624 -0.372204
C189  C     C_3   0.693178 0.558528 0.238831 -0.601522
H77   H     H_    0.723284 0.560317 0.222112 0.250047
H78   H     H_    0.690900 0.554989 0.189695 0.272920
H79   H     H_    0.680690 0.585951 0.264746 0.253417
C190  C     C_3   0.307472 0.556827 0.767092 -0.604160
H80   H     H_    0.277222 0.558888 0.785167 0.251813
H81   H     H_    0.310364 0.551803 0.815184 0.271319
H82   H     H_    0.319800 0.584646 0.743201 0.254703
C191  C     C_3   0.194252 0.050792 0.223167 -0.615364
H83   H     H_    0.215660 0.065343 0.231289 0.252514
H84   H     H_    0.208488 0.035792 0.170360 0.264242
H85   H     H_    0.176256 0.073011 0.220380 0.269472
C192  C     C_3   0.805922 0.051134 0.776523 -0.614597
H86   H     H_    0.784557 0.065656 0.768323 0.252580
H87   H     H_    0.791641 0.036228 0.829421 0.264058
H88   H     H_    0.823991 0.073368 0.779168 0.269645
N41   N     N_R   0.612663 0.557193 0.324678 0.214427
O129  O     O_R   0.590447 0.578439 0.379450 -0.406481
O130  O     O_R   0.615857 0.563179 0.261841 -0.346123
N42   N     N_R   0.387849 0.555585 0.679760 0.215786
O131  O     O_R   0.409822 0.577865 0.626663 -0.404239
O132  O     O_R   0.385200 0.559639 0.742594 -0.346364
N43   N     N_R   0.112693 0.052607 0.314588 0.211559
O133  O     O_R   0.092888 0.077506 0.364054 -0.397422
O134  O     O_R   0.110851 0.051161 0.255743 -0.344384
N44   N     N_R   0.887491 0.052798 0.685111 0.211563
O135  O     O_R   0.907370 0.077626 0.635520 -0.396244
O136  O     O_R   0.889320 0.051458 0.743974 -0.344517
C193  C     C_3   0.613017 0.439600 0.453062 -0.703435
H89   H     H_    0.630975 0.415353 0.448274 0.276449
H90   H     H_    0.600669 0.451364 0.508592 0.258979
H91   H     H_    0.590119 0.428125 0.445891 0.197535
C194  C     C_3   0.386064 0.442460 0.541686 -0.691767
H92   H     H_    0.367964 0.418500 0.545462 0.274749
H93   H     H_    0.397569 0.455628 0.487469 0.259420
H94   H     H_    0.409537 0.430237 0.546055 0.195719
C195  C     C_3   0.113463 0.943246 0.461310 -0.696675
H95   H     H_    0.131254 0.919269 0.458615 0.272923
H96   H     H_    0.102411 0.957315 0.514633 0.261946
H97   H     H_    0.089680 0.930847 0.458113 0.202054
C196  C     C_3   0.886367 0.943188 0.539003 -0.696751
H98   H     H_    0.868494 0.919223 0.541787 0.273040
H99   H     H_    0.897497 0.957173 0.485599 0.261940
H100  H     H_    0.910089 0.930786 0.542323 0.201835

loop_
_geom_bond_atom_site_label_1
_geom_bond_atom_site_label_2
_geom_bond_distance
_ccdc_geom_bond_type
O22   Zn6   2.022005 S    
C75   C79   1.403847 A    
C176  H38   1.110796 S    
C35   C39   1.531603 S    
C80   N16   1.434428 S    
C192  H86   1.110413 S    
O30   C103  1.279052 A    
O26   C100  1.263938 A    
N25   O97   1.300989 A    
C193  H91   1.108632 S    
O25   C99   1.263974 A    
C25   C37   1.543431 S    
N36   O119  1.300960 A    
N14   O75   1.300270 A    
C69   C93   1.425340 S    
C63   C67   1.431532 S    
C180  H51   1.109227 S    
C132  N24   1.439513 S    
O28   Zn7   2.030318 S    
C9    C13   1.529581 S    
C76   C80   1.403934 A    
C143  C152  1.410112 A    
C187  H71   1.109387 S    
C11   C39   1.533010 S    
C157  C161  1.406854 A    
N4    O56   1.299484 A    
C44   C192  1.515327 S    
Zn8   O32   2.005830 S    
C157  C167  1.404147 A    
O46   C111  1.289363 A    
Zn9   O45   2.006337 S    
C132  C136  1.401621 A    
N22   O91   1.301191 A    
C190  H81   1.109778 S    
C46   C50   1.410262 A    
C135  C138  1.420682 A    
C88   N20   1.437579 S    
N15   O78   1.301145 A    
C146  H14   1.083498 S    
O4    C4    1.288080 A    
C106  C150  1.466099 S    
C56   C60   1.408346 A    
N41   O130  1.300978 A    
C184  H63   1.105220 S    
N1    O49   1.300206 A    
O35   C106  1.290454 A    
C77   C81   1.420985 A    
C50   C108  1.462206 S    
C175  H36   1.110059 S    
N2    O52   1.299474 A    
O43   C109  1.288278 A    
O24   Zn8   2.022005 S    
C134  N26   1.434621 S    
C91   C95   1.391587 A    
N24   O95   1.301194 A    
C58   N6    1.436986 S    
O27   Zn8   2.030313 S    
N35   O117  1.300984 A    
C62   C66   1.430803 S    
C4    C84   1.475697 S    
C11   N31   1.458921 S    
N28   O103  1.300953 A    
O16   Zn4   2.026266 S    
O18   C97   1.285065 A    
C74   C78   1.403261 A    
O13   C5    1.271906 A    
O7    Zn4   2.004301 S    
C76   C96   1.401485 A    
C191  H85   1.106915 S    
C48   N44   1.436274 S    
C54   C58   1.407976 A    
O4    Zn2   2.004365 S    
C44   C48   1.405045 A    
C132  C140  1.402883 A    
C115  C124  1.390325 A    
O38   Zn10  2.009839 S    
O9    C5    1.265486 A    
C173  H31   1.110430 S    
C52   C110  1.463932 S    
O41   Zn10  2.001385 S    
C79   N15   1.434400 S    
N24   O96   1.301267 A    
O19   Zn7   2.006379 S    
C70   C94   1.425157 S    
O42   C108  1.288505 A    
N18   O83   1.301339 A    
N43   O134  1.301127 A    
C14   C34   1.528248 S    
C176  H40   1.110360 S    
C131  N23   1.439612 S    
N9    O66   1.301055 A    
C178  H44   1.107378 S    
O8    Zn4   2.004976 S    
C192  H88   1.106913 S    
O23   Zn7   2.021997 S    
C97   C137  1.480582 S    
O21   Zn5   2.021997 S    
N38   O123  1.299979 A    
C111  C121  1.460570 S    
C17   C99   1.433115 S    
N7    O62   1.301153 A    
C141  C145  1.397510 A    
O3    Zn2   2.005044 S    
C60   C64   1.406726 A    
N26   O99   1.301014 A    
O11   Zn2   2.026115 S    
C6    C38   1.434166 S    
C136  N28   1.434459 S    
C142  C174  1.507684 S    
C179  H47   1.106844 S    
C32   H4    1.110329 S    
O36   C106  1.291827 A    
C193  H89   1.107541 S    
C119  C122  1.419909 A    
C194  H93   1.109789 S    
C182  H56   1.109636 S    
C118  C170  1.511081 S    
C42   C46   1.404292 A    
C85   N17   1.437666 S    
C29   C33   1.543995 S    
C187  H73   1.109575 S    
O37   C107  1.287779 A    
C31   C35   1.544235 S    
O38   C108  1.288126 A    
C189  H77   1.105756 S    
O3    C3    1.288082 A    
N42   O131  1.301089 A    
C27   C39   1.543135 S    
O17   C97   1.285185 A    
C28   C32   1.550486 S    
C174  H34   1.110358 S    
N21   O89   1.301189 A    
C21   C25   1.543563 S    
C79   C83   1.420931 A    
C114  C118  1.394073 A    
C183  H59   1.109661 S    
C51   C55   1.415815 A    
O16   C8    1.271432 A    
C24   C28   1.543630 S    
C177  H42   1.109012 S    
C75   N11   1.435782 S    
C19   C31   1.548118 S    
C174  H32   1.110797 S    
C59   N7    1.437222 S    
C130  C139  1.402900 A    
C181  H53   1.109603 S    
C188  H74   1.109010 S    
C7    C39   1.433990 S    
N17   O81   1.301336 A    
C11   C23   1.536196 S    
C12   C16   1.529452 S    
C36   N40   1.455538 S    
N16   O79   1.300404 A    
O26   Zn5   2.030318 S    
N39   O126  1.300355 A    
C114  H10   1.085199 S    
C171  H24   1.110788 S    
C1    C81   1.475030 S    
C68   C72   1.195328 T    
C42   C190  1.515304 S    
N30   O107  1.300253 A    
C172  H27   1.110789 S    
N5    O57   1.301100 A    
C73   C93   1.400963 A    
C160  N36   1.434585 S    
O5    Zn3   2.004301 S    
O6    Zn3   2.004976 S    
C169  H18   1.110884 S    
C178  H46   1.110902 S    
Zn11  O47   2.006337 S    
C86   C90   1.395187 A    
O39   C109  1.289322 A    
O47   C112  1.287337 A    
O10   Zn1   2.026654 S    
C51   C109  1.464057 S    
C26   C38   1.543105 S    
C185  H66   1.108986 S    
N34   O116  1.300543 A    
C120  C172  1.511098 S    
C170  H21   1.110950 S    
C179  H49   1.110827 S    
N20   O88   1.301521 A    
C10   C14   1.529516 S    
C54   C194  1.516722 S    
C148  C150  1.401484 A    
O13   Zn3   2.026794 S    
C19   C101  1.433501 S    
C21   C181  1.521709 S    
C142  C146  1.395570 A    
C182  H58   1.109348 S    
N23   O94   1.301279 A    
C35   N39   1.455541 S    
N44   O135  1.301095 A    
N10   O67   1.300853 A    
N37   O122  1.300362 A    
O43   Zn12  2.001385 S    
C86   N18   1.437649 S    
C16   N4    1.457311 S    
C92   H8    1.084547 S    
C120  C122  1.419973 A    
C189  H79   1.110556 S    
O29   C103  1.279914 A    
O5    C1    1.280820 A    
C196  H98   1.107718 S    
O15   Zn4   2.026794 S    
C129  N21   1.439561 S    
C103  C165  1.462382 S    
C56   C196  1.516629 S    
O8    C4    1.281433 A    
C195  H95   1.107727 S    
C60   N8    1.437209 S    
C183  H61   1.109338 S    
C13   N1    1.457306 S    
C142  C151  1.409065 A    
C157  N33   1.435231 S    
N8    O64   1.301155 A    
C89   H5    1.084513 S    
C151  C153  1.430280 S    
O44   C110  1.288219 A    
C186  H70   1.109564 S    
C91   H7    1.084537 S    
C2    C82   1.474798 S    
N32   O111  1.300250 A    
C88   C92   1.394779 A    
C181  H55   1.109357 S    
C188  H76   1.109569 S    
C71   C95   1.425290 S    
C74   C94   1.400601 A    
C25   C185  1.522043 S    
C162  C178  1.513770 S    
C49   C53   1.414282 A    
C9    C21   1.536261 S    
O14   C6    1.271637 A    
C83   C87   1.417736 A    
C144  C148  1.395620 A    
N6    O59   1.301106 A    
C42   C62   1.411120 A    
C159  N35   1.435242 S    
C193  H90   1.109749 S    
C5    C37   1.434331 S    
O45   C111  1.288061 A    
C77   N13   1.434690 S    
O10   C6    1.265688 A    
N14   O76   1.301142 A    
C180  H50   1.107394 S    
C14   N2    1.457294 S    
C24   C184  1.521656 S    
O20   Zn8   2.005702 S    
C23   C27   1.543493 S    
O17   Zn5   2.006379 S    
C44   C64   1.408799 A    
O18   Zn6   2.005702 S    
N12   O72   1.301055 A    
C147  C150  1.401248 A    
C17   C21   1.541587 S    
O21   C99   1.272174 A    
C67   C71   1.195371 T    
C117  C121  1.419781 A    
C20   C24   1.541729 S    
C89   C93   1.391722 A    
N42   O132  1.300975 A    
C190  H80   1.105292 S    
C129  C133  1.401755 A    
N12   O71   1.300522 A    
C114  C123  1.389745 A    
C43   C191  1.515320 S    
N40   O127  1.299968 A    
C129  C139  1.402879 A    
C57   C61   1.407366 A    
Zn10  O46   2.006878 S    
C145  C149  1.401210 A    
C123  C125  1.416300 S    
C59   C63   1.406699 A    
C184  H62   1.109665 S    
C187  H72   1.109108 S    
N11   O69   1.300514 A    
C49   C107  1.460818 S    
C152  C154  1.430349 S    
C175  H35   1.110784 S    
N3    O53   1.300270 A    
C135  N27   1.434714 S    
N29   O106  1.299947 A    
C162  C165  1.413583 A    
O36   Zn12  2.006154 S    
C30   C34   1.543975 S    
O37   Zn9   2.009842 S    
O41   C107  1.288050 A    
C196  H100  1.108688 S    
C20   C102  1.433572 S    
N33   O114  1.300905 A    
C34   C38   1.531637 S    
N28   O104  1.300850 A    
C186  H69   1.108982 S    
C195  H97   1.108665 S    
C28   C188  1.521889 S    
C158  C162  1.406043 A    
C191  H84   1.109935 S    
C141  C173  1.508270 S    
C118  C121  1.420938 A    
C113  C117  1.395127 A    
O22   C100  1.272268 A    
C34   N38   1.455067 S    
C119  C171  1.511094 S    
C33   N37   1.455094 S    
C164  C180  1.513591 S    
C116  C120  1.394196 A    
C45   C49   1.409559 A    
C173  H30   1.110064 S    
Zn12  O48   2.006878 S    
C105  C149  1.466060 S    
N18   O84   1.301481 A    
C144  C176  1.507674 S    
C176  H39   1.110143 S    
N9    O65   1.300937 A    
C145  H13   1.083495 S    
C192  H87   1.109941 S    
C53   C193  1.516647 S    
C57   N5    1.436859 S    
N38   O124  1.300356 A    
C66   C70   1.195506 T    
N25   O98   1.300806 A    
O12   Zn2   2.026654 S    
N32   O112  1.299939 A    
C29   H1    1.110418 S    
C78   N14   1.434749 S    
O1    C1    1.288291 A    
C163  C179  1.514036 S    
O34   C105  1.291827 A    
C124  C126  1.416903 S    
O28   C102  1.264232 A    
C180  H52   1.110908 S    
C61   C65   1.430895 S    
C27   C31   1.550381 S    
C12   N32   1.458965 S    
C116  C124  1.390289 A    
C55   C195  1.516642 S    
C65   C69   1.195585 T    
C13   C17   1.532255 S    
C36   C40   1.531656 S    
C125  C128  1.192035 T    
C15   C19   1.532612 S    
N39   O125  1.299968 A    
C117  C169  1.510273 S    
N4    O55   1.300273 A    
C16   C36   1.528464 S    
C143  C147  1.397538 A    
O24   C102  1.272131 A    
O39   Zn11  2.009842 S    
N27   O101  1.301007 A    
O40   C110  1.289312 A    
C53   C57   1.407913 A    
C190  H82   1.110571 S    
C15   N3    1.457295 S    
C31   H3    1.110325 S    
N31   O110  1.299932 A    
C144  C152  1.409089 A    
C18   C30   1.547835 S    
N26   O100  1.300852 A    
C9    C37   1.533176 S    
C184  H64   1.109340 S    
C87   N19   1.437634 S    
N1    O50   1.299609 A    
C22   C26   1.543693 S    
C11   C15   1.529493 S    
N13   O74   1.301136 A    
C12   C40   1.533022 S    
C80   C84   1.420990 A    
C175  H37   1.110431 S    
N2    O51   1.300261 A    
C143  C175  1.508265 S    
C177  H41   1.106840 S    
O27   C101  1.264274 A    
O44   Zn11  2.001375 S    
C33   C37   1.531646 S    
C92   C96   1.391531 A    
C76   N12   1.435818 S    
C156  C168  1.429187 S    
C159  C163  1.406833 A    
O20   C98   1.284573 A    
O6    C2    1.280679 A    
O48   C112  1.287328 A    
N22   O92   1.301284 A    
C161  C165  1.414342 A    
C153  C156  1.195192 T    
O23   C101  1.272060 A    
C74   N10   1.434974 S    
N23   O93   1.301214 A    
C23   C183  1.521693 S    
C58   C62   1.407320 A    
C171  H23   1.105861 S    
C81   C85   1.417584 A    
C41   C45   1.404529 A    
N30   O108  1.299936 A    
O2    Zn1   2.004365 S    
C43   C47   1.405060 A    
C186  H68   1.108976 S    
O33   C105  1.290422 A    
C154  C155  1.195238 T    
C113  C123  1.390146 A    
C130  N22   1.439535 S    
C159  C168  1.404099 A    
N3    O54   1.299430 A    
C104  C166  1.462581 S    
C147  H15   1.083486 S    
C84   C88   1.417704 A    
N17   O82   1.301482 A    
C169  H17   1.108467 S    
C50   C54   1.414891 A    
C178  H45   1.109222 S    
C10   C22   1.536168 S    
C158  N34   1.434578 S    
Zn7   O31   2.005154 S    
C133  N25   1.434557 S    
C172  H28   1.110243 S    
C13   C33   1.528344 S    
O12   C8    1.265757 A    
O15   C7    1.271695 A    
N31   O109  1.300247 A    
Zn6   O30   2.005830 S    
C73   N9    1.435463 S    
C185  H65   1.109368 S    
C170  H20   1.105919 S    
Zn5   O29   2.005154 S    
C179  H48   1.109025 S    
C128  C140  1.423886 S    
C141  C151  1.410109 A    
N11   O70   1.301049 A    
C41   C189  1.515407 S    
C18   C22   1.541795 S    
C194  H94   1.108485 S    
C115  H11   1.085206 S    
C182  H57   1.105444 S    
N44   O136  1.301129 A    
N35   O118  1.300906 A    
C17   C29   1.547717 S    
C127  C139  1.424594 S    
C189  H78   1.109793 S    
C195  H96   1.109772 S    
N15   O77   1.300384 A    
C55   C59   1.408370 A    
C126  C127  1.192453 T    
C25   C29   1.550260 S    
C183  H60   1.105529 S    
C146  C149  1.401459 A    
C45   N41   1.438358 S    
C85   C89   1.395192 A    
C158  C167  1.403638 A    
C177  H43   1.110825 S    
C10   N30   1.458962 S    
O35   Zn11  2.006693 S    
O11   C7    1.265537 A    
C174  H33   1.110137 S    
O1    Zn1   2.005044 S    
O9    Zn1   2.026115 S    
C172  H26   1.105837 S    
C181  H54   1.105734 S    
C28   C40   1.542862 S    
C188  H75   1.109022 S    
C161  C177  1.514229 S    
C72   C96   1.425233 S    
C47   N43   1.436278 S    
C15   C35   1.528510 S    
C64   C68   1.431461 S    
C16   C20   1.532504 S    
C194  H92   1.107685 S    
N6    O60   1.301118 A    
O31   C104  1.279960 A    
N19   O85   1.301339 A    
C113  H9    1.084786 S    
C171  H25   1.110248 S    
C19   C23   1.541594 S    
N21   O90   1.301287 A    
N13   O73   1.300257 A    
C20   C32   1.548204 S    
C131  C135  1.401416 A    
C116  H12   1.085206 S    
N5    O58   1.301111 A    
C155  C167  1.429255 S    
N41   O129  1.301063 A    
C26   C186  1.521892 S    
O7    C3    1.281408 A    
N43   O133  1.301108 A    
C133  C137  1.420615 A    
C8    C40   1.433897 S    
C169  H19   1.109542 S    
O33   Zn9   2.006693 S    
C164  C166  1.413581 A    
C12   C24   1.536091 S    
O34   Zn10  2.006154 S    
C48   C52   1.411312 A    
N19   O86   1.301541 A    
C90   H6    1.084516 S    
N10   O68   1.301026 A    
O25   Zn6   2.030313 S    
N27   O102  1.300796 A    
C3    C83   1.475646 S    
C30   H2    1.110345 S    
O32   C104  1.279103 A    
C131  C140  1.402652 A    
C98   C138  1.479966 S    
C52   C56   1.415720 A    
N40   O128  1.300357 A    
O2    C2    1.288333 A    
C148  H16   1.083488 S    
C185  H67   1.109562 S    
C112  C122  1.455116 S    
N34   O115  1.300959 A    
C75   C95   1.401452 A    
C82   C86   1.417525 A    
C170  H22   1.110113 S    
C22   C182  1.521679 S    
N20   O87   1.301340 A    
N36   O120  1.300544 A    
C14   C18   1.532234 S    
O14   Zn3   2.026266 S    
C115  C119  1.394183 A    
C41   C61   1.411456 A    
O40   Zn12  2.009839 S    
N29   O105  1.300264 A    
C26   C30   1.550386 S    
C43   C63   1.408823 A    
C160  C168  1.403592 A    
N7    O61   1.301153 A    
O19   C98   1.285331 A    
C196  H99   1.109770 S    
N33   O113  1.300984 A    
C47   C51   1.411326 A    
C134  C137  1.420647 A    
C9    N29   1.458917 S    
C10   C38   1.533154 S    
C27   C187  1.522026 S    
C78   C82   1.421018 A    
C163  C166  1.414322 A    
N16   O80   1.301141 A    
C191  H83   1.110416 S    
N8    O63   1.301153 A    
C90   C94   1.391775 A    
C136  C138  1.420423 A    
N37   O121  1.299993 A    
C130  C134  1.401863 A    
C18   C100  1.433252 S    
C160  C164  1.406032 A    
O42   Zn9   2.001375 S    
C87   C91   1.394884 A    
C173  H29   1.110782 S    
C46   N42   1.438363 S    
C73   C77   1.403663 A    
C32   C36   1.544196 S    
