data_mof_unit_pretest_1881.cif
_audit_creation_date              2012-12-10T16:42:46-0500
_audit_creation_method            fapswitch 2.2
_symmetry_space_group_name_H-M    P1
_symmetry_Int_Tables_number       1
_space_group_crystal_system       triclinic
_cell_length_a                    15.887589
_cell_length_b                    17.966731
_cell_length_c                    29.215357
_cell_angle_alpha                 90.398081
_cell_angle_beta                  89.517705
_cell_angle_gamma                 90.41518
_cell_volume                      8338.75416613

loop_
_atom_site_label
_atom_site_type_symbol
_atom_type_description
_atom_site_fract_x
_atom_site_fract_y
_atom_site_fract_z
_atom_type_partial_charge
C1    C     C_R   0.499576 0.390114 0.058921 0.774408
C2    C     C_R   0.499999 0.610183 0.058953 0.787079
C3    C     C_R   0.773257 0.001622 0.727750 -0.002680
C4    C     C_R   0.376655 0.967379 0.673070 -0.006830
C5    C     C_R   0.934383 0.002883 0.688159 0.027329
C6    C     C_R   0.282328 0.929835 0.595771 -0.002437
C7    C     C_1   0.523746 0.932747 0.811717 0.013290
C8    C     C_1   0.518972 0.066991 0.808708 0.014742
C9    C     C_1   0.619733 0.999769 0.763636 -0.004748
C10   C     C_1   0.474925 0.991568 0.744247 -0.000169
C11   C     C_1   0.516869 0.877135 0.834457 -0.037686
C12   C     C_1   0.510984 0.124053 0.830423 -0.038159
C13   C     C_1   0.428977 0.982218 0.712049 0.025012
C14   C     C_1   0.689941 0.000730 0.747534 0.021642
C15   C     C_R   0.639003 0.015152 0.277786 -0.093510
C16   C     C_R   0.362101 0.909293 0.287934 -0.092466
C17   C     C_R   0.423138 0.029653 0.306066 -0.117353
C18   C     C_R   0.572544 0.918893 0.323358 -0.118334
C19   C     C_R   0.698706 0.025992 0.312145 -0.121781
C20   C     C_R   0.300729 0.920773 0.321690 -0.128166
C21   C     C_R   0.361792 0.040578 0.339937 -0.094719
C22   C     C_R   0.631971 0.930293 0.357588 -0.098138
C23   C     C_R   0.582451 0.001035 0.174862 0.289478
C24   C     C_R   0.431624 0.849480 0.193468 0.294860
C25   C     C_R   0.454936 0.068105 0.197210 0.336682
C26   C     C_R   0.554066 0.806973 0.235913 0.330138
C27   C     C_R   0.599677 0.055461 0.141614 0.310431
C28   C     C_R   0.416264 0.775789 0.178927 0.298801
C29   C     C_R   0.475720 0.123412 0.164816 0.308348
C30   C     C_R   0.534787 0.733195 0.222516 0.310728
C31   C     C_R   0.500582 0.610842 0.941770 0.778440
C32   C     C_R   0.500109 0.389214 0.941449 0.773462
C33   C     C_3   0.502557 0.949206 0.246675 0.037411
C34   C     C_R   0.575863 0.959194 0.281615 0.135780
C35   C     C_R   0.424566 0.964014 0.278452 0.136864
C36   C     C_R   0.695533 0.983388 0.351904 0.130169
C37   C     C_R   0.300723 0.985970 0.347923 0.128101
C38   C     C_R   0.512013 0.007273 0.205910 -0.167610
C39   C     C_R   0.497683 0.867426 0.225174 -0.164588
C40   C     C_R   0.547934 0.117303 0.137561 -0.202415
C41   C     C_R   0.465591 0.717731 0.194839 -0.208559
C42   C     C_1   0.239820 0.994687 0.384255 -0.018579
C43   C     C_1   0.758391 0.992657 0.386636 -0.029122
C44   C     C_1   0.187878 0.998888 0.414449 -0.107539
C45   C     C_1   0.811608 0.997598 0.415648 -0.130879
C46   C     C_1   0.567743 0.173752 0.103961 0.198268
C47   C     C_1   0.446318 0.641690 0.181691 0.154252
C48   C     C_1   0.584514 0.220519 0.075858 0.041193
C49   C     C_1   0.430183 0.578305 0.170870 0.091811
C50   C     C_R   0.124272 0.999941 0.449548 0.849234
C51   C     C_R   0.876055 0.999550 0.449656 0.831628
C52   C     C_R   0.585087 0.771438 0.871149 -0.133221
C53   C     C_R   0.429110 0.220382 0.871965 -0.131752
C54   C     C_R   0.433330 0.781173 0.875096 -0.128646
C55   C     C_R   0.580939 0.230239 0.867558 -0.135627
C56   C     C_R   0.892685 0.999997 0.569415 0.738700
C57   C     C_R   0.106774 0.000371 0.569377 0.804417
C58   C     C_R   0.581115 0.705997 0.896600 -0.160346
C59   C     C_R   0.426438 0.285455 0.898743 -0.164731
C60   C     C_R   0.429145 0.715465 0.900644 -0.158347
C61   C     C_R   0.578473 0.294992 0.894274 -0.166165
C62   C     C_R   0.820683 0.936141 0.725898 -0.222077
C63   C     C_R   0.396056 0.999712 0.630697 -0.199265
C64   C     C_R   0.309477 0.916697 0.676718 -0.200733
C65   C     C_R   0.806690 0.067718 0.709677 -0.217051
C66   C     C_R   0.901238 0.936908 0.706084 0.344816
C67   C     C_R   0.348672 0.980914 0.592074 0.337957
C68   C     C_R   0.262331 0.898032 0.638014 0.333982
C69   C     C_R   0.887284 0.068219 0.689910 0.313663
C70   C     C_3   0.533785 0.998252 0.782383 -0.001211
C71   C     C_R   0.511426 0.809551 0.860616 0.126812
C72   C     C_R   0.506500 0.192345 0.856604 0.127612
C73   C     C_R   0.503176 0.677417 0.911993 -0.039982
C74   C     C_R   0.501285 0.323152 0.910577 -0.040345
Cu1   Cu    Cu3+1 0.415470 0.500000 0.000080 1.035390
Cu2   Cu    Cu3+1 0.584530 0.500000 0.000080 1.020637
Cu3   Cu    Cu3+1 0.000000 0.072960 0.508900 1.061342
Cu4   Cu    Cu3+1 1.000000 0.927040 0.508900 1.066473
H1    H     H_    0.639409 0.678297 0.904625 0.170001
H2    H     H_    0.366010 0.305434 0.910803 0.168664
H3    H     H_    0.368219 0.695175 0.912062 0.171427
H4    H     H_    0.637339 0.322427 0.902605 0.168205
H5    H     H_    0.645823 0.792574 0.859897 0.148365
H6    H     H_    0.371012 0.191553 0.863711 0.149389
H7    H     H_    0.375806 0.810039 0.866912 0.150694
H8    H     H_    0.641212 0.209209 0.855859 0.147795
H9    H     H_    0.795163 0.884778 0.739647 0.186676
H10   H     H_    0.448325 0.038475 0.627558 0.186439
H11   H     H_    0.294566 0.891052 0.709286 0.190329
H12   H     H_    0.770305 0.118488 0.710826 0.188969
H13   H     H_    0.746994 0.068328 0.307844 0.154777
H14   H     H_    0.254481 0.877432 0.328276 0.155209
H15   H     H_    0.362984 0.091099 0.360388 0.156826
H16   H     H_    0.628469 0.897272 0.388449 0.152042
H17   H     H_    0.642488 0.052551 0.249159 0.137783
H18   H     H_    0.361227 0.855655 0.271274 0.138584
H19   H     H_    0.470613 0.072547 0.301359 0.141391
H20   H     H_    0.524088 0.877168 0.328986 0.141286
O1    O     O_R   0.429360 0.416280 0.044700 -0.565343
O2    O     O_R   0.570640 0.583720 0.044700 -0.569646
O3    O     O_R   0.570640 0.416280 0.044700 -0.579261
O4    O     O_R   0.429360 0.583720 0.044700 -0.564146
O5    O     O_R   0.427420 0.583550 0.955440 -0.582058
O6    O     O_R   0.572580 0.416450 0.955440 -0.588323
O7    O     O_R   0.572580 0.583550 0.955440 -0.587668
O8    O     O_R   0.427420 0.416450 0.955440 -0.583992
O9    O     O_R   0.093410 0.059470 0.464300 -0.575409
O10   O     O_R   0.906590 0.940530 0.464300 -0.578397
O11   O     O_R   0.906590 0.059470 0.464300 -0.580980
O12   O     O_R   0.093410 0.940530 0.464300 -0.579838
O13   O     O_R   0.920740 0.061400 0.553530 -0.532009
O14   O     O_R   0.079260 0.938600 0.553530 -0.528875
O15   O     O_R   0.079260 0.061400 0.553530 -0.548123
O16   O     O_R   0.920740 0.938600 0.553530 -0.549861
Cl1   Cl    Cl    0.960923 0.855367 0.703392 -0.499061
Cl2   Cl    Cl    0.372386 0.020550 0.538831 -0.596437
Cl3   Cl    Cl    0.178602 0.834360 0.642096 -0.499592
Cl4   Cl    Cl    0.929545 0.150384 0.667018 -0.563302
Cl5   Cl    Cl    0.688605 0.047023 0.104815 -0.458990
Cl6   Cl    Cl    0.332440 0.755236 0.141027 -0.476826
Cl7   Cl    Cl    0.409278 0.201328 0.157147 -0.492669
Cl8   Cl    Cl    0.599296 0.658315 0.239806 -0.468039
Cl9   Cl    Cl    0.654905 0.927327 0.176837 -0.430321
Cl10  Cl    Cl    0.361696 0.916539 0.172342 -0.427943
Cl11  Cl    Cl    0.350739 0.075509 0.219295 -0.425966
Cl12  Cl    Cl    0.656096 0.817346 0.259779 -0.427189

loop_
_geom_bond_atom_site_label_1
_geom_bond_atom_site_label_2
_ccdc_geom_bond_type
Cu2   O6    S    
Cu2   O7    S    
C63   H10   S    
C31   O7    A    
C60   C73   A    
C24   Cl10  S    
C67   Cl2   S    
C1    O1    A    
C7    C70   S    
C53   C59   A    
C47   C49   T    
C54   C60   A    
Cu3   Cu4   S    
C40   C46   S    
C20   H14   S    
C4    C63   A    
C33   C39   S    
C53   H6    S    
C64   C68   A    
C17   C35   A    
C61   H4    S    
C16   C35   A    
C32   C74   S    
C68   Cl3   S    
C11   C71   S    
C26   C39   A    
C31   C73   S    
C57   O14   A    
C45   C51   S    
C2    O4    A    
C69   Cl4   S    
C50   O12   A    
C24   C39   A    
Cu4   O10   S    
C26   Cl12  S    
C37   C42   S    
Cu3   O13   S    
C25   Cl11  S    
C5    C69   A    
C15   C19   A    
C54   C71   A    
C30   Cl8   S    
C51   O10   A    
C29   Cl7   S    
Cu1   O4    S    
C32   O6    A    
C30   C41   A    
C23   C27   A    
C15   C34   A    
C55   C72   A    
C8    C12   T    
C6    C68   A    
C12   C72   S    
C2    O2    A    
C51   O11   A    
C32   O8    A    
Cu1   O5    S    
C22   H16   S    
C3    C65   A    
C42   C44   T    
C64   H11   S    
Cu3   O15   S    
C46   C48   T    
C25   C29   A    
C65   H12   S    
C63   C67   A    
C16   H18   S    
C66   Cl1   S    
C62   C66   A    
Cu3   O9    S    
C9    C70   S    
C28   Cl6   S    
C9    C14   T    
C57   O15   A    
C17   C21   A    
C31   O5    A    
C52   H5    S    
C7    C11   T    
Cu1   Cu2   S    
C25   C38   A    
C43   C45   T    
C60   H3    S    
C27   C40   A    
C16   C20   A    
Cu1   O1    S    
C33   C34   S    
C41   C47   S    
Cu4   O12   S    
Cu3   O11   S    
C18   C34   A    
C59   C74   A    
C3    C14   S    
C52   C58   A    
C58   H1    S    
C10   C70   S    
C6    C67   A    
C26   C30   A    
C50   O9    A    
C1    O3    A    
C3    C62   A    
C44   C50   S    
Cu2   O3    S    
Cu4   O16   S    
C56   O13   A    
C18   C22   A    
C24   C28   A    
C5    C66   A    
C10   C13   T    
C59   H2    S    
C54   H7    S    
C23   Cl9   S    
C27   Cl5   S    
C61   C74   A    
Cu2   O2    S    
C23   C38   A    
C22   C36   A    
C62   H9    S    
C4    C64   A    
C8    C70   S    
C33   C38   S    
C19   C36   A    
C55   H8    S    
C52   C71   A    
C15   H17   S    
C20   C37   A    
C21   H15   S    
C65   C69   A    
C55   C61   A    
C29   C40   A    
C33   C35   S    
C19   H13   S    
C21   C37   A    
C58   C73   A    
Cu1   O8    S    
C56   O16   A    
C36   C43   S    
Cu4   O14   S    
C18   H20   S    
C53   C72   A    
C17   H19   S    
C28   C41   A    
C4    C13   S    
