data_mof_unit_pretest_762.cif
_audit_creation_date              2012-12-11T15:55:49-0500
_audit_creation_method            fapswitch 2.2
_symmetry_space_group_name_H-M    P1
_symmetry_Int_Tables_number       1
_space_group_crystal_system       triclinic
_cell_length_a                    6.936948
_cell_length_b                    14.556492
_cell_length_c                    16.05686
_cell_angle_alpha                 90.010587
_cell_angle_beta                  89.893487
_cell_angle_gamma                 90.02055
_cell_volume                      1621.38070357

loop_
_atom_site_label
_atom_site_type_symbol
_atom_type_description
_atom_site_fract_x
_atom_site_fract_y
_atom_site_fract_z
_atom_type_partial_charge
O1    O     O_R   0.505680 0.583900 0.413320 -0.541796
O2    O     O_R   0.176010 0.594950 0.586080 -0.525762
O3    O     O_R   0.005680 0.416100 0.586680 -0.541242
C1    C     C_R   0.344988 0.617055 0.614876 0.701637
O4    O     O_R   0.175960 0.594930 0.413930 -0.535343
O5    O     O_R   0.005640 0.416080 0.413300 -0.521781
C2    C     C_R   0.345195 0.617597 0.385373 0.744046
O6    O     O_R   0.505720 0.583920 0.586700 -0.546126
O7    O     O_3   0.339190 0.441320 0.500000 -0.350058
V1    V     V_3+5 0.064350 0.510890 0.500000 1.518082
O8    O     O_R   0.675920 0.405050 0.413920 -0.532174
C3    C     C_R   0.845444 0.384793 0.383355 0.735432
O9    O     O_R   0.675960 0.405070 0.586070 -0.538989
C4    C     C_R   0.844619 0.382669 0.614636 0.716307
V2    V     V_3+5 0.564340 0.489110 0.500000 1.504896
O10   O     O_3   0.839370 0.558680 0.500000 -0.368247
C5    C     C_R   0.004267 0.249018 0.686885 0.103809
C6    C     C_R   0.851989 0.311927 0.680995 -0.125236
C7    C     C_R   0.701555 0.303531 0.739655 -0.108125
H1    H     H_    0.579519 0.349468 0.737137 0.125186
C8    C     C_R   0.713439 0.239970 0.805734 -0.176441
H2    H     H_    0.599460 0.238303 0.851746 0.129674
C9    C     C_R   0.876907 0.183556 0.815520 -0.116964
C10   C     C_R   0.017027 0.187132 0.752772 0.139128
C11   C     C_3   0.229955 0.198329 0.758815 -0.433698
C12   C     C_3   0.216464 0.264424 0.685525 -0.005266
H3    H     H_    0.308473 0.133643 0.744833 0.199219
H4    H     H_    0.272238 0.232557 0.817854 0.148691
H5    H     H_    0.255149 0.336406 0.701369 0.107718
C13   C     C_R   0.030160 0.247650 0.195940 -0.159473
H6    H     H_    0.155099 0.245982 0.155395 0.144880
C14   C     C_R   0.021022 0.314131 0.258879 0.155011
C15   C     C_R   0.858708 0.317947 0.313078 -0.083149
C16   C     C_R   0.706503 0.255789 0.299401 -0.135043
H7    H     H_    0.580268 0.256501 0.339197 0.164915
C17   C     C_R   0.715461 0.191151 0.234900 -0.130314
H8    H     H_    0.595681 0.144328 0.226470 0.130056
C18   C     C_R   0.878443 0.185798 0.183025 -0.078503
C19   C     C_R   0.272648 0.774009 0.672739 0.102097
C20   C     C_R   0.280459 0.839655 0.737728 -0.010243
C21   C     C_R   0.378009 0.818729 0.812945 -0.135108
C22   C     C_R   0.466606 0.732856 0.821425 -0.127964
H9    H     H_    0.540650 0.717287 0.879119 0.160109
C23   C     C_R   0.454802 0.665745 0.758433 -0.021840
C24   C     C_R   0.356257 0.686084 0.683209 -0.152451
C25   C     C_R   0.188347 0.725334 0.283279 -0.114219
H10   H     H_    0.047743 0.707172 0.307617 0.123158
C26   C     C_R   0.199358 0.788769 0.217916 -0.136138
H11   H     H_    0.066706 0.817701 0.194071 0.118411
C27   C     C_R   0.378778 0.814553 0.184005 -0.046130
C28   C     C_R   0.546881 0.775195 0.217369 -0.140237
H12   H     H_    0.687503 0.793368 0.193061 0.118029
C29   C     C_R   0.535859 0.711745 0.282722 -0.123399
H13   H     H_    0.668496 0.682800 0.306574 0.121718
C30   C     C_R   0.356438 0.685932 0.316580 -0.035465
O11   O     O_R   0.229200 0.915950 0.913350 -0.505360
O12   O     O_R   0.559090 0.905000 0.086080 -0.548097
O13   O     O_R   0.729280 0.083880 0.086680 -0.545140
C31   C     C_R   0.389962 0.882762 0.115052 0.678049
O14   O     O_R   0.558920 0.904980 0.913920 -0.537328
O15   O     O_R   0.729110 0.083860 0.913300 -0.543117
C32   C     C_R   0.390031 0.885244 0.883256 0.735213
O16   O     O_R   0.229360 0.915970 0.086730 -0.544668
O17   O     O_3   0.395680 0.058580 0.000030 -0.379810
V3    V     V_3+5 0.670570 0.989070 0.999990 1.461809
O18   O     O_R   0.058820 0.094950 0.913870 -0.532124
C33   C     C_R   0.889774 0.117464 0.885488 0.772680
O19   O     O_R   0.058990 0.094970 0.086020 -0.548478
C34   C     C_R   0.889760 0.116894 0.115005 0.681779
V4    V     V_3+5 0.170560 0.010930 0.999930 1.472763
O20   O     O_3   0.895590 0.941310 0.999960 -0.361918
I1    I     I_    0.137273 0.809782 0.556984 -0.385337
C35   C     C_2   0.194704 0.931391 0.723740 0.365369
H14   H     H_    0.239529 0.972098 0.670513 0.095024
O21   O     O_2   0.066404 0.960087 0.768745 -0.522094
C36   C     C_2   0.540044 0.573495 0.773754 0.383918
H15   H     H_    0.511758 0.516797 0.731822 0.015526
O22   O     O_2   0.642350 0.559281 0.834217 -0.528440
I2    I     I_    0.342792 0.211189 0.573619 -0.372558
I3    I     I_    0.255048 0.408734 0.259604 -0.422947

loop_
_geom_bond_atom_site_label_1
_geom_bond_atom_site_label_2
_ccdc_geom_bond_type
C35   H14   S    
C4    C6    S    
C7    H1    S    
C2    C30   S    
C1    O6    A    
C29   H13   S    
C11   H4    S    
C27   C31   S    
C17   H8    S    
C7    C8    A    
C36   O22   D    
C16   H7    S    
O5    C3    A    
C13   H6    S    
O12   C31   A    
V2    O10   S    
C20   C35   S    
C13   C18   A    
O14   C32   A    
C6    C7    A    
C21   C22   A    
C9    C33   S    
C23   C36   S    
O8    V2    S    
O19   C34   A    
C25   C30   A    
C9    C10   A    
V4    O20   S    
O1    V2    S    
O17   V4    S    
O7    V1    S    
C19   C24   A    
C26   C27   A    
O18   C33   A    
C18   C34   S    
O9    C4    A    
C35   O21   D    
C22   C23   A    
C21   C32   S    
C15   C16   A    
C1    C24   S    
C29   C30   A    
C25   C26   A    
C5    C10   A    
C28   H12   S    
C10   C11   S    
C19   C20   A    
O4    C2    A    
C27   C28   A    
C11   C12   S    
V3    O20   S    
C28   C29   A    
O2    C1    A    
C14   I3    S    
O15   C33   A    
O13   V3    S    
O16   V4    S    
C19   I1    S    
C5    C6    A    
C36   H15   S    
O3    C4    A    
C20   C21   A    
O14   V3    S    
O6    V2    S    
O11   V4    S    
C8    C9    A    
O9    V2    S    
O11   C32   A    
C22   H9    S    
C5    C12   S    
O2    V1    S    
C23   C24   A    
C25   H10   S    
C26   H11   S    
O1    C2    A    
O12   V3    S    
O5    V1    S    
O8    C3    A    
O13   C34   A    
C11   H3    S    
C31   O16   A    
C12   I2    S    
O17   V3    S    
C17   C18   A    
O7    V2    S    
O4    V1    S    
O3    V1    S    
V1    O10   S    
C14   C15   A    
C13   C14   A    
O18   V4    S    
C16   C17   A    
O15   V3    S    
C12   H5    S    
O19   V4    S    
C3    C15   S    
C8    H2    S    
