data_mof_unit_pretest_1685.cif
_audit_creation_date              2012-12-10T17:05:08-0500
_audit_creation_method            fapswitch 2.2
_symmetry_space_group_name_H-M    P1
_symmetry_Int_Tables_number       1
_space_group_crystal_system       triclinic
_cell_length_a                    15.072612
_cell_length_b                    15.060891
_cell_length_c                    19.413615
_cell_angle_alpha                 89.486078
_cell_angle_beta                  91.180052
_cell_angle_gamma                 90.401454
_cell_volume                      4405.81136196

loop_
_atom_site_label
_atom_site_type_symbol
_atom_type_description
_atom_site_fract_x
_atom_site_fract_y
_atom_site_fract_z
_atom_type_partial_charge
Br1   Br    Br    0.660277 0.163444 0.551504 -0.428065
Br2   Br    Br    0.284028 0.189826 0.493669 -0.436918
Br3   Br    Br    0.425757 0.647170 0.019640 -0.418931
Br4   Br    Br    0.671358 0.549455 0.921247 -0.433056
C1    C     C_R   0.485138 0.260025 0.509433 0.569247
C2    C     C_2   0.505836 0.473242 0.018500 -0.087911
C3    C     C_2   0.474088 0.541347 0.980518 0.181693
C4    C     C_R   0.515993 0.739717 0.489165 0.554827
C5    C     C_R   0.482380 0.521919 0.762042 -0.021558
C6    C     C_R   0.476267 0.163435 0.508665 0.045615
C7    C     C_R   0.528751 0.835399 0.482655 0.046398
C8    C     C_R   0.623905 0.967147 0.481806 -0.004714
C9    C     C_R   0.614604 0.873655 0.479291 -0.021659
C10   C     C_R   0.453916 0.888706 0.483564 -0.134399
C11   C     C_R   0.462616 0.980257 0.489469 -0.030101
C12   C     C_R   0.507148 0.473540 0.093810 0.029062
C13   C     C_R   0.548014 0.020202 0.493809 0.055500
C14   C     C_R   0.553622 0.111474 0.510456 0.159588
C15   C     C_R   0.392359 0.123281 0.499403 0.131002
C16   C     C_R   0.259961 0.512521 0.488414 0.504739
C17   C     C_R   0.386075 0.031807 0.492492 -0.093743
C18   C     C_R   0.163475 0.512852 0.481226 0.034573
C19   C     C_R   0.835525 0.482410 0.517730 0.044753
C20   C     C_R   0.968090 0.471313 0.589414 -0.108358
C21   C     C_R   0.876059 0.469756 0.582570 -0.101516
C22   C     C_R   0.886550 0.497735 0.459521 -0.095192
C23   C     C_R   0.588238 0.465515 0.129414 -0.042344
C24   C     C_R   0.978804 0.502774 0.466310 0.048574
C25   C     C_R   0.019870 0.488432 0.531691 0.045276
C26   C     C_R   0.111999 0.492387 0.538440 -0.099059
C27   C     C_R   0.122579 0.529471 0.416863 -0.109259
C28   C     C_R   0.739722 0.486627 0.511893 0.520408
C29   C     C_R   0.030616 0.523544 0.409258 -0.112179
C30   C     C_R   0.489028 0.512573 0.687327 0.483081
C31   C     C_R   0.510621 0.490143 0.312597 0.487579
C32   C     C_R   0.512641 0.484354 0.237466 0.012162
C33   C     C_R   0.431457 0.489501 0.201094 -0.102966
C34   C     C_R   0.592553 0.472175 0.201465 0.010930
C35   C     C_R   0.428609 0.483407 0.129831 -0.068369
C36   C     C_2   0.709102 0.007973 0.460265 0.293674
C37   C     C_2   0.694016 0.816930 0.469277 0.248352
C38   C     C_2   0.313670 0.526661 0.756111 0.264828
C39   C     C_2   0.680816 0.471756 0.237124 0.270423
C40   C     C_R   0.560163 0.536956 0.872062 0.166840
C41   C     C_R   0.561566 0.529228 0.800808 -0.086319
C42   C     C_R   0.399559 0.525379 0.795222 -0.000107
C43   C     C_R   0.399000 0.532314 0.867159 -0.083345
C44   C     C_R   0.478394 0.537203 0.905451 0.027921
H1    H     H_    0.369833 0.497575 0.228072 0.141765
H2    H     H_    0.836312 0.458649 0.627761 0.139238
H3    H     H_    0.854227 0.509139 0.409804 0.126831
H4    H     H_    0.648417 0.457959 0.100444 0.192899
H5    H     H_    0.537282 0.417870 0.993255 0.135633
H6    H     H_    0.365254 0.487325 0.102632 0.158747
H7    H     H_    0.771945 0.983668 0.480619 0.107146
H8    H     H_    0.757878 0.835684 0.491526 0.097260
H9    H     H_    0.311454 0.539092 0.701055 0.123202
H10   H     H_    0.688216 0.492653 0.290202 0.132195
H11   H     H_    0.336551 0.534373 0.893827 0.193159
H12   H     H_    0.320990 0.001142 0.487502 0.160888
H13   H     H_    0.388487 0.858107 0.483611 0.126166
H14   H     H_    0.143682 0.480384 0.588312 0.139964
H15   H     H_    0.161899 0.544758 0.372150 0.145543
H16   H     H_    0.998624 0.460799 0.639830 0.143254
H17   H     H_    0.625009 0.528126 0.775551 0.168174
H18   H     H_    0.000091 0.535354 0.359012 0.139074
O1    O     O_3   0.500000 0.500000 0.500000 -0.466739
O2    O     O_R   0.437070 0.459640 0.654640 -0.545702
O3    O     O_R   0.556790 0.436390 0.349710 -0.547476
O4    O     O_R   0.547170 0.557950 0.655150 -0.540731
O5    O     O_R   0.458970 0.546010 0.340500 -0.527281
O6    O     O_2   0.709533 0.067919 0.417479 -0.418308
O7    O     O_2   0.689310 0.749549 0.434820 -0.486357
O8    O     O_2   0.243480 0.515146 0.785345 -0.481682
O9    O     O_2   0.747242 0.449041 0.207094 -0.470304
O10   O     O_R   0.306870 0.560460 0.447950 -0.549589
O11   O     O_R   0.697260 0.434930 0.470830 -0.516970
O12   O     O_R   0.434240 0.306870 0.546470 -0.494150
O13   O     O_R   0.561630 0.697750 0.534750 -0.518224
O14   O     O_R   0.542340 0.296600 0.470110 -0.496116
O15   O     O_R   0.461800 0.698790 0.448670 -0.530717
O16   O     O_R   0.296600 0.461110 0.533510 -0.528224
O17   O     O_R   0.699270 0.543500 0.547710 -0.527603
Zn1   Zn    Zn3+2 0.433070 0.575010 0.435400 0.970303
Zn2   Zn    Zn3+2 0.418400 0.433070 0.557650 0.990583
Zn3   Zn    Zn3+2 0.575700 0.573520 0.558390 0.982077
Zn4   Zn    Zn3+2 0.572830 0.418400 0.448560 1.015095

loop_
_geom_bond_atom_site_label_1
_geom_bond_atom_site_label_2
_ccdc_geom_bond_type
C5    C41   A    
C16   O16   A    
C31   C32   S    
O10   Zn1   S    
C9    C37   S    
C40   C41   A    
Br1   C14   S    
C32   C33   A    
C15   C17   A    
O14   Zn4   S    
Br3   C3    S    
C7    C10   A    
C35   H6    S    
C23   C34   A    
C16   O10   A    
C38   C42   S    
C19   C22   A    
C20   C25   A    
C39   H10   S    
C28   O11   A    
C21   H2    S    
C8    C13   A    
C4    O13   A    
C27   C29   A    
C36   O6    D    
C30   O4    A    
O3    Zn4   S    
C12   C23   A    
C31   O5    A    
C5    C42   A    
C20   H16   S    
O2    Zn2   S    
C38   H9    S    
C1    C6    S    
C29   H18   S    
C39   O9    D    
O1    Zn2   S    
C43   H11   S    
C38   O8    D    
C18   C27   A    
C4    O15   A    
C27   H15   S    
C20   C21   A    
C17   H12   S    
C30   O2    A    
Br4   C40   S    
C10   H13   S    
C2    C12   S    
C8    C36   S    
C37   H8    S    
C25   C26   A    
C33   H1    S    
C43   C44   A    
C6    C15   A    
C36   H7    S    
C13   C14   A    
C1    O14   A    
O11   Zn4   S    
O12   Zn2   S    
C16   C18   S    
C24   C29   A    
C26   H14   S    
C41   H17   S    
C5    C30   S    
C2    H5    S    
O4    Zn3   S    
O15   Zn1   S    
C23   H4    S    
O5    Zn1   S    
C11   C13   A    
C28   O17   A    
C42   C43   A    
C24   C25   A    
O1    Zn3   S    
C18   C26   A    
Br2   C15   S    
O1    Zn4   S    
C2    C3    D    
O16   Zn2   S    
C22   C24   A    
C3    C44   S    
C32   C34   A    
C34   C39   S    
C33   C35   A    
C22   H3    S    
C19   C28   S    
C7    C9    A    
O1    Zn1   S    
C6    C14   A    
C4    C7    S    
C19   C21   A    
C12   C35   A    
C37   O7    D    
C11   C17   A    
O17   Zn3   S    
C8    C9    A    
C31   O3    A    
C10   C11   A    
C1    O12   A    
O13   Zn3   S    
C40   C44   A    
