data_mof_unit_pretest_728.cif
_audit_creation_date              2012-10-26T19:04:17-0400
_audit_creation_method            fapswitch 2.2
_symmetry_space_group_name_H-M    P1
_symmetry_Int_Tables_number       1
_space_group_crystal_system       triclinic
_cell_length_a                    14.579309
_cell_length_b                    15.935061
_cell_length_c                    9.632857
_cell_angle_alpha                 90.168447
_cell_angle_beta                  89.475121
_cell_angle_gamma                 89.788568
_cell_volume                      2237.80728413

loop_
_atom_site_label
_atom_site_type_symbol
_atom_type_description
_atom_site_fract_x
_atom_site_fract_y
_atom_site_fract_z
_atom_type_partial_charge
C1    C     C_R   0.376438 0.885396 0.501249 0.516690
C2    C     C_R   0.733264 0.205663 0.389795 -0.172330
C3    C     C_R   0.266761 0.322071 0.437336 -0.161180
C4    C     C_R   0.233262 0.705664 0.389794 -0.172330
C5    C     C_R   0.680624 0.810574 0.498496 0.006230
C6    C     C_R   0.669386 0.198024 0.497864 -0.009676
C7    C     C_R   0.180623 0.310574 0.498497 0.006226
C8    C     C_R   0.169386 0.698024 0.497864 -0.009676
C9    C     C_R   0.663725 0.977783 0.147748 -0.096097
C10   C     C_R   0.163725 0.477786 0.147749 -0.096098
C11   C     C_R   0.737559 0.938082 0.086835 -0.209443
C12   C     C_R   0.379760 0.117261 0.500302 0.518957
C13   C     C_R   0.237562 0.438089 0.086835 -0.209444
C14   C     C_R   0.738552 0.926368 0.945915 -0.152066
C15   C     C_R   0.238555 0.426375 0.945916 -0.152063
C16   C     C_R   0.672151 0.967456 0.862892 0.312109
C17   C     C_R   0.172152 0.467459 0.862892 0.312109
C18   C     C_R   0.583071 0.985813 0.925672 0.165567
C19   C     C_R   0.083072 0.485815 0.925672 0.165566
C20   C     C_R   0.581321 0.988233 0.075353 0.119499
C21   C     C_R   0.081321 0.488234 0.075353 0.119499
C22   C     C_R   0.422359 0.012320 0.074708 -0.000629
C23   C     C_R   0.876438 0.385396 0.501249 0.516690
C24   C     C_R   0.922359 0.512319 0.074708 -0.000629
C25   C     C_R   0.612284 0.123343 0.499570 0.544596
C26   C     C_R   0.617846 0.880809 0.499444 0.548912
C27   C     C_R   0.112284 0.623343 0.499570 0.544596
C28   C     C_R   0.117846 0.380808 0.499444 0.548909
C29   C     C_R   0.422570 0.013378 0.927273 -0.018553
C30   C     C_R   0.922569 0.513377 0.927273 -0.018551
C31   C     C_R   0.193785 0.086506 0.602300 -0.108676
C32   C     C_R   0.230568 0.878168 0.725396 -0.116489
C33   C     C_R   0.693780 0.586502 0.602272 -0.108676
C34   C     C_R   0.879761 0.617262 0.500302 0.518957
C35   C     C_R   0.730564 0.378172 0.725389 -0.116490
C36   C     C_R   0.105466 0.073043 0.654475 -0.130923
C37   C     C_R   0.160893 0.874923 0.825144 -0.140162
C38   C     C_R   0.605458 0.573036 0.654434 -0.130922
C39   C     C_R   0.660888 0.374928 0.825135 -0.140161
C40   C     C_R   0.542435 0.638694 0.659878 -0.128492
C41   C     C_R   0.590434 0.317431 0.812166 -0.128151
C42   C     C_R   0.042443 0.138701 0.659916 -0.128493
C43   C     C_R   0.090439 0.817427 0.812174 -0.128149
C44   C     C_R   0.566658 0.717681 0.610305 -0.103024
C45   C     C_R   0.331041 0.258191 0.439384 -0.157978
C46   C     C_R   0.591260 0.260716 0.702300 -0.094982
C47   C     C_R   0.066663 0.217686 0.610329 -0.103026
C48   C     C_R   0.091262 0.760714 0.702304 -0.094980
C49   C     C_R   0.655605 0.732497 0.556190 0.023362
C50   C     C_R   0.664660 0.258902 0.604834 0.029922
C51   C     C_R   0.155607 0.232499 0.556203 0.023361
C52   C     C_R   0.164661 0.758900 0.604837 0.029923
C53   C     C_R   0.220506 0.166402 0.554660 0.025846
C54   C     C_R   0.233875 0.820994 0.612203 0.026028
C55   C     C_R   0.720503 0.666400 0.554646 0.025845
C56   C     C_R   0.298227 0.768096 0.392712 -0.160913
C57   C     C_R   0.733874 0.320995 0.612200 0.026025
C58   C     C_R   0.309252 0.181350 0.500020 0.003429
C59   C     C_R   0.301792 0.824292 0.504189 -0.011722
C60   C     C_R   0.809253 0.681350 0.500020 0.003432
C61   C     C_R   0.801792 0.324292 0.504189 -0.011722
C62   C     C_3   0.791185 0.989052 0.695924 -0.016969
C63   C     C_3   0.814330 0.036381 0.563895 -0.376001
C64   C     C_3   0.291182 0.489047 0.695914 -0.016966
C65   C     C_3   0.314325 0.536370 0.563877 -0.376001
C66   C     C_R   0.831045 0.758194 0.439396 -0.157978
C67   C     C_R   0.798229 0.268095 0.392713 -0.160912
C68   C     C_R   0.766766 0.822075 0.437347 -0.161180
Cu1   Cu    Cu3+1 0.499990 0.000000 0.640660 0.964984
Cu2   Cu    Cu3+1 0.999990 0.500000 0.640660 0.964983
Cu3   Cu    Cu3+1 0.500010 0.000000 0.359340 0.924323
Cu4   Cu    Cu3+1 0.000010 0.500000 0.359340 0.924322
H1    H     H_    0.398521 0.268958 0.394823 0.120189
H2    H     H_    0.279082 0.927624 0.739264 0.134502
H3    H     H_    0.740148 0.533819 0.595463 0.111186
H4    H     H_    0.779077 0.427629 0.739255 0.134502
H5    H     H_    0.085233 0.011367 0.689261 0.120912
H6    H     H_    0.159862 0.919491 0.910226 0.107874
H7    H     H_    0.585223 0.511359 0.689210 0.120915
H8    H     H_    0.659855 0.419499 0.910214 0.107876
H9    H     H_    0.474042 0.628074 0.700562 0.109731
H10   H     H_    0.534315 0.317403 0.886559 0.109861
H11   H     H_    0.974052 0.128082 0.700609 0.109731
H12   H     H_    0.348632 0.770093 0.309388 0.145147
H13   H     H_    0.034320 0.817397 0.886569 0.109861
H14   H     H_    0.514619 0.766095 0.612434 0.139671
H15   H     H_    0.532346 0.220305 0.693153 0.143792
H16   H     H_    0.014624 0.266098 0.612457 0.139675
H17   H     H_    0.032347 0.720304 0.693156 0.143791
H18   H     H_    0.785199 0.881549 0.391251 0.099237
H19   H     H_    0.736150 0.160348 0.305717 0.130282
H20   H     H_    0.285193 0.381543 0.391231 0.099240
H21   H     H_    0.236148 0.660350 0.305714 0.130284
H22   H     H_    0.358411 0.022216 0.130290 0.119545
H23   H     H_    0.898528 0.768963 0.394844 0.120184
H24   H     H_    0.858411 0.522214 0.130290 0.119545
H25   H     H_    0.673022 0.996834 0.252597 0.179758
H26   H     H_    0.173021 0.496835 0.252598 0.179759
H27   H     H_    0.796708 0.920760 0.147689 0.118266
H28   H     H_    0.296711 0.420769 0.147690 0.118262
H29   H     H_    0.804616 0.921373 0.675642 0.128574
H30   H     H_    0.838043 0.013468 0.777208 0.117027
H31   H     H_    0.814336 0.104658 0.585883 0.156944
H32   H     H_    0.884011 0.018184 0.526941 0.092499
H33   H     H_    0.764495 0.021413 0.481355 0.147652
H34   H     H_    0.848635 0.270090 0.309391 0.145146
H35   H     H_    0.304610 0.421366 0.675639 0.128574
H36   H     H_    0.338044 0.513465 0.777191 0.117027
H37   H     H_    0.314336 0.604647 0.585858 0.156938
H38   H     H_    0.384002 0.518167 0.526916 0.092494
H39   H     H_    0.264483 0.521402 0.481345 0.147656
H40   H     H_    0.799608 0.897050 0.903348 0.096012
H41   H     H_    0.299613 0.397059 0.903350 0.096010
H42   H     H_    0.359052 0.025170 0.873716 0.102619
H43   H     H_    0.859052 0.525167 0.873716 0.102620
H44   H     H_    0.240153 0.033823 0.595493 0.111189
N1    N     N_R   0.501200 0.000000 0.147910 -0.240936
N2    N     N_R   0.001200 0.500000 0.147910 -0.240936
N3    N     N_R   0.501270 0.000000 0.852040 -0.239015
N4    N     N_R   0.001270 0.500000 0.852040 -0.239015
O1    O     O_R   0.409820 0.909830 0.618810 -0.526508
O2    O     O_R   0.590170 0.909830 0.618760 -0.454340
O3    O     O_R   0.090170 0.590170 0.618760 -0.434667
O4    O     O_R   0.090170 0.409830 0.618760 -0.454341
O5    O     O_R   0.590190 0.090180 0.381190 -0.533647
O6    O     O_R   0.590190 0.909820 0.381190 -0.516665
O7    O     O_R   0.090190 0.590180 0.381190 -0.533649
O8    O     O_R   0.090190 0.409820 0.381190 -0.516665
O9    O     O_3   0.697665 0.001472 0.734658 -0.495273
O10   O     O_3   0.197665 0.501473 0.734656 -0.495271
O11   O     O_R   0.409820 0.090170 0.618810 -0.527458
O12   O     O_R   0.909820 0.409830 0.618810 -0.526507
O13   O     O_R   0.909820 0.590170 0.618810 -0.527457
O14   O     O_R   0.409840 0.909830 0.381240 -0.497509
O15   O     O_R   0.409840 0.090170 0.381240 -0.501260
O16   O     O_R   0.909840 0.409830 0.381240 -0.497509
O17   O     O_R   0.909840 0.590170 0.381240 -0.501259
O18   O     O_R   0.590170 0.090170 0.618760 -0.434668

loop_
_geom_bond_atom_site_label_1
_geom_bond_atom_site_label_2
_ccdc_geom_bond_type
C44   C49   A    
C33   C55   A    
C22   N1    A    
C66   C68   A    
C29   H42   S    
C22   C29   A    
C36   C42   A    
C4    C8    A    
Cu3   O14   S    
C39   C41   A    
C14   H40   S    
C29   N3    A    
C62   C63   S    
C23   O16   A    
Cu4   O8    S    
C11   H27   S    
C12   O11   A    
C3    C7    A    
C36   H5    S    
C1    C59   S    
Cu3   O15   S    
C11   C14   A    
Cu4   O16   S    
C6    C25   S    
C38   H7    S    
C45   H1    S    
C26   O6    A    
Cu1   Cu3   S    
C25   O5    A    
C65   H39   S    
C27   O7    A    
Cu2   O3    S    
C33   H3    S    
Cu2   N4    S    
C12   O15   A    
Cu2   O13   S    
C68   H18   S    
C41   C46   A    
C15   H41   S    
Cu3   O6    S    
C56   H12   S    
C63   H33   S    
C43   C48   A    
C8    C52   A    
C40   C44   A    
C30   H43   S    
C62   H29   S    
C12   C58   S    
C60   C66   A    
C38   C40   A    
C55   C60   A    
C4    C56   A    
C34   C60   S    
C22   H22   S    
C62   O9    S    
C5    C49   A    
C2    C6    A    
C5    C68   A    
C44   H14   S    
C32   C54   A    
C20   N1    A    
C52   C54   A    
C64   H36   S    
C24   C30   A    
C54   C59   A    
C10   C21   A    
C35   H4    S    
C45   C58   A    
Cu3   N1    S    
Cu4   O7    S    
C43   H13   S    
C63   H31   S    
C2    C67   A    
C27   O3    A    
C47   C51   A    
C34   O13   A    
C49   C55   A    
C3    C45   A    
C31   C53   A    
C7    C28   S    
C4    H21   S    
C3    H20   S    
C51   C53   A    
C37   C43   A    
C35   C39   A    
C21   N2    A    
C61   C67   A    
C9    C20   A    
Cu1   O1    S    
Cu1   O11   S    
Cu2   O12   S    
C32   C37   A    
C6    C50   A    
C16   O9    S    
C9    C11   A    
C65   H37   S    
Cu4   O17   S    
C64   O10   S    
C19   N4    A    
C48   H17   S    
C13   C15   A    
C14   C16   A    
C1    O14   A    
C31   H44   S    
C64   H35   S    
C46   H15   S    
C23   C61   S    
Cu1   O18   S    
C15   C17   A    
C9    H25   S    
C19   C21   A    
C17   O10   S    
C50   C57   A    
C40   H9    S    
C42   H11   S    
C63   H32   S    
C10   C13   A    
C53   C58   A    
C28   O4    A    
C67   H34   S    
C57   C61   A    
C10   H26   S    
C37   H6    S    
C46   C50   A    
C34   O17   A    
C24   N2    A    
C33   C38   A    
C56   C59   A    
C35   C57   A    
C47   H16   S    
C13   H28   S    
C24   H24   S    
C25   O18   A    
C7    C51   A    
C39   H8    S    
C32   H2    S    
C30   N4    A    
Cu1   O2    S    
C41   H10   S    
C64   C65   S    
C17   C19   A    
Cu1   N3    S    
C23   O12   A    
C18   C20   A    
C42   C47   A    
C2    H19   S    
C1    O1    A    
C65   H38   S    
C5    C26   S    
Cu2   O4    S    
C48   C52   A    
C16   C18   A    
Cu4   N2    S    
C8    C27   S    
C31   C36   A    
Cu3   O5    S    
Cu2   Cu4   S    
C26   O2    A    
C18   N3    A    
C28   O8    A    
C66   H23   S    
C62   H30   S    
