data_mof_unit_pretest_845.cif
_audit_creation_date              2012-12-10T19:00:47-0500
_audit_creation_method            fapswitch 2.2
_symmetry_space_group_name_H-M    P1
_symmetry_Int_Tables_number       1
_space_group_crystal_system       triclinic
_cell_length_a                    15.000034
_cell_length_b                    10.837353
_cell_length_c                    9.6456
_cell_angle_alpha                 90.40348
_cell_angle_beta                  89.53269
_cell_angle_gamma                 92.89367
_cell_volume                      1565.90925199

loop_
_atom_site_label
_atom_site_type_symbol
_atom_type_description
_atom_site_fract_x
_atom_site_fract_y
_atom_site_fract_z
_atom_type_partial_charge
C1    C     C_R   0.500139 0.262485 0.499580 0.851464
C2    C     C_R   0.911539 0.621978 0.464276 -0.028081
C3    C     C_R   0.943825 0.296548 0.575968 0.595554
C4    C     C_R   0.036248 0.295055 0.578059 -0.205204
C5    C     C_R   0.088610 0.400261 0.540805 -0.057140
C6    C     C_R   0.047522 0.509629 0.500994 -0.051161
C7    C     C_R   0.100519 0.615554 0.461678 0.043275
C8    C     C_R   0.059480 0.724930 0.424415 0.061128
C9    C     C_R   0.965936 0.727596 0.426372 0.602553
C10   C     C_R   0.181571 0.397703 0.542272 0.548077
C11   C     C_R   0.233189 0.501703 0.501455 -0.154707
C12   C     C_R   0.329306 0.499205 0.500478 0.858298
C13   C     C_R   0.193730 0.609056 0.460762 -0.281119
C14   C     C_R   0.499330 0.064232 0.624271 -0.034866
C15   C     C_R   0.495364 0.128355 0.499078 -0.220257
C16   C     C_R   0.481656 0.060573 0.374949 0.603728
C17   C     C_R   0.479427 0.932231 0.376533 -0.223080
C18   C     C_R   0.492602 0.869635 0.500822 -0.262394
C19   C     C_R   0.498054 0.936588 0.624616 0.065961
C20   C     C_3   0.566758 0.932761 0.735226 0.510458
C21   C     C_3   0.569384 0.073558 0.734992 -0.172080
C22   C     C_R   0.554759 0.581051 0.072957 0.198055
C23   C     C_R   0.499054 0.737089 0.500365 0.823777
C24   C     C_R   0.438831 0.427325 0.074444 0.225981
C25   C     C_R   0.436719 0.430779 0.925532 0.162735
C26   C     C_R   0.555518 0.579748 0.926805 0.223415
C27   C     C_3   0.654776 0.590301 0.919450 -0.509999
C28   C     C_3   0.654229 0.592595 0.076858 0.417099
C29   C     C_R   0.670739 0.502337 0.499677 0.792204
C30   C     C_R   0.816469 0.621864 0.467672 0.102498
C31   C     C_R   0.767440 0.510613 0.499560 -0.079595
C32   C     C_R   0.809801 0.404570 0.535517 -0.220229
C33   C     C_R   0.902220 0.404162 0.537735 0.027310
C34   C     C_R   0.953688 0.512198 0.500679 -0.094167
Cu1   Cu    Cu3+1 0.500000 0.499980 0.640670 0.967040
Cu2   Cu    Cu3+1 0.500000 0.500020 0.359330 0.991328
H1    H     H_    0.471645 0.882612 0.279134 0.218709
H2    H     H_    0.629845 0.892476 0.699807 0.044570
H3    H     H_    0.634166 0.115619 0.696878 0.149730
H4    H     H_    0.684089 0.506085 0.875781 0.170631
H5    H     H_    0.679780 0.678762 0.872003 0.245562
H6    H     H_    0.685693 0.512701 0.124607 0.102793
H7    H     H_    0.769732 0.321692 0.561844 0.185484
H8    H     H_    0.066691 0.210867 0.608327 0.225719
H9    H     H_    0.237104 0.687225 0.430278 0.166652
N1    N     N_R   0.500570 0.500930 0.147930 -0.246232
N2    N     N_R   0.500570 0.500890 0.852020 -0.211210
O1    O     O_R   0.500000 0.319640 0.618810 -0.602848
O2    O     O_R   0.500010 0.319680 0.381230 -0.540000
O3    O     O_R   0.370250 0.499950 0.618800 -0.574869
O4    O     O_R   0.370260 0.499990 0.381220 -0.599747
O5    O     O_R   0.499990 0.680320 0.618770 -0.546882
O6    O     O_R   0.500000 0.680360 0.381190 -0.563821
O7    O     O_R   0.629740 0.500010 0.618780 -0.589394
O8    O     O_R   0.629750 0.500050 0.381200 -0.571984
C35   C     C_3   0.767370 0.739099 0.443926 -0.618525
H10   H     H_    0.694162 0.727790 0.458263 0.177848
H11   H     H_    0.790410 0.811282 0.519588 0.246069
H12   H     H_    0.779187 0.771980 0.336483 0.318449
F1    F     F_    0.531249 0.879671 0.855151 -0.624905
C36   C     C_3   0.537046 0.132164 0.870138 -0.580298
H13   H     H_    0.541696 0.234062 0.860812 0.211078
H14   H     H_    0.466913 0.101459 0.894927 0.260052
H15   H     H_    0.580616 0.106733 0.956864 0.265915
C37   C     C_3   0.371861 0.338794 0.145790 -0.643153
H16   H     H_    0.376772 0.328276 0.256690 0.284705
H17   H     H_    0.302985 0.366791 0.125426 0.188836
H18   H     H_    0.380198 0.243738 0.106387 0.237242
C38   C     C_3   0.359402 0.362612 0.851356 -0.663291
H19   H     H_    0.304470 0.426241 0.838016 0.238130
H20   H     H_    0.378047 0.321834 0.752426 0.286431
H21   H     H_    0.330428 0.280504 0.905230 0.185225
F2    F     F_    0.683806 0.706291 0.129411 -0.628701
F3    F     F_    0.895017 0.192446 0.611804 -0.653519
F4    F     F_    0.222087 0.293737 0.580191 -0.700047
C39   C     C_3   0.114827 0.839848 0.382926 -0.721526
H22   H     H_    0.155661 0.819884 0.289660 0.218515
H23   H     H_    0.073903 0.918901 0.357497 0.290834
H24   H     H_    0.159350 0.870027 0.469478 0.223600
F5    F     F_    0.929440 0.834235 0.388582 -0.663496
F6    F     F_    0.475580 0.116871 0.250669 -0.676191

loop_
_geom_bond_atom_site_label_1
_geom_bond_atom_site_label_2
_ccdc_geom_bond_type
C38   H21   S    
C19   C20   S    
C39   H24   S    
Cu1   N2    S    
C7    C8    A    
C26   C27   S    
C14   C21   S    
C39   H23   S    
C5    C6    A    
C29   O7    A    
Cu1   O1    S    
C15   C16   A    
C8    C39   S    
C35   H10   S    
C38   H20   S    
C18   C19   A    
C36   H14   S    
C3    F3    S    
Cu2   O6    S    
Cu1   Cu2   S    
C8    C9    A    
C37   H17   S    
Cu2   N1    S    
C1    C15   S    
C20   F1    S    
C25   N2    A    
C21   C36   S    
C2    C34   A    
C22   C28   S    
Cu1   O7    S    
C38   H19   S    
C28   F2    S    
C33   C34   A    
C18   C23   S    
C24   C25   A    
C16   C17   A    
C4    H8    S    
C30   C35   S    
C6    C34   A    
C9    F5    S    
C36   H15   S    
C20   H2    S    
C10   F4    S    
C27   H5    S    
C31   C32   A    
C21   H3    S    
C27   H4    S    
C37   H18   S    
Cu1   O3    S    
C17   C18   A    
C17   H1    S    
C39   H22   S    
Cu2   O4    S    
C24   C37   S    
C26   N2    A    
C22   N1    A    
C25   C38   S    
C3    C4    A    
Cu1   O5    S    
C12   O4    A    
C14   C19   A    
C4    C5    A    
C12   O3    A    
C11   C12   S    
C1    O1    A    
C6    C7    A    
C29   O8    A    
C35   H12   S    
C2    C30   A    
C24   N1    A    
C32   C33   A    
C5    C10   A    
C29   C31   S    
Cu2   O8    S    
C13   H9    S    
C11   C13   A    
C23   O5    A    
C30   C31   A    
C23   O6    A    
C28   H6    S    
C16   F6    S    
C32   H7    S    
C35   H11   S    
C36   H13   S    
C10   C11   A    
C7    C13   A    
C20   C21   S    
C37   H16   S    
C22   C26   A    
C27   C28   S    
C3    C33   A    
C14   C15   A    
C2    C9    A    
C1    O2    A    
Cu2   O2    S    
