data_mof_unit_pretest_1269.cif
_audit_creation_date              2012-12-10T19:00:00-0500
_audit_creation_method            fapswitch 2.2
_symmetry_space_group_name_H-M    P1
_symmetry_Int_Tables_number       1
_space_group_crystal_system       triclinic
_cell_length_a                    10.827319
_cell_length_b                    10.632241
_cell_length_c                    9.952256
_cell_angle_alpha                 91.080801
_cell_angle_beta                  90.73711
_cell_angle_gamma                 90.232994
_cell_volume                      1145.38116093

loop_
_atom_site_label
_atom_site_type_symbol
_atom_type_description
_atom_site_fract_x
_atom_site_fract_y
_atom_site_fract_z
_atom_type_partial_charge
C1    C     C_R   0.497123 0.260559 0.499045 0.890414
C2    C     C_R   0.420013 0.063976 0.588049 0.102543
C3    C     C_R   0.504839 0.872028 0.502091 -0.030650
C4    C     C_R   0.495167 0.127972 0.497911 -0.030654
C5    C     C_R   0.520053 0.607996 0.074808 -0.161235
C6    C     C_R   0.479949 0.392004 0.925192 -0.161245
C7    C     C_R   0.521798 0.608383 0.931942 0.263145
C8    C     C_R   0.478204 0.391616 0.068057 0.263136
C9    C     C_R   0.260213 0.501830 0.498715 0.877150
C10   C     C_R   0.739787 0.498169 0.501285 0.877148
C11   C     C_R   0.197211 0.678454 0.078644 0.570700
C12   C     C_R   0.502878 0.739441 0.500955 0.890414
C13   C     C_R   0.802786 0.321546 0.921355 0.570702
C14   C     C_R   0.151424 0.659397 0.207123 -0.343565
C15   C     C_R   0.848573 0.340603 0.792877 -0.343559
C16   C     C_R   0.112706 0.539191 0.243955 0.020448
C17   C     C_R   0.887293 0.460808 0.756044 0.020450
C18   C     C_R   0.121167 0.438035 0.152551 -0.196927
C19   C     C_R   0.878833 0.561963 0.847448 -0.196934
C20   C     C_R   0.168883 0.455784 0.024524 -0.062486
C21   C     C_R   0.831117 0.544216 0.975475 -0.062499
C22   C     C_R   0.205498 0.577567 0.987015 0.514073
C23   C     C_R   0.872498 0.496780 0.503732 -0.092638
C24   C     C_R   0.794501 0.422434 0.012985 0.514069
C25   C     C_R   0.932194 0.514843 0.382450 -0.223927
C26   C     C_R   0.067806 0.485153 0.617550 -0.223931
C27   C     C_R   0.127502 0.503218 0.496268 -0.092639
C28   C     C_R   0.941325 0.480890 0.623153 0.051385
C29   C     C_R   0.058675 0.519107 0.376847 0.051386
C30   C     C_R   0.574019 0.065284 0.410010 -0.264026
C31   C     C_R   0.425985 0.934717 0.589991 -0.264017
C32   C     C_R   0.579990 0.936025 0.411950 0.102523
F1    F     F_    0.249115 0.599477 0.862745 -0.665646
F2    F     F_    0.750884 0.400524 0.137255 -0.665655
F3    F     F_    0.233600 0.795168 0.042762 -0.654695
F4    F     F_    0.766396 0.204833 0.957238 -0.654700
H1    H     H_    0.144693 0.738084 0.277333 0.185969
H2    H     H_    0.463589 0.305243 0.869435 0.160252
H3    H     H_    0.481094 0.789447 0.896218 0.217444
H4    H     H_    0.633686 0.756632 0.900118 0.179155
H5    H     H_    0.518938 0.210567 0.103804 0.217468
H6    H     H_    0.366339 0.243346 0.099862 0.179145
H7    H     H_    0.235835 0.369580 0.854255 0.231672
H8    H     H_    0.093795 0.323121 0.900947 0.199895
H9    H     H_    0.764174 0.630415 0.145749 0.231676
H10   H     H_    0.906208 0.676882 0.099045 0.199897
H11   H     H_    0.643064 0.893457 0.226363 0.202264
H12   H     H_    0.855303 0.261915 0.722667 0.185968
H13   H     H_    0.753415 0.902562 0.347790 0.191880
H14   H     H_    0.356868 0.106519 0.773629 0.202268
H15   H     H_    0.246562 0.097469 0.652133 0.191864
H16   H     H_    0.091615 0.344971 0.181448 0.191236
H17   H     H_    0.908386 0.655027 0.818551 0.191236
H18   H     H_    0.880750 0.527119 0.290729 0.213007
H19   H     H_    0.119250 0.472877 0.709271 0.213008
H20   H     H_    0.632837 0.116715 0.342554 0.186102
H21   H     H_    0.367163 0.883286 0.657444 0.186105
H22   H     H_    0.536414 0.694755 0.130564 0.160241
N1    N     N_R   0.499970 0.499970 0.857200 -0.071583
N2    N     N_R   0.500030 0.500030 0.142800 -0.071580
N3    N     N_3   0.547397 0.723663 0.866558 -0.384119
N4    N     N_3   0.452614 0.276336 0.133442 -0.384126
N5    N     N_3   0.181710 0.348258 0.936754 -0.462329
N6    N     N_3   0.818290 0.651744 0.063245 -0.462330
N7    N     N_3   0.664006 0.870157 0.325669 -0.456480
N8    N     N_3   0.335977 0.129845 0.674312 -0.456477
O1    O     O_R   0.499990 0.316750 0.614620 -0.618613
O2    O     O_R   0.500010 0.683250 0.385380 -0.618615
O3    O     O_R   0.499990 0.316780 0.385290 -0.589345
O4    O     O_R   0.500010 0.683220 0.614710 -0.589340
O5    O     O_R   0.316760 0.500000 0.614660 -0.568303
O6    O     O_R   0.683240 0.500000 0.385340 -0.568304
O7    O     O_R   0.316760 0.500020 0.385330 -0.616156
O8    O     O_R   0.683240 0.499980 0.614670 -0.616158
Zn1   Zn    Zn3+2 0.500000 0.499980 0.653120 1.014025
Zn2   Zn    Zn3+2 0.500000 0.500020 0.346880 1.014023

loop_
_geom_bond_atom_site_label_1
_geom_bond_atom_site_label_2
_ccdc_geom_bond_type
O5    Zn1   S    
C27   C29   A    
O6    Zn2   S    
C26   H19   S    
H7    N5    S    
C12   O2    A    
C26   C27   A    
H13   N7    S    
C5    H22   S    
H5    N4    S    
C19   C21   A    
C11   C14   A    
O3    Zn2   S    
C7    N3    S    
C21   N6    S    
C3    C12   S    
C17   C19   A    
C6    H2    S    
H6    N4    S    
C19   H17   S    
C9    O7    A    
C15   H12   S    
C7    N1    A    
H8    N5    S    
C25   C29   A    
H3    N3    S    
O8    Zn1   S    
C18   H16   S    
C25   H18   S    
C13   F4    S    
C5    C7    A    
C6    C8    A    
C16   C29   S    
C30   H20   S    
N2    Zn2   S    
C1    O3    A    
H4    N3    S    
C13   C24   A    
H10   N6    S    
C2    C31   A    
H15   N8    S    
C2    C4    A    
C23   C28   A    
C3    C31   A    
H14   N8    S    
C20   C22   A    
C13   C15   A    
O7    Zn2   S    
C14   C16   A    
O1    Zn1   S    
N1    Zn1   S    
C9    C27   S    
C15   C17   A    
C22   F1    S    
C12   O4    A    
C11   C22   A    
C5    N2    A    
C17   C28   S    
C6    N1    A    
C9    O5    A    
C2    N8    S    
C10   C23   S    
O2    Zn2   S    
H9    N6    S    
C26   C28   A    
C1    C4    S    
C31   H21   S    
C20   N5    S    
C11   F3    S    
C8    N2    A    
C14   H1    S    
C30   C32   A    
C10   O8    A    
C1    O1    A    
C18   C20   A    
C23   C25   A    
C3    C32   A    
C24   F2    S    
C16   C18   A    
C21   C24   A    
O4    Zn1   S    
H11   N7    S    
C4    C30   A    
C8    N4    S    
C32   N7    S    
C10   O6    A    
