data_mof_unit_pretest_411.cif
_audit_creation_date              2012-12-11T14:17:27-0500
_audit_creation_method            fapswitch 2.2
_symmetry_space_group_name_H-M    P1
_symmetry_Int_Tables_number       1
_space_group_crystal_system       triclinic
_cell_length_a                    6.943185
_cell_length_b                    13.634374
_cell_length_c                    20.399976
_cell_angle_alpha                 102.108807
_cell_angle_beta                  89.976191
_cell_angle_gamma                 90.643941
_cell_volume                      1888.09386669

loop_
_atom_site_label
_atom_site_type_symbol
_atom_type_description
_atom_site_fract_x
_atom_site_fract_y
_atom_site_fract_z
_atom_type_partial_charge
O1    O     O_R   0.506860 0.599390 0.449240 -0.539977
O2    O     O_R   0.180220 0.594600 0.586780 -0.546760
O3    O     O_R   0.004500 0.400610 0.550760 -0.542228
C1    C     C_R   0.349088 0.616135 0.613443 0.723034
O4    O     O_R   0.177490 0.611290 0.451970 -0.536071
O5    O     O_R   0.001750 0.417420 0.414990 -0.503193
C2    C     C_R   0.346854 0.637946 0.435153 0.729918
O6    O     O_R   0.509610 0.582580 0.585010 -0.546754
O7    O     O_3   0.337420 0.436370 0.488020 -0.362368
V1    V     V_3+5 0.064680 0.511800 0.502220 1.472831
O8    O     O_R   0.671710 0.405400 0.413220 -0.548784
C3    C     C_R   0.840219 0.383865 0.386473 0.803480
O9    O     O_R   0.674440 0.388710 0.548030 -0.542450
C4    C     C_R   0.842646 0.361887 0.564628 0.686413
V2    V     V_3+5 0.564010 0.488200 0.497780 1.456642
O10   O     O_3   0.841140 0.563630 0.511980 -0.380397
C5    C     C_R   0.852901 0.110735 0.612233 -0.111553
H1    H     H_    0.845467 0.160940 0.519385 0.122814
H2    H     H_    0.860642 0.985419 0.695426 0.129101
H3    H     H_    0.852924 0.032340 0.587138 0.140354
C6    C     C_R   0.849282 0.284945 0.604689 -0.040222
C7    C     C_R   0.862626 0.315415 0.928688 -0.168771
C8    C     C_R   0.858691 0.391518 0.892935 -0.119697
C9    C     C_R   0.856148 0.368722 0.823085 -0.157124
C10   C     C_R   0.857488 0.267894 0.786851 0.080014
C11   C     C_R   0.860839 0.190140 0.823947 0.066815
C12   C     C_R   0.855618 0.241638 0.715215 0.071256
C13   C     C_R   0.856200 0.138616 0.682527 0.124824
C14   C     C_R   0.859789 0.064034 0.720050 -0.185893
C15   C     C_R   0.862280 0.089171 0.789571 -0.194501
C16   C     C_R   0.852921 0.313925 0.674609 -0.212846
C17   C     C_R   0.848855 0.183562 0.573560 -0.142903
C18   C     C_R   0.863404 0.215085 0.894963 -0.069866
H4    H     H_    0.852654 0.393365 0.695425 0.093897
H5    H     H_    0.865168 0.334788 0.982996 0.101882
H6    H     H_    0.857883 0.469065 0.919586 0.118869
H7    H     H_    0.865194 0.028356 0.816196 0.115915
C19   C     C_2   0.005531 0.295659 0.282046 0.275634
C20   C     C_2   0.847622 0.309757 0.321751 -0.349688
H8    H     H_    0.720669 0.262750 0.307759 0.089468
C21   C     C_2   0.014368 0.211508 0.221052 0.279102
C22   C     C_2   0.863050 0.189227 0.178530 -0.355015
H9    H     H_    0.728290 0.228695 0.190335 0.090938
C23   C     C_2   0.204593 0.791157 0.782169 -0.134974
C24   C     C_2   0.363569 0.815707 0.819924 -0.302588
H10   H     H_    0.066967 0.821654 0.801397 0.130275
C25   C     C_2   0.202925 0.722632 0.714674 -0.125438
C26   C     C_2   0.361111 0.684530 0.680141 -0.298701
H11   H     H_    0.061650 0.703689 0.692480 0.133668
H12   H     H_    0.504268 0.703149 0.700251 0.124923
C27   C     C_R   0.383161 0.893384 0.390305 0.359277
H13   H     H_    0.433536 0.015502 0.301934 0.131568
C28   C     C_R   0.357948 0.718011 0.397175 -0.212406
C29   C     C_R   0.324237 0.686287 0.073227 -0.169859
C30   C     C_R   0.305009 0.611579 0.109788 -0.122150
C31   C     C_R   0.314804 0.635100 0.179574 -0.158902
C32   C     C_R   0.345756 0.735264 0.215045 0.118063
C33   C     C_R   0.365915 0.811333 0.177019 0.060648
C34   C     C_R   0.355784 0.762438 0.286765 0.036734
C35   C     C_R   0.379225 0.865216 0.319070 -0.039720
C36   C     C_R   0.404273 0.937531 0.279784 -0.167551
C37   C     C_R   0.397054 0.911249 0.210398 -0.171591
C38   C     C_R   0.345437 0.690505 0.327404 -0.263609
C39   C     C_R   0.377781 0.820008 0.429111 0.346994
C40   C     C_R   0.354485 0.785885 0.106045 -0.083149
H14   H     H_    0.330767 0.611416 0.306460 0.140068
H15   H     H_    0.314280 0.666483 0.019028 0.102785
H16   H     H_    0.295438 0.572916 0.203926 0.113299
H17   H     H_    0.280768 0.534624 0.083836 0.121006
H18   H     H_    0.416666 0.970603 0.183023 0.141150
O11   O     O_R   0.203230 0.917310 0.915020 -0.542142
O12   O     O_R   0.535500 0.888690 0.048040 -0.543702
O13   O     O_R   0.711080 0.082610 0.085000 -0.549977
C41   C     C_R   0.366168 0.862482 0.065250 0.693701
O14   O     O_R   0.532630 0.905370 0.913230 -0.549642
O15   O     O_R   0.708190 0.099410 0.949230 -0.540647
C42   C     C_R   0.364349 0.884234 0.886505 0.736760
O16   O     O_R   0.206120 0.900510 0.050790 -0.535288
O17   O     O_3   0.375360 0.063570 0.011990 -0.365357
V3    V     V_3+5 0.648170 0.988200 0.997780 1.423236
O18   O     O_R   0.038240 0.111390 0.951940 -0.544234
C43   C     C_R   0.870066 0.137753 0.935041 0.676363
O19   O     O_R   0.041120 0.094710 0.086750 -0.505912
C44   C     C_R   0.872935 0.115800 0.113628 0.806230
V4    V     V_3+5 0.148810 0.011930 0.002180 1.468019
O20   O     O_3   0.871750 0.936430 0.988010 -0.379927
O21   O     O_3   0.182455 0.157641 0.206810 -0.639976
H19   H     H_    0.269080 0.174765 0.246267 0.279821
H20   H     H_    0.501997 0.785546 0.801998 0.127424
O22   O     O_3   0.388187 0.852166 0.498061 -0.617188
H21   H     H_    0.384273 0.794189 0.520152 0.266162
O23   O     O_3   0.393472 0.992217 0.424196 -0.618161
H22   H     H_    0.311648 0.032515 0.400387 0.278578
H23   H     H_    0.853167 0.431976 0.799202 0.106287
O24   O     O_3   0.163878 0.358380 0.299101 -0.637349
H24   H     H_    0.256234 0.345879 0.261278 0.280964

loop_
_geom_bond_atom_site_label_1
_geom_bond_atom_site_label_2
_ccdc_geom_bond_type
C33   C37   A    
O21   H19   S    
O11   C42   A    
C21   C22   D    
O24   H24   S    
C39   O22   S    
C1    O6    A    
O18   C43   A    
O22   H21   S    
C25   H11   S    
C29   C40   A    
V4    O20   S    
C7    H5    S    
C6    C16   A    
C4    C6    S    
C13   C14   A    
H13   C36   S    
O5    C3    A    
C19   C20   D    
C28   C39   A    
C32   C34   A    
V2    O10   S    
C5    H3    S    
C31   C32   A    
C37   H18   S    
V3    O20   S    
C33   C40   A    
O11   V4    S    
O8    V2    S    
C25   C26   D    
C19   O24   S    
C8    C9    A    
O1    V2    S    
C24   H20   S    
O7    V1    S    
O13   C44   A    
C23   C25   S    
C26   H12   S    
C38   H14   S    
C34   C35   A    
O9    C4    A    
C23   H10   S    
C21   O21   S    
C6    C17   A    
C12   C16   A    
C22   C44   S    
C9    C10   A    
C19   C21   S    
O12   C41   A    
O15   C43   A    
C20   H8    S    
O4    C2    A    
C29   H15   S    
C10   C11   A    
C31   H16   S    
C40   C41   S    
C15   H7    S    
C35   C36   A    
O2    C1    A    
C14   C15   A    
C9    H23   S    
C27   O23   S    
C11   C18   A    
O19   C44   A    
C30   C31   A    
C16   H4    S    
O14   C42   A    
C30   H17   S    
O3    C4    A    
O16   V4    S    
O19   V4    S    
C11   C15   A    
O6    V2    S    
O9    V2    S    
H1    C17   S    
C22   H9    S    
C2    C28   S    
O2    V1    S    
O17   V4    S    
C23   C24   D    
C1    C26   S    
C7    C18   A    
C29   C30   A    
O1    C2    A    
C5    C13   A    
C27   C39   A    
O15   V3    S    
O5    V1    S    
O8    C3    A    
C10   C12   A    
C34   C38   A    
C3    C20   S    
O7    V2    S    
O4    V1    S    
O12   V3    S    
O3    V1    S    
V1    O10   S    
C28   C38   A    
C32   C33   A    
O23   H22   S    
O13   V3    S    
C36   C37   A    
C18   C43   S    
O17   V3    S    
O14   V3    S    
C8    H6    S    
C41   O16   A    
C12   C13   A    
C5    C17   A    
C7    C8    A    
C24   C42   S    
C27   C35   A    
O18   V4    S    
H2    C14   S    
