data_mof_unit_pretest_23.cif
_audit_creation_date              2013-03-05T16:03:51-0500
_audit_creation_method            fapswitch 2.2
_symmetry_space_group_name_H-M    P1
_symmetry_Int_Tables_number       1
_space_group_crystal_system       triclinic
_cell_length_a                    6.951318
_cell_length_b                    17.423112
_cell_length_c                    19.789921
_cell_angle_alpha                 109.060335
_cell_angle_beta                  90.788341
_cell_angle_gamma                 90.529434
_cell_volume                      2264.96920616

loop_
_atom_site_label
_atom_site_type_symbol
_atom_site_description
_atom_site_fract_x
_atom_site_fract_y
_atom_site_fract_z
_atom_type_partial_charge
O1    O     O_R   0.505700 0.440210 0.561730 -0.609418
O2    O     O_R   0.169350 0.406300 0.412660 -0.606666
O3    O     O_R   0.005650 0.559790 0.438270 -0.557117
C1    C     C_R   0.336938 0.380970 0.386457 0.971260
O4    O     O_R   0.175560 0.430650 0.559600 -0.605674
O5    O     O_R   0.011900 0.584320 0.586250 -0.591963
C2    C     C_R   0.345728 0.413712 0.579545 0.928336
O6    O     O_R   0.499450 0.415680 0.413750 -0.580203
O7    O     O_3   0.341370 0.550390 0.508570 -0.225132
V1    V     V_3+5 0.063940 0.490650 0.498410 1.184006
O8    O     O_R   0.682570 0.593700 0.587340 -0.597272
C3    C     C_R   0.852859 0.616619 0.614950 0.927255
O9    O     O_R   0.676370 0.569350 0.440400 -0.548911
C4    C     C_R   0.846517 0.585610 0.419551 0.944898
V2    V     V_3+5 0.564750 0.509350 0.501590 1.210057
O10   O     O_3   0.837190 0.449610 0.491430 -0.290893
C5    C     C_R   0.033823 0.679996 0.282002 -0.267830
H1    H     H_    0.161123 0.677518 0.250487 0.152776
C6    C     C_R   0.031837 0.636883 0.330726 0.362274
C7    C     C_R   0.863617 0.636320 0.371221 -0.322430
C8    C     C_R   0.710342 0.685753 0.364955 -0.086017
H2    H     H_    0.587799 0.692509 0.398859 0.192716
C9    C     C_R   0.717015 0.730690 0.317796 -0.144781
H3    H     H_    0.596948 0.769153 0.315987 0.110342
C10   C     C_R   0.878752 0.727950 0.275313 0.050970
C11   C     C_R   0.726665 0.788713 0.188268 -0.155857
H4    H     H_    0.588958 0.762328 0.194260 0.110229
C12   C     C_R   0.739154 0.833460 0.141182 -0.173517
H5    H     H_    0.609885 0.841107 0.113004 0.133478
C13   C     C_R   0.916209 0.866983 0.129967 -0.125839
C14   C     C_R   0.080021 0.855370 0.167571 -0.155013
H6    H     H_    0.217928 0.881297 0.161025 0.126209
C15   C     C_R   0.067099 0.811515 0.215324 -0.155615
H7    H     H_    0.195750 0.805754 0.244626 0.103250
C16   C     C_R   0.890537 0.776915 0.225941 0.148604
H8    H     H_    0.562235 0.654618 0.919134 0.118666
C17   C     C_R   0.079023 0.895739 0.754382 -0.168478
C18   C     C_R   0.156204 0.904024 0.692530 -0.122104
C19   C     C_R   0.138812 0.840863 0.628086 -0.108276
C20   C     C_R   0.043968 0.768965 0.624985 -0.149463
C21   C     C_R   0.966376 0.758122 0.687128 0.115113
C22   C     C_R   0.984510 0.822912 0.753303 0.119867
C23   C     C_R   0.867230 0.685240 0.683698 -0.316380
C24   C     C_R   0.784529 0.677676 0.746502 0.124014
C25   C     C_R   0.803853 0.742255 0.812762 0.118048
C26   C     C_R   0.904165 0.814871 0.816262 -0.327542
C27   C     C_R   0.684721 0.605876 0.745107 -0.162095
C28   C     C_R   0.602628 0.598670 0.806574 -0.126672
C29   C     C_R   0.623480 0.661149 0.871265 -0.118222
C30   C     C_R   0.724453 0.731806 0.874795 -0.147258
H9    H     H_    0.092858 0.947555 0.802612 0.138189
H10   H     H_    0.228265 0.960128 0.694546 0.127109
H11   H     H_    0.197352 0.847892 0.579999 0.122623
H12   H     H_    0.030310 0.722706 0.573078 0.121113
H13   H     H_    0.668816 0.554326 0.696818 0.117405
H14   H     H_    0.523804 0.543971 0.804113 0.108783
H15   H     H_    0.739943 0.777682 0.926837 0.109916
H16   H     H_    0.024823 0.455206 0.196712 0.149134
C31   C     C_R   0.506056 0.225061 0.378030 -0.161268
C32   C     C_R   0.593319 0.152546 0.375498 -0.104383
C33   C     C_R   0.620316 0.092272 0.310198 -0.119179
C34   C     C_R   0.563002 0.104408 0.246726 -0.182847
C35   C     C_R   0.478104 0.178113 0.247126 0.121200
C36   C     C_R   0.445561 0.239131 0.314671 0.121106
C37   C     C_R   0.428739 0.192229 0.182015 -0.276240
C38   C     C_R   0.347387 0.269409 0.186997 -0.038130
C39   C     C_R   0.277563 0.320439 0.253978 0.057735
C40   C     C_R   0.345039 0.310751 0.318128 -0.303362
C41   C     C_R   0.347523 0.303302 0.130532 0.519613
C42   C     C_R   0.225765 0.369489 0.134749 -0.279472
C43   C     C_R   0.119352 0.405511 0.194849 -0.140032
C44   C     C_R   0.152174 0.384313 0.255363 -0.102811
H17   H     H_    0.482581 0.269128 0.430211 0.096644
H18   H     H_    0.637841 0.142625 0.424591 0.116144
H19   H     H_    0.686311 0.035681 0.308646 0.122069
H20   H     H_    0.587740 0.055401 0.197665 0.128600
H21   H     H_    0.218196 0.395363 0.092189 0.139241
H22   H     H_    0.080098 0.419797 0.303010 0.148850
C45   C     C_R   0.553117 0.301627 0.700434 0.569799
C46   C     C_R   0.533794 0.354728 0.660183 -0.312249
H23   H     H_    0.654514 0.393931 0.658832 0.148053
C47   C     C_R   0.361730 0.358117 0.622903 -0.179396
C48   C     C_R   0.211206 0.304469 0.623972 -0.160097
H24   H     H_    0.078432 0.303938 0.594520 0.147363
C49   C     C_R   0.231290 0.249445 0.661718 -0.213753
H25   H     H_    0.112298 0.208188 0.659562 0.156592
C50   C     C_R   0.400146 0.247880 0.701905 -0.027022
C51   C     C_R   0.238487 0.188819 0.786999 -0.370961
H26   H     H_    0.103574 0.209931 0.772476 0.144438
C52   C     C_R   0.242051 0.155604 0.843303 0.594508
C53   C     C_R   0.414832 0.121583 0.859444 -0.277152
C54   C     C_R   0.576174 0.121528 0.817094 -0.301228
H27   H     H_    0.706565 0.091495 0.824500 0.192688
C55   C     C_R   0.573218 0.160185 0.764909 -0.101793
H28   H     H_    0.702239 0.159500 0.734807 0.161130
C56   C     C_R   0.405255 0.197313 0.750940 0.103820
O11   O     O_R   0.273230 0.084330 0.086440 -0.609615
O12   O     O_R   0.596660 0.069390 0.940470 -0.599584
O13   O     O_R   0.760270 0.915710 0.913690 -0.589355
C57   C     C_R   0.426836 0.081482 0.916306 0.990991
O14   O     O_R   0.603330 0.093680 0.087390 -0.588501
O15   O     O_R   0.766990 0.940160 0.061660 -0.603623
C58   C     C_R   0.435255 0.122354 0.111873 0.983434
O16   O     O_R   0.266510 0.059870 0.938470 -0.566567
O17   O     O_3   0.431050 0.949630 0.991510 -0.280695
V3    V     V_3+5 0.708490 0.009340 0.001580 1.156012
O18   O     O_R   0.096270 0.930570 0.059390 -0.595680
C59   C     C_R   0.927723 0.915558 0.080834 0.917773
O19   O     O_R   0.089600 0.906290 0.912460 -0.592657
C60   C     C_R   0.919146 0.883348 0.885009 0.953516
V4    V     V_3+5 0.207670 0.990600 0.998190 1.161151
O20   O     O_3   0.935250 0.050360 0.008480 -0.283101
N1    N     N_R   0.207938 0.600215 0.341924 0.220069
O21   O     O_R   0.291639 0.627182 0.404488 -0.412518
O22   O     O_R   0.311712 0.561874 0.287336 -0.449367
O23   O     O_3   0.484863 0.280588 0.077579 -0.700235
C61   C     C_3   0.595499 0.350152 0.077469 0.190796
H29   H     H_    0.748059 0.337932 0.083204 0.127734
H30   H     H_    0.572510 0.406049 0.124245 0.116217
C62   C     C_3   0.564502 0.369143 0.007633 -0.324351
H31   H     H_    0.619524 0.318772 0.962118 0.191097
H32   H     H_    0.409656 0.375399 0.997325 0.192009
C63   C     C_3   0.664357 0.448706 0.010739 -1.024583
H33   H     H_    0.601008 0.500254 0.053331 0.280036
H34   H     H_    0.643719 0.459427 0.958838 0.269245
H35   H     H_    0.820691 0.446865 0.021900 0.260804
O24   O     O_3   0.726886 0.299167 0.734500 -0.697914
C64   C     C_3   0.750339 0.367735 0.796814 0.143570
H36   H     H_    0.741197 0.346561 0.843887 0.126369
H37   H     H_    0.638988 0.415234 0.803322 0.078562
C65   C     C_3   0.949200 0.405849 0.796224 -0.254716
H38   H     H_    0.060742 0.358619 0.787988 0.209405
H39   H     H_    0.955212 0.430737 0.751212 0.198137
C66   C     C_3   0.994746 0.473654 0.866191 -1.029902
H40   H     H_    0.883164 0.521122 0.877193 0.280533
H41   H     H_    0.136322 0.501893 0.862410 0.270093
H42   H     H_    0.002236 0.448665 0.911084 0.267357
O25   O     O_3   0.073188 0.149087 0.877798 -0.641445
C67   C     C_3   0.983553 0.225523 0.906959 0.223795
H43   H     H_    0.826385 0.215653 0.905825 0.127941
H44   H     H_    0.007037 0.269522 0.878022 0.046881
C68   C     C_3   0.048375 0.266254 0.983822 -0.489699
H45   H     H_    0.206931 0.271833 0.985284 0.219229
H46   H     H_    0.987628 0.327856 0.003174 0.168698
C69   C     C_3   0.986247 0.217592 0.031312 -0.600224
H47   H     H_    0.976694 0.255153 0.088025 0.184247
H48   H     H_    0.098406 0.172795 0.029000 0.274733
H49   H     H_    0.842402 0.188981 0.014819 0.265676

loop_
_geom_bond_atom_site_label_1
_geom_bond_atom_site_label_2
_geom_bond_distance
_ccdc_geom_bond_type
C51   C56   1.401285 A    
C41   O23   1.389201 S    
C21   C22   1.425662 A    
C6    C7    1.428439 A    
C1    O6    1.300332 A    
C65   C66   1.525047 S    
C64   H36   1.110689 S    
C66   H42   1.110562 S    
C35   C37   1.426510 A    
C69   H47   1.102479 S    
C63   H33   1.110916 S    
V3    O20   1.709858 S    
C25   C26   1.420174 A    
C33   H19   1.082849 S    
C19   H11   1.082632 S    
C31   C36   1.413269 A    
C17   C18   1.392478 A    
C48   H24   1.083123 S    
C36   C40   1.418351 A    
C27   H13   1.080193 S    
C12   H5    1.083113 S    
C3    C23   1.490660 S    
C61   H30   1.117611 S    
O5    C3    1.296740 A    
C13   C14   1.403805 A    
C17   H9    1.080925 S    
C67   C68   1.513498 S    
H16   C43   1.083130 S    
C63   H34   1.110034 S    
C38   C41   1.424216 A    
C18   H10   1.083028 S    
C6    N1    1.433604 S    
V2    O10   2.149553 S    
C57   O16   1.299927 A    
O23   C61   1.430043 S    
C39   C44   1.413386 A    
C22   C26   1.419750 A    
C32   H18   1.082591 S    
C17   C22   1.417262 A    
C44   H22   1.077198 S    
C52   O25   1.388163 S    
O8    V2    2.005246 S    
V4    O20   2.149456 S    
C9    H3    1.082657 S    
C14   C15   1.399159 A    
O15   C59   1.295964 A    
C42   C43   1.378746 A    
O1    V2    1.994201 S    
O9    C4    1.316418 A    
C53   C57   1.507781 S    
O7    V1    2.158353 S    
C31   H17   1.082404 S    
C24   C27   1.417017 A    
C38   C39   1.427955 A    
O17   V4    1.703721 S    
C31   C32   1.392970 A    
O14   C58   1.310588 A    
C8    H2    1.075019 S    
C42   H21   1.078241 S    
C21   C23   1.420682 A    
C68   C69   1.521007 S    
C34   H20   1.080349 S    
C41   C42   1.417840 A    
C45   C50   1.417311 A    
C11   C12   1.399684 A    
C69   H48   1.099112 S    
C62   H32   1.105776 S    
C15   H7    1.082368 S    
C49   C50   1.414233 A    
C67   H43   1.103187 S    
C39   C40   1.408979 A    
C4    C7    1.504213 S    
C46   C47   1.408501 A    
C61   C62   1.535503 S    
C53   C54   1.409130 A    
O4    C2    1.308361 A    
C5    C6    1.402660 A    
C63   H35   1.108806 S    
C66   H41   1.110554 S    
C49   H25   1.081991 S    
O13   C60   1.295960 A    
C47   C48   1.401575 A    
C45   C46   1.410377 A    
C32   C33   1.389965 A    
O2    C1    1.302867 A    
C23   C24   1.420521 A    
C34   C35   1.415970 A    
C27   C28   1.392355 A    
O9    V2    1.999727 S    
O18   C59   1.304505 A    
C50   C56   1.509017 S    
C54   C55   1.405194 A    
C5    H1    1.082683 S    
C11   H4    1.082731 S    
C55   H28   1.081503 S    
C7    C8    1.405504 A    
C55   C56   1.407111 A    
O11   C58   1.309038 A    
O3    C4    1.292290 A    
C10   C16   1.494822 S    
C28   C29   1.388063 A    
C48   C49   1.401404 A    
C51   C52   1.413406 A    
C37   C38   1.437630 A    
O6    V2    2.000764 S    
C20   H12   1.081206 S    
C8    C9    1.401414 A    
C68   H46   1.105131 S    
C37   C58   1.519893 S    
O24   C64   1.415339 S    
O2    V1    2.000439 S    
C64   C65   1.529890 S    
C19   C20   1.393216 A    
C69   H49   1.109229 S    
C62   H31   1.107800 S    
C1    C40   1.500450 S    
N1    O21   1.299024 A    
O14   V3    2.000419 S    
C28   H14   1.081735 S    
O13   V3    1.997738 S    
C45   O24   1.383061 S    
C20   C21   1.416732 A    
C13   C59   1.485415 S    
O1    C2    1.296777 A    
C30   H15   1.081140 S    
O18   V4    1.999660 S    
C14   H6    1.083256 S    
C24   C25   1.425551 A    
C46   H23   1.083238 S    
C65   H39   1.111868 S    
C64   H37   1.116062 S    
O5    V1    1.997871 S    
O16   V4    1.989085 S    
O8    C3    1.300080 A    
C62   C63   1.527293 S    
C66   H40   1.109919 S    
O17   V3    2.158320 S    
O12   C57   1.312062 A    
O12   V3    1.994261 S    
C5    C10   1.400889 A    
O19   V4    2.005368 S    
O7    V2    1.703943 S    
O4    V1    1.994288 S    
C26   C60   1.489590 S    
V1    O10   1.709819 S    
C61   H29   1.095215 S    
C67   H44   1.108717 S    
C52   C53   1.422038 A    
C18   C19   1.388810 A    
C25   C30   1.416915 A    
O11   V4    2.006563 S    
C12   C13   1.408576 A    
C54   H27   1.082609 S    
C15   C16   1.410706 A    
O15   V3    1.990883 S    
C9    C10   1.404962 A    
C33   C34   1.393726 A    
O25   C67   1.420595 S    
C35   C36   1.432757 A    
C11   C16   1.405973 A    
C43   C44   1.380408 A    
C2    C47   1.493003 S    
C51   H26   1.079545 S    
C29   C30   1.392681 A    
O3    V1    1.990971 S    
C68   H45   1.104709 S    
O19   C60   1.300213 A    
H8    C29   1.082691 S    
C65   H38   1.110215 S    
N1    O22   1.301018 A    
