data_mof_unit_pretest_1626.cif
_audit_creation_date              2012-12-10T17:09:46-0500
_audit_creation_method            fapswitch 2.2
_symmetry_space_group_name_H-M    P1
_symmetry_Int_Tables_number       1
_space_group_crystal_system       triclinic
_cell_length_a                    21.62493
_cell_length_b                    21.683324
_cell_length_c                    21.615146
_cell_angle_alpha                 118.332296
_cell_angle_beta                  118.968169
_cell_angle_gamma                 89.695148
_cell_volume                      7465.96202988

loop_
_atom_site_label
_atom_site_type_symbol
_atom_type_description
_atom_site_fract_x
_atom_site_fract_y
_atom_site_fract_z
_atom_type_partial_charge
Br1   Br    Br    0.871147 0.191874 0.111608 -0.355090
Br2   Br    Br    0.051430 0.346933 0.320734 -0.382946
Br3   Br    Br    0.667696 0.331446 0.107261 -0.297080
Br4   Br    Br    0.129169 0.583443 0.900803 -0.287798
Br5   Br    Br    0.871675 0.414133 0.095722 -0.362197
Br6   Br    Br    0.135801 0.806825 0.886962 -0.344424
Br7   Br    Br    0.338033 0.688532 0.889921 -0.346202
Br8   Br    Br    0.654618 0.237786 0.635875 -0.359486
Br9   Br    Br    0.462749 0.751607 0.331883 -0.372733
Br10  Br    Br    0.380593 0.045109 0.304663 -0.484378
Br11  Br    Br    0.636684 0.952566 0.691429 -0.406479
Br12  Br    Br    0.659596 0.379460 0.616746 -0.347879
Br13  Br    Br    0.471698 0.600022 0.329631 -0.299880
Br14  Br    Br    0.958650 0.614584 0.700536 -0.446260
C1    C     C_R   0.499130 0.119496 0.498159 0.957953
C2    C     C_3   0.214820 0.701930 0.917277 -0.298654
C3    C     C_3   0.824707 0.237978 0.047822 -0.064173
C4    C     C_3   0.292022 0.745666 0.948856 0.117225
C5    C     C_3   0.770253 0.181780 0.951032 0.671662
C6    C     C_3   0.344409 0.785599 0.046538 0.649696
C7    C     C_1   0.834910 0.341797 0.174192 0.232708
C8    C     C_1   0.169439 0.657206 0.825486 0.161489
C9    C     C_1   0.659110 0.167123 0.825410 0.115094
C10   C     C_1   0.340791 0.831515 0.174461 0.126955
C11   C     C_1   0.622790 0.128840 0.750533 -0.095229
C12   C     C_R   0.502287 0.881829 0.503827 0.949257
C13   C     C_1   0.377109 0.870046 0.249378 -0.049704
C14   C     C_R   0.368615 0.135130 0.372615 0.136723
C15   C     C_R   0.556503 0.880300 0.657534 0.103749
C16   C     C_R   0.580177 0.082917 0.661875 0.925144
C17   C     C_R   0.419816 0.916460 0.338149 0.952812
C18   C     C_R   0.299391 0.147993 0.336482 0.268106
C19   C     C_R   0.551663 0.881587 0.720958 0.266332
C20   C     C_R   0.295582 0.220632 0.367969 0.447418
C21   C     C_R   0.513193 0.817207 0.703271 0.446962
C22   C     C_R   0.360605 0.278904 0.430120 0.391024
C23   C     C_1   0.873141 0.378201 0.249167 -0.048286
C24   C     C_R   0.485352 0.751647 0.625806 0.406241
C25   C     C_R   0.430351 0.264875 0.462277 -0.196465
C26   C     C_R   0.495350 0.749822 0.564352 -0.177713
C27   C     C_R   0.432279 0.194131 0.444233 -0.073364
C28   C     C_R   0.518383 0.816462 0.575506 -0.076674
C29   C     C_R   0.498962 0.185437 0.496631 -0.142159
C30   C     C_R   0.504345 0.815995 0.504403 -0.119961
C31   C     C_R   0.565124 0.243519 0.554613 0.214934
C32   C     C_R   0.483969 0.750793 0.429451 0.200742
C33   C     C_R   0.565854 0.307640 0.554924 0.231242
C34   C     C_1   0.131092 0.621405 0.750491 -0.020807
C35   C     C_R   0.480801 0.685336 0.426306 0.275312
C36   C     C_R   0.498451 0.317870 0.508351 -0.181965
C37   C     C_R   0.487027 0.684656 0.494378 -0.174001
C38   C     C_R   0.757248 0.438628 0.448932 0.452469
C39   C     C_R   0.251670 0.529324 0.572277 0.432354
C40   C     C_R   0.726690 0.642840 0.578641 0.383045
C41   C     C_R   0.236504 0.491593 0.354315 0.393867
C42   C     C_R   0.816622 0.503236 0.507517 -0.064937
C43   C     C_R   0.183917 0.495756 0.494801 -0.039184
C44   C     C_R   0.881818 0.501947 0.504077 0.958766
C45   C     C_3   0.704320 0.213277 0.917239 -0.127711
C46   C     C_R   0.118191 0.497827 0.496347 0.952105
C47   C     C_R   0.918284 0.420156 0.337989 0.904336
C48   C     C_R   0.084204 0.579681 0.661716 0.947124
C49   C     C_R   0.619500 0.502003 0.498441 0.918039
C50   C     C_R   0.379816 0.506775 0.500321 0.909226
C51   C     C_R   0.500473 0.380722 0.502088 0.941125
C52   C     C_R   0.495677 0.619777 0.498219 0.917229
C53   C     C_R   0.738607 0.573061 0.543473 -0.159082
C54   C     C_R   0.244154 0.494084 0.424960 -0.142151
C55   C     C_R   0.870173 0.630828 0.633627 0.130411
C56   C     C_3   0.295832 0.785182 0.082663 -0.213060
C57   C     C_R   0.115548 0.423107 0.338396 0.094631
C58   C     C_R   0.859397 0.700046 0.672013 0.271563
C59   C     C_R   0.109024 0.416173 0.266970 0.290019
C60   C     C_R   0.786906 0.705954 0.642021 0.450016
C61   C     C_R   0.169250 0.453088 0.276191 0.450603
C62   C     C_R   0.691714 0.440116 0.445734 -0.248295
C63   C     C_R   0.316345 0.535635 0.573763 -0.219719
C64   C     C_R   0.683172 0.506190 0.493890 -0.084775
C65   C     C_R   0.313084 0.515826 0.500309 -0.092507
C66   C     C_R   0.809426 0.569550 0.560870 -0.115035
C67   C     C_3   0.708797 0.257897 0.053719 0.619530
C68   C     C_R   0.180026 0.471129 0.419201 -0.123368
C69   C     C_3   0.655930 0.214355 0.954303 0.593092
C70   C     C_3   0.261733 0.704040 0.052974 0.683232
C71   C     C_3   0.736736 0.294198 0.946361 0.661118
C72   C     C_3   0.229836 0.816447 0.046818 0.671856
C73   C     C_3   0.778432 0.344120 0.044446 -0.024664
C74   C     C_3   0.176319 0.759155 0.950133 -0.003315
C75   C     C_3   0.224926 0.652443 0.954605 0.520115
C76   C     C_3   0.787858 0.296088 0.082546 -0.294058
H1    H     H_    0.873267 0.268220 0.057630 0.226373
H2    H     H_    0.412487 0.856015 0.059043 0.381124
H3    H     H_    0.581244 0.117982 0.863007 0.338670
H4    H     H_    0.350711 0.667673 0.081701 0.418428
H5    H     H_    0.723764 0.167266 0.052181 0.415069
H6    H     H_    0.242071 0.572043 0.876758 0.379634
H7    H     H_    0.243005 0.045001 0.265942 0.385957
H8    H     H_    0.595662 0.987187 0.799021 0.392522
H9    H     H_    0.187668 0.191679 0.297218 0.399230
H10   H     H_    0.522196 0.865445 0.811296 0.394902
H11   H     H_    0.393346 0.379055 0.522241 0.318626
H12   H     H_    0.282905 0.787923 0.932585 0.196523
H13   H     H_    0.407354 0.660767 0.549557 0.285327
H14   H     H_    0.625543 0.614297 0.487781 0.324850
H15   H     H_    0.323012 0.572776 0.418455 0.293784
H16   H     H_    0.717593 0.335320 0.358809 0.361260
H17   H     H_    0.305058 0.575600 0.693583 0.371067
H18   H     H_    0.963898 0.753320 0.742338 0.400676
H19   H     H_    0.003922 0.363670 0.192520 0.383832
H20   H     H_    0.567492 0.221380 0.869862 0.354602
H21   H     H_    0.230623 0.729010 0.131344 0.393718
H22   H     H_    0.756427 0.273923 0.860097 0.386825
H23   H     H_    0.647421 0.389613 0.406147 0.165240
H24   H     H_    0.281495 0.921390 0.121491 0.397128
H25   H     H_    0.702224 0.369854 0.925593 0.383711
H26   H     H_    0.152560 0.850301 0.064387 0.386080
H27   H     H_    0.778563 0.085716 0.936003 0.390800
H28   H     H_    0.436148 0.781690 0.128474 0.367333
H29   H     H_    0.369033 0.554818 0.631985 0.184052
H30   H     H_    0.745128 0.380315 0.060554 0.197589
H31   H     H_    0.126706 0.729099 0.938781 0.215209
H32   H     H_    0.819138 0.812696 0.716106 0.395761
H33   H     H_    0.114360 0.425719 0.159230 0.401085
H34   H     H_    0.851792 0.157816 0.936160 0.361670
O1    O     O_R   0.448260 0.091600 0.499990 -0.616369
O2    O     O_R   0.448270 0.908380 0.500020 -0.624866
O3    O     O_R   0.509690 0.061420 0.622860 -0.634542
O4    O     O_R   0.490310 0.938580 0.377140 -0.592443
O5    O     O_R   0.613170 0.061430 0.622850 -0.558064
O6    O     O_R   0.386830 0.938570 0.377150 -0.598331
O7    O     O_R   0.908550 0.551730 0.500000 -0.626437
O8    O     O_R   0.091450 0.448270 0.500000 -0.571447
O9    O     O_R   0.908530 0.448300 0.500020 -0.554698
O10   O     O_R   0.091470 0.551700 0.499980 -0.626644
O11   O     O_R   0.938770 0.490290 0.377130 -0.621827
O12   O     O_R   0.551740 0.908400 0.500010 -0.568223
O13   O     O_R   0.061230 0.509710 0.622870 -0.600796
O14   O     O_R   0.938740 0.386860 0.377150 -0.557242
O15   O     O_R   0.061260 0.613140 0.622850 -0.594684
O16   O     O_R   0.626330 0.534680 0.569330 -0.571037
O17   O     O_R   0.373670 0.465320 0.430670 -0.553050
O18   O     O_3   0.772322 0.772364 0.674048 -0.649566
O19   O     O_3   0.165183 0.452035 0.209818 -0.638621
O20   O     O_3   0.807225 0.172163 0.909542 -0.686068
O21   O     O_3   0.380260 0.858352 0.080289 -0.710161
O22   O     O_3   0.619911 0.142586 0.923719 -0.667073
O23   O     O_R   0.556960 0.465330 0.430620 -0.626204
O24   O     O_3   0.314748 0.678088 0.098085 -0.664955
O25   O     O_3   0.714016 0.212140 0.084532 -0.636950
O26   O     O_3   0.270376 0.609309 0.937970 -0.678118
O27   O     O_3   0.235357 0.091349 0.269560 -0.707514
O28   O     O_3   0.584821 0.943883 0.800618 -0.690454
O29   O     O_3   0.229396 0.237250 0.338575 -0.650099
O30   O     O_3   0.502563 0.815537 0.760679 -0.660542
O31   O     O_3   0.353219 0.348612 0.461923 -0.696880
O32   O     O_3   0.444151 0.692034 0.610628 -0.686755
O33   O     O_3   0.657227 0.652321 0.548575 -0.694468
O34   O     O_R   0.443040 0.534670 0.569380 -0.616805
O35   O     O_3   0.291286 0.530543 0.360005 -0.657705
O36   O     O_3   0.764813 0.374921 0.396339 -0.719291
O37   O     O_3   0.253044 0.552988 0.644805 -0.751188
O38   O     O_3   0.918013 0.761948 0.739938 -0.696693
O39   O     O_3   0.045638 0.372818 0.187618 -0.694357
O40   O     O_3   0.601660 0.249887 0.931886 -0.671881
O41   O     O_3   0.206230 0.703899 0.069612 -0.656566
O42   O     O_3   0.786119 0.295577 0.921654 -0.642964
O43   O     O_3   0.257045 0.883840 0.060742 -0.650021
O44   O     O_3   0.679033 0.320970 0.909722 -0.739710
O45   O     O_R   0.534700 0.443070 0.569370 -0.602767
O46   O     O_3   0.190855 0.827680 0.086264 -0.732062
O47   O     O_3   0.741482 0.113169 0.933668 -0.699667
O48   O     O_3   0.398651 0.749966 0.067194 -0.703782
O49   O     O_R   0.465300 0.556930 0.430630 -0.586729
O50   O     O_R   0.465330 0.373710 0.430660 -0.588441
O51   O     O_R   0.534670 0.626290 0.569340 -0.553838
O52   O     O_R   0.551730 0.091620 0.499980 -0.576044
Zn1   Zn    Zn3+2 0.430910 0.999990 0.500010 1.048901
Zn2   Zn    Zn3+2 0.569090 0.000010 0.499990 1.143590
Zn3   Zn    Zn3+2 0.000200 0.569060 0.499990 1.066752
Zn4   Zn    Zn3+2 0.999800 0.430940 0.500010 1.153032
Zn5   Zn    Zn3+2 0.546330 0.546310 0.592620 1.125866
Zn6   Zn    Zn3+2 0.453670 0.453690 0.407380 1.138042

loop_
_geom_bond_atom_site_label_1
_geom_bond_atom_site_label_2
_ccdc_geom_bond_type
C38   O36   S    
C8    C34   T    
C69   O40   S    
C5    O20   S    
O12   Zn2   S    
C51   O50   A    
C59   C61   A    
C49   O16   A    
C3    H1    S    
C21   O30   S    
C24   O32   S    
H14   O33   S    
O14   Zn4   S    
C46   O8    A    
C41   C54   A    
C10   C56   S    
H24   O43   S    
C25   C27   A    
H8    O28   S    
C9    C45   S    
C18   O27   S    
C32   C35   A    
C47   O11   A    
C1    O52   A    
C71   O42   S    
C62   C64   A    
C45   C69   S    
C17   O6    A    
C12   O2    A    
C15   C28   A    
C72   C74   S    
C47   O14   A    
C50   O17   A    
H11   O31   S    
H10   O30   S    
C15   C19   A    
C14   C27   A    
Br6   C74   S    
O2    Zn1   S    
O17   Zn6   S    
C4    H12   S    
C31   C33   A    
Br8   C31   S    
Br14  C55   S    
C70   O41   S    
C3    C5    S    
C40   C60   A    
H17   O37   S    
C35   C37   A    
Br3   C67   S    
C10   C13   T    
C52   O49   A    
H5    O25   S    
C48   O15   A    
C56   C70   S    
C4    C6    S    
O51   Zn5   S    
C57   C68   A    
C41   C61   A    
C54   C65   A    
C41   O35   S    
C60   O18   S    
H6    O26   S    
C2    C75   S    
C27   C29   A    
O50   Zn6   S    
C53   C64   A    
C28   C30   A    
C17   O4    A    
Br12  C33   S    
C49   O23   A    
C67   C69   S    
C30   C32   A    
C33   C36   A    
C7    C76   S    
C70   O24   S    
C44   O9    A    
H4    O24   S    
C53   C66   A    
C71   C73   S    
C12   C30   S    
O3    Zn1   S    
C14   C18   A    
C21   C24   A    
O15   Zn3   S    
C58   C60   A    
H19   O39   S    
C57   C59   A    
H20   O40   S    
C43   C46   S    
C40   C53   A    
C5    C45   S    
H18   O38   S    
C51   O45   A    
C37   C52   S    
C18   C20   A    
C55   C58   A    
C39   C63   A    
C45   C71   S    
O6    Zn1   S    
C69   O22   S    
H27   O47   S    
C34   C48   S    
H28   O48   S    
C44   O7    A    
Br7   C4    S    
H22   O42   S    
C62   H23   S    
H7    O27   S    
C63   C65   A    
H26   O46   S    
H3    O22   S    
C6    O21   S    
C29   C31   A    
O45   Zn5   S    
C61   O19   S    
O8    Zn4   S    
H21   O41   S    
C67   C76   S    
O23   Zn6   S    
C75   O26   S    
C6    O48   S    
O49   Zn6   S    
C36   C51   S    
C13   C17   S    
O1    Zn1   S    
O10   Zn3   S    
C50   C65   S    
Br13  C35   S    
C52   O51   A    
O4    Zn2   S    
C70   C75   S    
H32   O18   S    
C50   O34   A    
Br2   C57   S    
C16   O5    A    
C46   O10   A    
C6    C56   S    
Br4   C75   S    
C20   O29   S    
Br10  C14   S    
C11   C16   S    
C16   O3    A    
C2    C8    S    
H2    O21   S    
C72   O46   S    
C71   O44   S    
C22   C25   A    
C3    C76   S    
C5    O47   S    
C74   H31   S    
C63   H29   S    
C19   O28   S    
C39   C43   A    
C23   C47   S    
O9    Zn4   S    
C26   C37   A    
O5    Zn2   S    
Br1   C3    S    
O16   Zn5   S    
C42   C66   A    
C38   C62   A    
C54   C68   A    
C72   O43   S    
C1    C29   S    
C73   H30   S    
C59   O39   S    
C40   O33   S    
C24   C26   A    
C39   O37   S    
H15   O35   S    
O13   Zn4   S    
C67   O25   S    
O7    Zn3   S    
H9    O29   S    
C26   C28   A    
C19   C21   A    
C42   C44   S    
C20   C22   A    
C9    C11   T    
C48   O13   A    
O34   Zn5   S    
C12   O12   A    
O11   Zn3   S    
Br5   C73   S    
H13   O32   S    
Br9   C32   S    
C25   C36   A    
C7    C23   T    
Br11  C15   S    
C2    C4    S    
C1    O1    A    
C73   C76   S    
H33   O19   S    
C2    C74   S    
C58   O38   S    
C43   C68   A    
H34   O20   S    
C55   C66   A    
H25   O44   S    
C38   C42   A    
C22   O31   S    
H16   O36   S    
O52   Zn2   S    
C49   C64   S    
C56   C72   S    
