data_mof_unit_pretest_1538.cif
_audit_creation_date              2012-12-10T16:46:08-0500
_audit_creation_method            fapswitch 2.2
_symmetry_space_group_name_H-M    P1
_symmetry_Int_Tables_number       1
_space_group_crystal_system       triclinic
_cell_length_a                    18.509545
_cell_length_b                    18.509466
_cell_length_c                    34.461729
_cell_angle_alpha                 90.000292
_cell_angle_beta                  90.000888
_cell_angle_gamma                 90.0
_cell_volume                      11806.6501731

loop_
_atom_site_label
_atom_site_type_symbol
_atom_type_description
_atom_site_fract_x
_atom_site_fract_y
_atom_site_fract_z
_atom_type_partial_charge
C1    C     C_R   0.499999 0.000000 0.605907 0.816162
C2    C     C_R   0.999989 0.368394 0.229756 -0.214802
C3    C     C_R   0.500004 0.934305 0.668797 -0.253919
C4    C     C_R   0.434306 0.000002 0.168797 -0.253927
C5    C     C_R   0.999998 0.565695 0.168798 -0.253783
C6    C     C_R   0.565695 0.999998 0.168798 -0.253647
C7    C     C_R   0.999993 0.434305 0.168797 -0.253784
C8    C     C_R   0.000001 0.499998 0.648433 -0.045885
C9    C     C_R   0.499998 0.000000 0.648432 -0.045742
C10   C     C_R   0.500000 1.000000 0.148432 -0.045812
C11   C     C_R   0.999997 0.500000 0.148433 -0.045815
C12   C     C_R   0.066150 0.500004 0.709284 0.111320
C13   C     C_R   0.368395 0.000005 0.229755 -0.214822
C14   C     C_R   0.500004 0.933850 0.709283 0.111373
C15   C     C_R   0.933850 0.499991 0.709283 0.111357
C16   C     C_R   0.499991 0.066150 0.709283 0.111333
C17   C     C_R   0.566150 0.999997 0.209284 0.111305
C18   C     C_R   0.999992 0.433850 0.209283 0.111345
C19   C     C_R   0.433850 0.000002 0.209283 0.111385
C20   C     C_R   0.999997 0.566150 0.209284 0.111346
C21   C     C_R   1.000000 0.499997 0.729629 0.062600
C22   C     C_R   0.499997 1.000000 0.729628 0.062606
C23   C     C_R   0.500000 1.000000 0.229628 0.062592
C24   C     C_R   0.999999 0.631606 0.229757 -0.214811
C25   C     C_R   0.999995 0.500000 0.229628 0.062615
C26   C     C_R   0.631605 0.999995 0.270240 -0.215670
C27   C     C_R   0.999990 0.368394 0.270239 -0.215646
C28   C     C_R   0.368394 0.000005 0.270238 -0.215728
C29   C     C_R   1.000000 0.631606 0.270240 -0.215583
C30   C     C_R   0.131605 0.500010 0.770241 -0.215596
C31   C     C_R   0.500010 0.868394 0.770239 -0.215654
C32   C     C_R   0.868394 0.499985 0.770238 -0.215721
C33   C     C_R   0.000000 0.499999 0.605907 0.816491
C34   C     C_R   0.499984 0.131606 0.770239 -0.215656
C35   C     C_R   0.566150 0.999997 0.290713 0.111891
C36   C     C_R   0.999993 0.433849 0.290712 0.111907
C37   C     C_R   0.433849 0.000002 0.290712 0.111967
C38   C     C_R   0.999998 0.566151 0.290712 0.111831
C39   C     C_R   0.066150 0.500004 0.790713 0.111823
C40   C     C_R   0.500004 0.933849 0.790712 0.111899
C41   C     C_R   0.933849 0.499991 0.790712 0.111975
C42   C     C_R   0.499991 0.066151 0.790712 0.111898
C43   C     C_R   0.500000 1.000000 0.270367 0.062714
C44   C     C_R   0.999999 0.500000 0.105907 0.816329
C45   C     C_R   0.999995 0.500000 0.270367 0.062701
C46   C     C_R   0.999999 0.499997 0.770367 0.062711
C47   C     C_R   0.499997 1.000000 0.770367 0.062703
C48   C     C_R   0.565694 0.999997 0.331198 -0.254750
C49   C     C_R   0.999994 0.434304 0.331197 -0.254787
C50   C     C_R   0.434304 0.000002 0.331197 -0.254992
C51   C     C_R   1.000000 0.565695 0.331198 -0.254549
C52   C     C_R   0.065694 0.500005 0.831198 -0.254530
C53   C     C_R   0.500004 0.934304 0.831197 -0.254772
C54   C     C_R   0.934304 0.499992 0.831197 -0.255007
C55   C     C_R   0.500000 0.000000 0.105907 0.816324
C56   C     C_R   0.499992 0.065695 0.831198 -0.254770
C57   C     C_R   0.499999 1.000000 0.351560 -0.045008
C58   C     C_R   0.999998 0.500000 0.351560 -0.045056
C59   C     C_R   0.999999 0.499999 0.851560 -0.045032
C60   C     C_R   0.499999 1.000000 0.851560 -0.045033
C61   C     C_R   0.499999 0.000000 0.394083 0.818279
C62   C     C_R   1.000000 0.500000 0.394083 0.818411
C63   C     C_R   1.000000 0.500000 0.894082 0.818343
C64   C     C_R   0.500000 1.000000 0.894082 0.818346
C65   C     C_R   0.361335 0.138398 0.500159 0.853617
C66   C     C_R   0.131605 0.500010 0.729758 -0.214777
C67   C     C_R   0.861602 0.361335 0.500159 0.853558
C68   C     C_R   0.638665 0.861602 0.500159 0.853705
C69   C     C_R   0.138717 0.638347 0.499919 0.853561
C70   C     C_R   0.638347 0.138716 0.499919 0.853769
C71   C     C_R   0.138717 0.361653 0.499919 0.853641
C72   C     C_R   0.361334 0.861602 0.500159 0.853770
C73   C     C_R   0.861284 0.638347 0.499919 0.853695
C74   C     C_R   0.861335 0.638398 0.000159 0.853621
C75   C     C_R   0.361602 0.861334 0.000159 0.853710
C76   C     C_R   0.138347 0.361284 0.999919 0.853692
C77   C     C_R   0.500010 0.868394 0.729756 -0.214835
C78   C     C_R   0.638717 0.138347 0.999919 0.853636
C79   C     C_R   0.138347 0.638716 0.999919 0.853694
C80   C     C_R   0.638717 0.861653 0.999919 0.853637
C81   C     C_R   0.861335 0.361602 0.000159 0.853618
C82   C     C_R   0.361603 0.138665 0.000159 0.853708
C83   C     C_2   0.191909 0.751916 0.478040 -0.162017
C84   C     C_2   0.249343 0.193168 0.477090 -0.161797
C85   C     C_2   0.806832 0.249342 0.477091 -0.161983
C86   C     C_2   0.750658 0.806834 0.477092 -0.161996
C87   C     C_2   0.808091 0.751918 0.478041 -0.162052
C88   C     C_R   0.868395 0.499984 0.729755 -0.214789
C89   C     C_2   0.751915 0.191910 0.478040 -0.161868
C90   C     C_2   0.191910 0.248084 0.478039 -0.161822
C91   C     C_2   0.249342 0.806832 0.477090 -0.161797
C92   C     C_2   0.691910 0.251915 0.978039 -0.161831
C93   C     C_2   0.749343 0.693168 0.977090 -0.161787
C94   C     C_2   0.306833 0.749341 0.977091 -0.161992
C95   C     C_2   0.251916 0.308091 0.978040 -0.162057
C96   C     C_2   0.306833 0.250659 0.977091 -0.161991
C97   C     C_2   0.251916 0.691909 0.978040 -0.162056
C98   C     C_2   0.691910 0.748084 0.978039 -0.161832
C99   C     C_R   0.499984 0.131605 0.729757 -0.214805
C100  C     C_2   0.749343 0.306832 0.977090 -0.161789
C101  C     C_2   0.196102 0.691655 0.499532 -0.293401
C102  C     C_2   0.305461 0.193216 0.501709 -0.293358
C103  C     C_2   0.806784 0.305461 0.501709 -0.293333
C104  C     C_2   0.694540 0.806784 0.501710 -0.293311
C105  C     C_2   0.803899 0.691656 0.499532 -0.293347
C106  C     C_2   0.691656 0.196101 0.499532 -0.293408
C107  C     C_2   0.196102 0.308345 0.499532 -0.293458
C108  C     C_2   0.305460 0.806785 0.501710 -0.293331
C109  C     C_2   0.696102 0.191655 0.999532 -0.293458
C110  C     C_R   0.631605 0.999995 0.229758 -0.214771
C111  C     C_2   0.805461 0.693216 0.001709 -0.293356
C112  C     C_2   0.306785 0.805460 0.001709 -0.293309
C113  C     C_2   0.191656 0.303899 0.999532 -0.293349
C114  C     C_2   0.306785 0.194540 0.001709 -0.293308
C115  C     C_2   0.191656 0.696101 0.999532 -0.293350
C116  C     C_2   0.696102 0.808345 0.999532 -0.293459
C117  C     C_2   0.805461 0.306784 0.001709 -0.293354
C118  C     C_R   0.934306 0.499991 0.668797 -0.253792
C119  C     C_R   0.499991 0.065695 0.668798 -0.253779
C120  C     C_R   0.065695 0.500004 0.668798 -0.253651
H1    H     H_    0.144940 0.761554 0.459858 0.173775
H2    H     H_    0.744262 0.650755 0.955470 0.173887
H3    H     H_    0.349245 0.744259 0.955472 0.173751
H4    H     H_    0.261553 0.355060 0.959859 0.173747
H5    H     H_    0.349246 0.255741 0.955472 0.173751
H6    H     H_    0.261553 0.644939 0.959858 0.173746
H7    H     H_    0.644942 0.738447 0.959856 0.173931
H8    H     H_    0.744261 0.349244 0.955470 0.173887
H9    H     H_    0.242708 0.678976 0.517161 0.150048
H10   H     H_    0.311514 0.233195 0.524340 0.149931
H11   H     H_    0.766805 0.311515 0.524339 0.149956
H12   H     H_    0.244261 0.150755 0.455470 0.173882
H13   H     H_    0.688486 0.766804 0.524339 0.149979
H14   H     H_    0.757294 0.678977 0.517161 0.150100
H15   H     H_    0.678978 0.242706 0.517163 0.150064
H16   H     H_    0.242707 0.321024 0.517162 0.150013
H17   H     H_    0.311512 0.766807 0.524340 0.149954
H18   H     H_    0.742707 0.178976 0.017162 0.150013
H19   H     H_    0.811514 0.733195 0.024340 0.149930
H20   H     H_    0.266806 0.811513 0.024340 0.149979
H21   H     H_    0.178977 0.257293 0.017162 0.150099
H22   H     H_    0.266806 0.188486 0.024339 0.149979
H23   H     H_    0.849245 0.244259 0.455471 0.173773
H24   H     H_    0.178977 0.742707 0.017162 0.150099
H25   H     H_    0.742707 0.821024 0.017162 0.150014
H26   H     H_    0.811514 0.266806 0.024340 0.149931
H27   H     H_    0.883445 0.499986 0.653189 0.166797
H28   H     H_    0.499986 0.116556 0.653190 0.166797
H29   H     H_    0.116556 0.500009 0.653191 0.166848
H30   H     H_    0.500009 0.883444 0.653190 0.166745
H31   H     H_    0.383445 0.000004 0.153189 0.166745
H32   H     H_    1.000000 0.616556 0.153191 0.166797
H33   H     H_    0.616555 0.999996 0.153191 0.166848
H34   H     H_    0.755740 0.849248 0.455473 0.173748
H35   H     H_    0.999991 0.383445 0.153190 0.166797
H36   H     H_    0.182757 0.500015 0.714463 0.147271
H37   H     H_    0.500015 0.817242 0.714461 0.147237
H38   H     H_    0.817243 0.499979 0.714459 0.147253
H39   H     H_    0.499979 0.182758 0.714462 0.147253
H40   H     H_    0.682757 0.999993 0.214463 0.147269
H41   H     H_    0.999987 0.317242 0.214461 0.147253
H42   H     H_    0.317243 0.000007 0.214459 0.147236
H43   H     H_    0.000001 0.682758 0.214462 0.147255
H44   H     H_    0.682757 0.999993 0.285537 0.146271
H45   H     H_    0.855060 0.761556 0.459859 0.173751
H46   H     H_    0.999988 0.317242 0.285534 0.146273
H47   H     H_    0.317242 0.000007 0.285533 0.146230
H48   H     H_    0.000002 0.682758 0.285535 0.146315
H49   H     H_    0.182757 0.500015 0.785537 0.146314
H50   H     H_    0.500015 0.817242 0.785534 0.146272
H51   H     H_    0.817242 0.499980 0.785533 0.146231
H52   H     H_    0.499980 0.182758 0.785536 0.146272
H53   H     H_    0.616553 0.999995 0.346809 0.165107
H54   H     H_    0.999993 0.383445 0.346807 0.165124
H55   H     H_    0.383445 0.000004 0.346806 0.164982
H56   H     H_    0.761551 0.144942 0.459857 0.173902
H57   H     H_    0.000002 0.616554 0.346808 0.165249
H58   H     H_    0.116553 0.500010 0.846808 0.165241
H59   H     H_    0.500009 0.883445 0.846807 0.165115
H60   H     H_    0.883445 0.499988 0.846807 0.164991
H61   H     H_    0.499987 0.116554 0.846808 0.165115
H62   H     H_    0.144942 0.238447 0.459856 0.173937
H63   H     H_    0.244260 0.849244 0.455471 0.173864
H64   H     H_    0.644942 0.261552 0.959856 0.173932
O1    O     O_3   0.500000 1.000000 0.500000 -0.484209
O2    O     O_R   0.560130 1.000000 0.087440 -0.648034
O3    O     O_R   1.000000 0.560130 0.087440 -0.648320
O4    O     O_R   0.439870 1.000000 0.087440 -0.648606
O5    O     O_R   0.439940 0.000000 0.412560 -0.650410
O6    O     O_R   0.000000 0.439940 0.412560 -0.650227
O7    O     O_R   0.560060 0.000000 0.412560 -0.650126
O8    O     O_R   0.000000 0.560060 0.412560 -0.649945
O9    O     O_R   0.939940 0.500000 0.912560 -0.650459
O10   O     O_R   0.500000 0.939940 0.912560 -0.650177
O11   O     O_R   0.060060 0.500000 0.912560 -0.649895
O12   O     O_3   0.000000 0.500000 0.500000 -0.484208
O13   O     O_R   0.500000 0.060060 0.912560 -0.650176
O14   O     O_R   0.415450 0.144560 0.522930 -0.645131
O15   O     O_R   0.855440 0.415450 0.522930 -0.645076
O16   O     O_R   0.584550 0.855440 0.522930 -0.644785
O17   O     O_R   0.144560 0.584550 0.522930 -0.645082
O18   O     O_R   0.584550 0.144560 0.522930 -0.644853
O19   O     O_R   0.144560 0.415450 0.522930 -0.645142
O20   O     O_R   0.415450 0.855440 0.522930 -0.644847
O21   O     O_R   0.855440 0.584550 0.522930 -0.644800
O22   O     O_R   0.915450 0.644560 0.022930 -0.645135
O23   O     O_3   0.000000 0.500000 0.000000 -0.484208
O24   O     O_R   0.355440 0.915450 0.022930 -0.644788
O25   O     O_R   0.084550 0.355440 0.022930 -0.644798
O26   O     O_R   0.644560 0.084550 0.022930 -0.645137
O27   O     O_R   0.084550 0.644560 0.022930 -0.644799
O28   O     O_R   0.644560 0.915450 0.022930 -0.645138
O29   O     O_R   0.915450 0.355440 0.022930 -0.645135
O30   O     O_R   0.355440 0.084550 0.022930 -0.644788
O31   O     O_R   0.644640 0.915430 0.477080 -0.644272
O32   O     O_R   0.084570 0.644640 0.477080 -0.644229
O33   O     O_R   0.355360 0.084570 0.477080 -0.643994
O34   O     O_3   0.500000 0.000000 0.000000 -0.484209
O35   O     O_R   0.915430 0.355360 0.477080 -0.644228
O36   O     O_R   0.355360 0.915430 0.477080 -0.644020
O37   O     O_R   0.915430 0.644640 0.477080 -0.644252
O38   O     O_R   0.644640 0.084570 0.477080 -0.644026
O39   O     O_R   0.084570 0.355360 0.477080 -0.643984
O40   O     O_R   0.144640 0.415430 0.977080 -0.644261
O41   O     O_R   0.584570 0.144640 0.977080 -0.643995
O42   O     O_R   0.855360 0.584570 0.977080 -0.643983
O43   O     O_R   0.415430 0.855360 0.977080 -0.644263
O44   O     O_R   0.855360 0.415430 0.977080 -0.643985
O45   O     O_R   0.500000 0.939870 0.587440 -0.648587
O46   O     O_R   0.415430 0.144640 0.977080 -0.644264
O47   O     O_R   0.144640 0.584570 0.977080 -0.644261
O48   O     O_R   0.584570 0.855360 0.977080 -0.643995
O49   O     O_R   0.060130 0.500000 0.587440 -0.648053
O50   O     O_R   0.500000 0.060130 0.587440 -0.648300
O51   O     O_R   0.939870 0.500000 0.587440 -0.648338
O52   O     O_R   0.000000 0.439870 0.087440 -0.648319
Zn1   Zn    Zn3+2 0.414160 0.000000 0.467250 0.962208
Zn2   Zn    Zn3+2 0.914220 0.500000 0.532750 0.968000
Zn3   Zn    Zn3+2 0.500000 0.914220 0.532750 0.967922
Zn4   Zn    Zn3+2 0.085780 0.500000 0.532750 0.967905
Zn5   Zn    Zn3+2 0.000000 0.585780 0.032750 0.967913
Zn6   Zn    Zn3+2 0.414220 0.000000 0.032750 0.968009
Zn7   Zn    Zn3+2 1.000000 0.414220 0.032750 0.967912
Zn8   Zn    Zn3+2 0.585780 0.000000 0.032750 0.967816
Zn9   Zn    Zn3+2 0.000000 0.414160 0.467250 0.962139
Zn10  Zn    Zn3+2 0.585840 0.000000 0.467250 0.962264
Zn11  Zn    Zn3+2 0.000000 0.585840 0.467250 0.962202
Zn12  Zn    Zn3+2 0.914160 0.500000 0.967250 0.962145
Zn13  Zn    Zn3+2 0.500000 0.914160 0.967250 0.962201
Zn14  Zn    Zn3+2 0.085840 0.500000 0.967250 0.962265
Zn15  Zn    Zn3+2 0.500000 0.085840 0.967250 0.962201
Zn16  Zn    Zn3+2 0.500000 0.085780 0.532750 0.967823

loop_
_geom_bond_atom_site_label_1
_geom_bond_atom_site_label_2
_ccdc_geom_bond_type
C76   O25   A    
C70   O18   A    
C40   C47   A    
O18   Zn16  S    
O22   Zn5   S    
C58   C62   S    
C67   O35   A    
C81   O44   A    
C91   H63   S    
O12   Zn9   S    
C2    C18   A    
C48   C57   A    
C84   C102  D    
O34   Zn15  S    
C112  H20   S    
O4    Zn6   S    
C95   C96   S    
C34   C42   A    
O14   Zn16  S    
O3    Zn5   S    
O5    Zn1   S    
O23   Zn12  S    
O25   Zn7   S    
C8    C118  A    
C13   H42   S    
C62   O6    A    
C5    C20   A    
O12   Zn2   S    
O39   Zn9   S    
O32   Zn11  S    
C69   O17   A    
C18   C25   A    
C8    C120  A    
C75   C112  S    
C17   C23   A    
C5    H32   S    
C114  H22   S    
C29   H48   S    
C118  H27   S    
O49   Zn4   S    
O24   Zn6   S    
C90   C107  D    
C48   H53   S    
C67   O15   A    
C73   O37   A    
O23   Zn5   S    
C5    C11   A    
O12   Zn4   S    
C116  H25   S    
C92   C109  D    
C55   O2    A    
C20   C25   A    
O13   Zn15  S    
C32   C88   A    
O11   Zn14  S    
C81   C117  S    
C23   C43   A    
C31   C40   A    
C66   H36   S    
C14   C77   A    
C94   C112  D    
C6    C17   A    
C68   O31   A    
O27   Zn5   S    
C24   C29   A    
C38   C45   A    
C15   C88   A    
C28   H47   S    
C42   C56   A    
C12   C120  A    
C4    C19   A    
C73   C105  S    
O1    Zn1   S    
C20   C24   A    
C92   H64   S    
O6    Zn9   S    
C64   O10   A    
C89   C106  D    
C30   C39   A    
C41   C46   A    
O35   Zn9   S    
C13   C28   A    
C2    C27   A    
C88   H38   S    
C97   C115  D    
C35   C43   A    
C78   O26   A    
C85   C103  D    
O40   Zn14  S    
C72   O20   A    
C94   H3    S    
C78   O41   A    
C22   C47   A    
C82   O46   A    
C86   C104  D    
O41   Zn15  S    
C82   O30   A    
C64   O13   A    
C17   C110  A    
C61   O5    A    
C96   C114  D    
C69   O32   A    
C84   C90   S    
C65   C102  S    
C80   O48   A    
O20   Zn3   S    
C35   C48   A    
C53   H59   S    
C2    H41   S    
C80   O28   A    
C49   H54   S    
C53   C60   A    
C60   C64   S    
C31   C77   A    
C54   C59   A    
C72   O36   A    
C81   O29   A    
C59   C63   S    
C71   O39   A    
C104  H13   S    
C13   C19   A    
O33   Zn1   S    
C111  H19   S    
O1    Zn3   S    
C90   H62   S    
O29   Zn7   S    
C1    C9    S    
C93   H2    S    
C82   C114  S    
C79   C115  S    
C70   C106  S    
C16   C119  A    
O50   Zn16  S    
C74   C111  S    
C85   C89   S    
C86   C87   S    
C62   O8    A    
C38   C51   A    
O37   Zn11  S    
C94   C97   S    
C119  H28   S    
C67   C103  S    
C12   C66   A    
C12   C21   A    
C84   H12   S    
C76   O40   A    
C49   C58   A    
C56   C60   A    
C109  H18   S    
C29   C38   A    
C71   O19   A    
C33   O49   A    
C30   H49   S    
C107  H16   S    
C3    C9    A    
C52   C59   A    
O23   Zn7   S    
C75   O24   A    
C26   C35   A    
C98   C116  D    
C87   C105  D    
C1    O50   A    
C32   C41   A    
C7    C18   A    
C44   O52   A    
C63   O9    A    
C76   C113  S    
C120  H29   S    
O10   Zn13  S    
C36   C45   A    
C54   H60   S    
C51   C58   A    
C55   O4    A    
C83   H1    S    
O42   Zn12  S    
C10   C55   S    
O8    Zn11  S    
C79   O47   A    
O19   Zn4   S    
C30   C66   A    
C3    C14   A    
C93   C111  D    
C39   C46   A    
C26   C110  A    
C106  H15   S    
C32   H51   S    
O34   Zn8   S    
O12   Zn11  S    
C110  H40   S    
C9    C119  A    
O51   Zn2   S    
C63   O11   A    
C37   C43   A    
O48   Zn13  S    
C24   H43   S    
C99   H39   S    
C4    C10   A    
O46   Zn15  S    
O15   Zn2   S    
C25   C45   A    
C34   H52   S    
C92   C100  S    
O17   Zn4   S    
C21   C46   A    
C74   O22   A    
C4    H31   S    
C73   O21   A    
C115  H24   S    
C98   H7    S    
C3    H30   S    
C16   C22   A    
C83   C101  D    
C71   C107  S    
C100  H8    S    
C50   C57   A    
O52   Zn7   S    
C91   C108  D    
C80   C116  S    
O30   Zn6   S    
C102  H10   S    
C97   H6    S    
C33   O51   A    
C6    C10   A    
C85   H23   S    
C16   C99   A    
C57   C61   S    
O44   Zn12  S    
C31   H50   S    
C69   C101  S    
C27   C36   A    
C34   C99   A    
C95   H4    S    
C15   C118  A    
O43   Zn13  S    
C68   O16   A    
C14   C22   A    
C70   O38   A    
C75   O43   A    
O45   Zn3   S    
C86   H34   S    
O16   Zn3   S    
O26   Zn8   S    
C74   O42   A    
C51   H57   S    
O1    Zn16  S    
O2    Zn8   S    
C37   C50   A    
O38   Zn10  S    
C108  H17   S    
C65   O33   A    
C28   C37   A    
C95   C113  D    
C83   C91   S    
C26   H44   S    
O34   Zn13  S    
O9    Zn12  S    
C113  H21   S    
C96   H5    S    
C39   C52   A    
C78   C109  S    
C8    C33   S    
O34   Zn6   S    
C41   C54   A    
C72   C108  S    
O21   Zn2   S    
O36   Zn1   S    
O23   Zn14  S    
C52   H58   S    
C11   C44   S    
C44   O3    A    
C6    H33   S    
C87   H45   S    
C27   H46   S    
C65   O14   A    
C117  H26   S    
C1    O45   A    
C19   C23   A    
C15   C21   A    
C42   C47   A    
C7    H35   S    
O31   Zn10  S    
O28   Zn8   S    
C40   C53   A    
C56   H61   S    
C77   H37   S    
C61   O7    A    
O7    Zn10  S    
C50   H55   S    
C100  C117  D    
C68   C104  S    
C89   H56   S    
C79   O27   A    
O47   Zn14  S    
C103  H11   S    
C93   C98   S    
C36   C49   A    
C7    C11   A    
O1    Zn10  S    
C105  H14   S    
C101  H9    S    
