data_mof_unit_pretest_542.cif
_audit_creation_date              2012-12-11T17:14:53-0500
_audit_creation_method            fapswitch 2.2
_symmetry_space_group_name_H-M    P1
_symmetry_Int_Tables_number       1
_space_group_crystal_system       triclinic
_cell_length_a                    7.238456
_cell_length_b                    12.117884
_cell_length_c                    21.323104
_cell_angle_alpha                 89.999869
_cell_angle_beta                  90.607481
_cell_angle_gamma                 89.999968
_cell_volume                      1870.2460404

loop_
_atom_site_label
_atom_site_type_symbol
_atom_type_description
_atom_site_fract_x
_atom_site_fract_y
_atom_site_fract_z
_atom_type_partial_charge
O1    O     O_R   0.354460 0.152320 0.595720 -0.534704
O2    O     O_R   0.645540 0.847680 0.404280 -0.534704
O3    O     O_R   0.145540 0.652320 0.404280 -0.534704
O4    O     O_R   0.854460 0.347680 0.595720 -0.534703
O5    O     O_R   0.683670 0.140090 0.727290 -0.533218
O6    O     O_R   0.316330 0.859910 0.272710 -0.533215
O7    O     O_R   0.816330 0.640090 0.272710 -0.533217
O8    O     O_R   0.183670 0.359910 0.727290 -0.533218
O9    O     O_R   0.854010 0.349340 0.727750 -0.531606
O10   O     O_R   0.145990 0.650660 0.272250 -0.531607
O11   O     O_R   0.645990 0.849340 0.272250 -0.531607
O12   O     O_R   0.354010 0.150660 0.727750 -0.531605
C1    C     C_R   0.516508 0.111938 0.746749 0.700458
C2    C     C_R   0.483492 0.888061 0.253251 0.700459
C3    C     C_R   0.983492 0.611942 0.253249 0.700464
C4    C     C_R   0.016508 0.388058 0.746750 0.700463
O13   O     O_R   0.684170 0.139420 0.596190 -0.536652
O14   O     O_R   0.315830 0.860580 0.403810 -0.536652
O15   O     O_R   0.815830 0.639420 0.403810 -0.536652
O16   O     O_R   0.184170 0.360580 0.596190 -0.536652
C5    C     C_R   0.515097 0.113173 0.574481 0.708350
C6    C     C_R   0.484903 0.886827 0.425519 0.708351
C7    C     C_R   0.984903 0.613173 0.425519 0.708354
C8    C     C_R   0.015097 0.386827 0.574481 0.708354
O17   O     O_3   0.520730 0.319480 0.661730 -0.373539
O18   O     O_3   0.479270 0.680520 0.338270 -0.373539
O19   O     O_3   0.979270 0.819480 0.338270 -0.373541
O20   O     O_3   0.020730 0.180520 0.661730 -0.373540
V1    V     V_3+5 0.795560 0.238090 0.661730 1.475048
V2    V     V_3+5 0.204440 0.761910 0.338270 1.475048
V3    V     V_3+5 0.704440 0.738090 0.338270 1.475048
V4    V     V_3+5 0.295560 0.261910 0.661730 1.475048
C9    C     C_R   0.011967 0.466834 0.798374 -0.060143
C10   C     C_R   0.988038 0.533167 0.201625 -0.060143
C11   C     C_R   0.488038 0.966837 0.201626 -0.060145
C12   C     C_R   0.511967 0.033162 0.798373 -0.060145
C13   C     C_R   0.012914 0.654696 0.836401 0.212494
C14   C     C_R   0.987150 0.345305 0.163599 0.212495
C15   C     C_R   0.487152 0.154698 0.163597 0.212496
C16   C     C_R   0.512916 0.845299 0.836402 0.212494
C17   C     C_R   0.015760 0.579852 0.786752 -0.124680
C18   C     C_R   0.984282 0.420149 0.213248 -0.124682
C19   C     C_R   0.484285 0.079856 0.213247 -0.124684
C20   C     C_R   0.515758 0.920143 0.786752 -0.124682
C21   C     C_R   0.005946 0.427246 0.859569 -0.202974
C22   C     C_R   0.994047 0.572755 0.140430 -0.202976
C23   C     C_R   0.494046 0.927248 0.140431 -0.202971
C24   C     C_R   0.505951 0.072749 0.859568 -0.202970
C25   C     C_R   0.004787 0.499934 0.911368 0.065512
C26   C     C_R   0.995256 0.500069 0.088632 0.065512
C27   C     C_R   0.495261 0.999933 0.088632 0.065509
C28   C     C_R   0.504794 0.000063 0.911368 0.065509
C29   C     C_R   0.007915 0.615496 0.898940 0.095378
C30   C     C_R   0.992153 0.384506 0.101060 0.095379
C31   C     C_R   0.492157 0.115496 0.101058 0.095377
C32   C     C_R   0.507924 0.884500 0.898941 0.095376
C33   C     C_R   0.000768 0.461224 0.974823 0.072450
C34   C     C_R   0.999295 0.538779 0.025177 0.072449
C35   C     C_R   0.499306 0.961221 0.025177 0.072448
C36   C     C_R   0.500774 0.038774 0.974823 0.072450
C37   C     C_R   0.001630 0.652528 0.010420 -0.200978
C38   C     C_R   0.998469 0.347475 0.989580 -0.200978
C39   C     C_R   0.498469 0.152525 0.989578 -0.200978
C40   C     C_R   0.501654 0.847471 0.010422 -0.200977
C41   C     C_R   0.005968 0.689530 0.949002 -0.161947
C42   C     C_R   0.994135 0.310473 0.050999 -0.161948
C43   C     C_R   0.494136 0.189528 0.050996 -0.161949
C44   C     C_R   0.505988 0.810468 0.949003 -0.161948
H1    H     H_    0.007926 0.777731 0.941502 0.171555
H2    H     H_    0.992209 0.222272 0.058498 0.171555
H3    H     H_    0.492207 0.277730 0.058495 0.171555
H4    H     H_    0.507953 0.722266 0.941505 0.171555
H5    H     H_    0.996747 0.661093 0.135455 0.102966
H6    H     H_    0.003192 0.338908 0.864544 0.102966
H7    H     H_    0.503201 0.161087 0.864543 0.102967
H8    H     H_    0.496739 0.838910 0.135456 0.102967
H9    H     H_    0.979709 0.390123 0.261062 0.137649
H10   H     H_    0.020340 0.609877 0.738938 0.137649
H11   H     H_    0.520332 0.890116 0.738938 0.137650
H12   H     H_    0.479713 0.109883 0.261061 0.137651
C45   C     C_1   0.995389 0.533149 0.478069 -0.162201
C46   C     C_1   0.004611 0.466851 0.521931 -0.162201
C47   C     C_1   0.504611 0.033149 0.521931 -0.162200
C48   C     C_1   0.495389 0.966850 0.478069 -0.162200
I1    I     I_    0.015076 0.825292 0.811783 -0.451382
I2    I     I_    0.985002 0.174709 0.188216 -0.451381
I3    I     I_    0.485001 0.325295 0.188213 -0.451380
I4    I     I_    0.515076 0.674703 0.811786 -0.451381
H13   H     H_    0.000211 0.716716 0.045209 0.132160
H14   H     H_    0.999933 0.283287 0.954791 0.132160
H15   H     H_    0.499928 0.216711 0.954789 0.132160
H16   H     H_    0.500249 0.783284 0.045212 0.132160

loop_
_geom_bond_atom_site_label_1
_geom_bond_atom_site_label_2
_ccdc_geom_bond_type
O1    C5    A    
C9    C21   A    
O3    C7    A    
C10   C18   A    
C15   I3    S    
C11   C23   A    
C45   C46   T    
C25   C33   A    
C33   C38   A    
C35   C40   A    
C26   C30   A    
C14   I2    S    
C36   C39   A    
C40   C44   A    
C13   I1    S    
O20   V1    S    
O9    C4    A    
C23   H8    S    
C14   C18   A    
O10   C3    A    
O4    C8    A    
O11   C2    A    
C25   C29   A    
C43   H3    S    
O13   V1    S    
C8    C46   S    
C28   C36   A    
C15   C31   A    
O16   C8    A    
C16   C32   A    
O2    C6    A    
C10   C22   A    
C11   C19   A    
C3    C10   S    
O5    C1    A    
O4    V1    S    
O9    V1    S    
C13   C29   A    
C34   C37   A    
O7    C3    A    
O15   V3    S    
C35   C36   A    
O8    C4    A    
O12   V4    S    
O19   V2    S    
C24   H7    S    
C37   H13   S    
O5    V1    S    
C39   C43   A    
O7    V3    S    
C38   C42   A    
C26   C34   A    
C5    C47   S    
C1    C12   S    
C17   H10   S    
C23   C27   A    
C19   H12   S    
C32   C44   A    
O1    V4    S    
O13   C5    A    
O2    V3    S    
C6    C48   S    
O3    V2    S    
O15   C7    A    
C4    C9    S    
O6    C2    A    
O10   V2    S    
C31   C43   A    
C47   C48   T    
C14   C30   A    
C21   C25   A    
C44   H4    S    
O14   V2    S    
O6    V2    S    
C16   C20   A    
C12   C20   A    
C27   C35   A    
C40   H16   S    
C2    C11   S    
C29   C41   A    
O16   V4    S    
C7    C45   S    
O14   C6    A    
O18   V3    S    
C20   H11   S    
C15   C19   A    
C30   C42   A    
C22   C26   A    
C9    C17   A    
C16   I4    S    
C33   C34   A    
C42   H2    S    
O8    V4    S    
O17   V4    S    
C41   H1    S    
C38   H14   S    
C12   C24   A    
C27   C31   A    
C13   C17   A    
O11   V3    S    
C37   C41   A    
C24   C28   A    
O12   C1    A    
C18   H9    S    
C39   H15   S    
C21   H6    S    
C22   H5    S    
C28   C32   A    
