data_mof_unit_pretest_1236.cif
_audit_creation_date              2012-12-10T18:24:02-0500
_audit_creation_method            fapswitch 2.2
_symmetry_space_group_name_H-M    P1
_symmetry_Int_Tables_number       1
_space_group_crystal_system       triclinic
_cell_length_a                    15.707842
_cell_length_b                    14.846337
_cell_length_c                    14.134251
_cell_angle_alpha                 92.087913
_cell_angle_beta                  90.868784
_cell_angle_gamma                 89.209152
_cell_volume                      3293.30611373

loop_
_atom_site_label
_atom_site_type_symbol
_atom_type_description
_atom_site_fract_x
_atom_site_fract_y
_atom_site_fract_z
_atom_type_partial_charge
C1    C     C_R   0.500237 0.327326 0.498836 0.895044
C2    C     C_R   0.497042 0.047948 0.521686 -0.088519
C3    C     C_R   0.416925 0.907758 0.512159 0.081214
C4    C     C_R   0.576140 0.093532 0.529967 0.079359
C5    C     C_R   0.650072 0.951881 0.555691 0.421001
C6    C     C_R   0.341039 0.051699 0.509089 0.411072
C7    C     C_R   0.652641 0.044369 0.543480 0.019053
C8    C     C_R   0.339894 0.957700 0.503958 0.025263
C9    C     C_R   0.439365 0.548455 0.800290 0.494762
C10   C     C_R   0.547777 0.435917 0.200744 0.445651
C11   C     C_R   0.564313 0.456710 0.797804 0.483858
C12   C     C_R   0.498084 0.672550 0.501633 0.900126
C13   C     C_R   0.448998 0.558285 0.200824 0.461484
C14   C     C_R   0.559357 0.444388 0.897505 -0.164509
C15   C     C_R   0.436100 0.544796 0.101128 -0.141230
C16   C     C_R   0.338175 0.500642 0.499407 0.879420
C17   C     C_R   0.661808 0.499823 0.500629 0.894847
C18   C     C_R   0.495559 0.491374 0.949051 -0.058011
C19   C     C_R   0.495732 0.491422 0.049937 -0.027513
C20   C     C_R   0.432188 0.539747 0.899881 -0.116876
C21   C     C_R   0.555983 0.439478 0.099874 -0.170112
C22   C     C_R   0.616444 0.387414 0.947223 0.126513
C23   C     C_R   0.496480 0.767941 0.507037 -0.119476
C24   C     C_R   0.365749 0.582314 0.051339 0.050180
C25   C     C_R   0.618361 0.389309 0.046914 0.130039
C26   C     C_R   0.362774 0.577136 0.951410 0.129359
C27   C     C_3   0.974277 0.418964 0.491007 0.341851
C28   C     C_3   0.026017 0.590332 0.502006 0.449228
C29   C     C_3   0.028398 0.464856 0.416915 -0.112051
C30   C     C_3   0.972320 0.545340 0.576515 -0.122820
C31   C     C_1   0.249610 0.503235 0.498297 -0.164674
C32   C     C_1   0.750316 0.500705 0.501574 -0.189137
C33   C     C_3   0.029453 0.460550 0.572223 0.354797
C34   C     C_R   0.501141 0.231810 0.498636 -0.111474
C35   C     C_3   0.970146 0.548898 0.421193 0.379235
C36   C     C_3   0.083935 0.505864 0.497598 -0.087164
C37   C     C_3   0.915709 0.504132 0.496299 -0.142957
C38   C     C_1   0.174502 0.505230 0.497930 0.101836
C39   C     C_1   0.825338 0.502036 0.499977 0.030078
C40   C     C_R   0.418000 0.813158 0.508648 -0.004339
C41   C     C_R   0.575916 0.187540 0.526331 0.011954
C42   C     C_3   0.007186 0.265523 0.487535 0.115473
C43   C     C_3   0.991501 0.191093 0.412003 -0.366628
C44   C     C_3   0.061986 0.119296 0.413291 -0.928983
C45   C     C_R   0.573854 0.811365 0.518030 0.014160
C46   C     C_3   0.993713 0.743099 0.504299 0.137692
C47   C     C_3   0.027511 0.834598 0.539446 -0.364770
C48   C     C_3   0.957343 0.906833 0.540602 -0.957871
C49   C     C_3   0.881659 0.553492 0.287953 0.113233
C50   C     C_3   0.877152 0.593940 0.190022 -0.325944
C51   C     C_3   0.812005 0.546125 0.125447 -0.978821
C52   C     C_3   0.004398 0.379056 0.706850 0.105028
C53   C     C_3   0.015700 0.414687 0.809148 -0.339882
C54   C     C_3   0.945402 0.381557 0.872141 -0.976080
C55   C     C_3   0.720485 0.885117 0.678861 0.038608
C56   C     C_R   0.424369 0.187802 0.484204 0.018890
C57   C     C_3   0.745139 0.963911 0.746461 -0.366847
C58   C     C_3   0.747557 0.935585 0.849161 -0.953893
C59   C     C_3   0.250214 0.137820 0.602831 0.063349
C60   C     C_3   0.206240 0.072965 0.667686 -0.376618
C61   C     C_3   0.181338 0.120258 0.761079 -0.942895
C62   C     C_3   0.439695 0.695522 0.756336 0.143303
C63   C     C_3   0.421857 0.758775 0.842016 -0.416753
C64   C     C_3   0.468823 0.847546 0.834044 -0.966219
C65   C     C_3   0.538191 0.286599 0.230534 0.088709
C66   C     C_3   0.586839 0.206044 0.270454 -0.314732
C67   C     C_R   0.573887 0.905006 0.534780 -0.045664
C68   C     C_3   0.534838 0.119978 0.262003 -0.967361
C69   C     C_3   0.703361 0.502496 0.780440 0.089564
C70   C     C_3   0.675998 0.602692 0.777355 -0.375373
C71   C     C_3   0.750372 0.664626 0.801503 -1.005148
C72   C     C_3   0.466097 0.708848 0.225946 0.083387
C73   C     C_3   0.418858 0.797150 0.251366 -0.332349
C74   C     C_3   0.478931 0.877166 0.256703 -0.957194
C75   C     C_R   0.419748 0.096476 0.505900 -0.044893
C76   C     C_R   0.495731 0.953626 0.524465 -0.095169
H1    H     H_    0.014045 0.383156 0.299142 0.188984
H2    H     H_    0.670643 0.279534 0.108296 0.199181
H3    H     H_    0.237187 0.564729 0.921349 0.194769
H4    H     H_    0.271870 0.671843 0.925255 0.183671
H5    H     H_    0.005523 0.235074 0.557964 0.144596
H6    H     H_    0.072361 0.292552 0.478472 0.133019
H7    H     H_    0.929396 0.158973 0.424826 0.233792
H8    H     H_    0.988677 0.220793 0.340977 0.219695
H9    H     H_    0.124023 0.149291 0.396106 0.285516
H10   H     H_    0.047478 0.064891 0.359736 0.262381
H11   H     H_    0.066869 0.089382 0.484024 0.269606
H12   H     H_    0.111441 0.378956 0.348808 0.181263
H13   H     H_    0.938217 0.726335 0.548201 0.154704
H14   H     H_    0.972149 0.748655 0.429461 0.185757
H15   H     H_    0.054247 0.828932 0.612309 0.234006
H16   H     H_    0.079243 0.855250 0.492378 0.232870
H17   H     H_    0.930608 0.915029 0.468170 0.273006
H18   H     H_    0.983966 0.972166 0.566660 0.257298
H19   H     H_    0.905625 0.888297 0.588641 0.290971
H20   H     H_    0.818575 0.563049 0.321633 0.152975
H21   H     H_    0.896151 0.480084 0.279226 0.148377
H22   H     H_    0.859438 0.666578 0.197577 0.223260
H23   H     H_    0.992863 0.609786 0.703836 0.213493
H24   H     H_    0.940786 0.588258 0.156777 0.235230
H25   H     H_    0.831331 0.474525 0.112804 0.270593
H26   H     H_    0.808572 0.579099 0.056192 0.266047
H27   H     H_    0.747912 0.549656 0.157689 0.267036
H28   H     H_    0.014432 0.304904 0.705950 0.136771
H29   H     H_    0.937481 0.391337 0.682389 0.145288
H30   H     H_    0.078514 0.391726 0.837224 0.229907
H31   H     H_    0.014684 0.489471 0.811684 0.221190
H32   H     H_    0.882249 0.406243 0.846933 0.252148
H33   H     H_    0.956006 0.407640 0.945953 0.272494
H34   H     H_    0.904783 0.546173 0.698453 0.185935
H35   H     H_    0.945641 0.306719 0.871713 0.269091
H36   H     H_    0.339467 0.719459 0.444840 0.202947
H37   H     H_    0.337100 0.722881 0.564063 0.194330
H38   H     H_    0.666526 0.278351 0.493928 0.184619
H39   H     H_    0.639105 0.280076 0.610034 0.226283
H40   H     H_    0.690247 0.791267 0.456149 0.223750
H41   H     H_    0.681545 0.747308 0.566927 0.203674
H42   H     H_    0.325782 0.196191 0.388045 0.215676
H43   H     H_    0.311109 0.257704 0.492392 0.195975
H44   H     H_    0.767360 0.829580 0.689078 0.173902
H45   H     H_    0.628383 0.286239 0.846222 0.201709
H46   H     H_    0.657015 0.858722 0.697756 0.139023
H47   H     H_    0.809148 0.988300 0.728014 0.225339
H48   H     H_    0.698025 0.019907 0.739874 0.219322
H49   H     H_    0.684483 0.910204 0.869563 0.262053
H50   H     H_    0.763732 0.994525 0.896309 0.269461
H51   H     H_    0.796723 0.882131 0.859060 0.266605
H52   H     H_    0.207405 0.197256 0.593973 0.169656
H53   H     H_    0.309743 0.163682 0.637569 0.138935
H54   H     H_    0.147836 0.046278 0.631990 0.221361
H55   H     H_    0.250024 0.015769 0.683116 0.215990
H56   H     H_    0.719813 0.344512 0.868988 0.203343
H57   H     H_    0.238721 0.147009 0.798781 0.266332
H58   H     H_    0.150256 0.071509 0.806782 0.264173
H59   H     H_    0.135888 0.176630 0.748062 0.260549
H60   H     H_    0.766688 0.081083 0.602820 0.203894
H61   H     H_    0.769586 0.053573 0.485479 0.204462
H62   H     H_    0.219088 0.928246 0.541341 0.196224
H63   H     H_    0.233005 0.938618 0.423487 0.209063
H64   H     H_    0.419949 0.732645 0.693218 0.175131
H65   H     H_    0.509561 0.683617 0.750569 0.116947
H66   H     H_    0.352542 0.773698 0.845665 0.237384
H67   H     H_    0.275089 0.573616 0.151992 0.223204
H68   H     H_    0.443747 0.727265 0.908170 0.220018
H69   H     H_    0.538619 0.834897 0.831097 0.258316
H70   H     H_    0.455150 0.892248 0.896821 0.270340
H71   H     H_    0.447658 0.882381 0.769321 0.268402
H72   H     H_    0.527671 0.272492 0.153336 0.114804
H73   H     H_    0.474436 0.292631 0.263589 0.172125
H74   H     H_    0.647572 0.194512 0.232657 0.203939
H75   H     H_    0.603588 0.220839 0.345431 0.240659
H76   H     H_    0.472989 0.129424 0.298163 0.271257
H77   H     H_    0.570626 0.064242 0.295566 0.274619
H78   H     H_    0.306889 0.680532 0.131466 0.217636
H79   H     H_    0.522779 0.100951 0.186316 0.262778
H80   H     H_    0.758628 0.491311 0.733173 0.168157
H81   H     H_    0.726733 0.489513 0.853184 0.125498
H82   H     H_    0.650210 0.618677 0.706394 0.245860
H83   H     H_    0.626177 0.617414 0.830858 0.191133
H84   H     H_    0.783461 0.644194 0.867513 0.272364
H85   H     H_    0.725871 0.734475 0.812932 0.263502
H86   H     H_    0.796112 0.663221 0.742474 0.277908
H87   H     H_    0.481733 0.710677 0.149264 0.110257
H88   H     H_    0.527184 0.705665 0.266631 0.175809
H89   H     H_    0.710181 0.380588 0.151302 0.221870
H90   H     H_    0.368497 0.809949 0.197373 0.199021
H91   H     H_    0.387476 0.792325 0.320187 0.250531
H92   H     H_    0.528791 0.867465 0.312106 0.272432
H93   H     H_    0.442269 0.939648 0.275293 0.272409
H94   H     H_    0.509698 0.885219 0.187337 0.262684
N1    N     N_R   0.500040 0.500070 0.750030 -0.192141
N2    N     N_3   0.651133 0.238372 0.550443 -0.428736
N3    N     N_3   0.650629 0.759009 0.502683 -0.464312
N4    N     N_3   0.354772 0.236331 0.441269 -0.463106
N5    N     N_3   0.734076 0.086798 0.538485 -0.415203
N6    N     N_3   0.260187 0.913714 0.485443 -0.414712
N7    N     N_R   0.499960 0.499930 0.249970 -0.172866
N8    N     N_3   0.061988 0.422879 0.330118 -0.421569
N9    N     N_3   0.940296 0.591807 0.661485 -0.467494
N10   N     N_3   0.665856 0.318068 0.898925 -0.443647
N11   N     N_3   0.292439 0.617967 0.100037 -0.469880
N12   N     N_3   0.688814 0.344018 0.091280 -0.446454
N13   N     N_3   0.287076 0.605967 0.902290 -0.389833
N14   N     N_3   0.340170 0.762617 0.504875 -0.424005
O1    O     O_R   0.500020 0.367860 0.580280 -0.617727
O2    O     O_3   0.059852 0.678004 0.510060 -0.623170
O3    O     O_3   0.944102 0.599552 0.342910 -0.648209
O4    O     O_3   0.067114 0.416606 0.649740 -0.641697
O5    O     O_3   0.724818 0.908539 0.582626 -0.671455
O6    O     O_3   0.263630 0.097864 0.511352 -0.674647
O7    O     O_3   0.392047 0.614534 0.755935 -0.598186
O8    O     O_3   0.585240 0.366432 0.249700 -0.622249
O9    O     O_3   0.639477 0.439523 0.750348 -0.630404
O10   O     O_3   0.415251 0.633864 0.247280 -0.623942
O11   O     O_R   0.499980 0.632140 0.419720 -0.586899
O12   O     O_R   0.500020 0.367840 0.419730 -0.589829
O13   O     O_R   0.499980 0.632160 0.580270 -0.653357
O14   O     O_R   0.376770 0.500000 0.580260 -0.576396
O15   O     O_R   0.623230 0.500000 0.419740 -0.594806
O16   O     O_R   0.376780 0.499980 0.419710 -0.599330
O17   O     O_R   0.623220 0.500020 0.580290 -0.583012
O18   O     O_3   0.941138 0.331050 0.482302 -0.635714
Zn1   Zn    Zn3+2 0.499990 0.500020 0.607200 0.984896
Zn2   Zn    Zn3+2 0.500010 0.499980 0.392800 1.001863

loop_
_geom_bond_atom_site_label_1
_geom_bond_atom_site_label_2
_ccdc_geom_bond_type
C66   C68   S    
C34   C56   A    
C23   C45   A    
C48   H19   S    
C64   H69   S    
C27   C29   S    
C27   O18   S    
C43   H7    S    
C47   H16   S    
C14   C18   A    
C2    C4    A    
C42   H6    S    
C5    C67   A    
C68   H79   S    
C49   C50   S    
C74   H92   S    
C61   H57   S    
C6    C75   A    
H36   N14   S    
C46   H13   S    
C53   C54   S    
C27   C33   S    
C51   H26   S    
H38   N2    S    
C71   H84   S    
C42   H5    S    
C29   C36   S    
C48   H18   S    
H40   N3    S    
H89   N12   S    
H67   N11   S    
C71   H86   S    
C24   C26   A    
H61   N5    S    
C45   N3    S    
H43   N4    S    
C72   O10   S    
C11   C14   A    
H4    N13   S    
H37   N14   S    
C4    C41   A    
C51   H27   S    
C23   C40   A    
H78   N11   S    
C33   C36   S    
C70   H83   S    
C73   C74   S    
C32   C39   T    
C16   O14   A    
C74   H93   S    
C53   H30   S    
C63   H66   S    
C52   H28   S    
C28   C35   S    
C28   C30   S    
C22   C25   A    
C7    N5    S    
C45   C67   A    
C69   H81   S    
C12   O13   A    
O13   Zn1   S    
C70   C71   S    
O12   Zn2   S    
C44   H11   S    
C16   O16   A    
C73   H91   S    
C40   N14   S    
C26   N13   S    
H60   N5    S    
C59   C60   S    
C56   C75   A    
C25   N12   S    
C65   H73   S    
C43   H8    S    
O17   Zn1   S    
H63   N6    S    
C34   C41   A    
C4    C7    A    
C44   H10   S    
C60   H55   S    
C1    C34   S    
H45   N10   S    
C55   H44   S    
C10   C21   A    
C41   N2    S    
C50   H22   S    
C69   H80   S    
C48   H17   S    
C70   H82   S    
C66   H75   S    
C1    O12   A    
C22   N10   S    
C68   H77   S    
C60   H54   S    
C5    C7    A    
C18   C19   A    
C6    C8    A    
O11   Zn2   S    
C59   H52   S    
C10   O8    S    
C30   C37   S    
C56   N4    S    
C60   C61   S    
C16   C31   S    
C15   C19   A    
C43   C44   S    
H23   N9    S    
C62   C63   S    
C68   H76   S    
H42   N4    S    
C28   O2    S    
O16   Zn2   S    
C57   H47   S    
C53   H31   S    
C9    C20   A    
C47   C48   S    
C12   C23   S    
C65   O8    S    
C58   H51   S    
C63   H68   S    
C6    O6    S    
C69   O9    S    
C50   C51   S    
C72   H88   S    
N7    Zn2   S    
C49   O3    S    
C46   O2    S    
C65   H72   S    
C17   O17   A    
C3    C76   A    
C28   C36   S    
H56   N10   S    
C15   C24   A    
C52   H29   S    
C3    C8    A    
C29   N8    S    
C13   C15   A    
C64   H71   S    
H62   N6    S    
O15   Zn2   S    
C12   O11   A    
C42   O18   S    
C42   C43   S    
C62   H65   S    
C44   H9    S    
C55   O5    S    
C11   N1    A    
C2    C76   A    
C52   C53   S    
C61   H59   S    
H41   N3    S    
C21   C25   A    
C46   C47   S    
C59   H53   S    
C61   H58   S    
C71   H85   S    
C30   C33   S    
C64   H70   S    
C24   N11   S    
C10   N7    A    
C47   H15   S    
C11   O9    S    
C72   C73   S    
C3    C40   A    
C8    N6    S    
C66   H74   S    
C58   H50   S    
C62   O7    S    
C46   H14   S    
C1    O1    A    
C51   H25   S    
C29   C35   S    
C50   H24   S    
H1    N8    S    
C31   C38   T    
C54   H32   S    
C13   O10   S    
C62   H64   S    
O1    Zn1   S    
C55   C57   S    
C5    O5    S    
C35   C37   S    
C37   C39   S    
C57   H48   S    
C14   C22   A    
C57   C58   S    
C30   N9    S    
C20   C26   A    
H34   N9    S    
C27   C37   S    
C13   N7    A    
C36   C38   S    
C72   H87   S    
H3    N13   S    
C54   H35   S    
C17   O15   A    
C33   O4    S    
C18   C20   A    
C49   H20   S    
N1    Zn1   S    
C69   C70   S    
C73   H90   S    
C74   H94   S    
C9    N1    A    
C49   H21   S    
C63   C64   S    
H39   N2    S    
C54   H33   S    
C58   H49   S    
C35   O3    S    
C65   C66   S    
O14   Zn1   S    
C17   C32   S    
C59   O6    S    
C67   C76   A    
C52   O4    S    
H2    N12   S    
C9    O7    S    
C55   H46   S    
H12   N8    S    
C2    C75   A    
C19   C21   A    
