data_mof_unit_pretest_623.cif
_audit_creation_date              2012-12-10T17:20:53-0500
_audit_creation_method            fapswitch 2.2
_symmetry_space_group_name_H-M    P1
_symmetry_Int_Tables_number       1
_space_group_crystal_system       triclinic
_cell_length_a                    14.297798
_cell_length_b                    10.870015
_cell_length_c                    9.693682
_cell_angle_alpha                 88.061471
_cell_angle_beta                  90.447042
_cell_angle_gamma                 94.776892
_cell_volume                      1500.45464273

loop_
_atom_site_label
_atom_site_type_symbol
_atom_type_description
_atom_site_fract_x
_atom_site_fract_y
_atom_site_fract_z
_atom_type_partial_charge
C1    C     C_R   0.505251 0.262309 0.503570 0.770039
C2    C     C_1   0.770865 0.499172 0.500103 -0.233624
C3    C     C_R   0.509925 0.092520 0.773175 0.338756
C4    C     C_R   0.462791 0.027194 0.883963 0.119111
C5    C     C_R   0.406207 0.918032 0.859706 0.416478
C6    C     C_R   0.412101 0.864419 0.731341 -0.322991
C7    C     C_R   0.462013 0.927187 0.622188 -0.012653
C8    C     C_R   0.494119 0.052264 0.635768 -0.074567
C9    C     C_R   0.509866 0.126538 0.511803 -0.073545
C10   C     C_R   0.513597 0.067617 0.386032 -0.227210
C11   C     C_R   0.496315 0.940738 0.378986 -0.206844
C12   C     C_R   0.331382 0.499139 0.499652 0.778487
C13   C     C_R   0.478186 0.868771 0.498196 -0.062692
C14   C     C_R   0.656872 0.623230 0.132247 0.394862
C15   C     C_R   0.743246 0.627432 0.061157 0.122581
C16   C     C_R   0.740005 0.629082 0.916828 0.160487
C17   C     C_R   0.651970 0.618948 0.853394 -0.249980
C18   C     C_R   0.574621 0.558449 0.923672 0.065790
C19   C     C_R   0.575392 0.559737 0.071718 -0.027398
C20   C     C_R   0.425089 0.448174 0.077431 0.507091
C21   C     C_R   0.424608 0.449733 0.927923 0.263496
C22   C     C_R   0.490806 0.735843 0.498419 0.766843
C23   C     C_R   0.668563 0.500136 0.500283 0.815899
C24   C     C_1   0.228945 0.498896 0.498958 -0.225569
C25   C     C_1   0.143393 0.498737 0.498194 -0.022201
C26   C     C_1   0.042636 0.498555 0.497280 -0.016732
C27   C     C_1   0.957083 0.498442 0.497111 -0.008335
C28   C     C_1   0.856356 0.498589 0.498412 -0.043248
Cu1   Cu    Cu3+1 0.499990 0.499990 0.640660 0.961443
Cu2   Cu    Cu3+1 0.500010 0.500010 0.359340 0.999041
H1    H     H_    0.531184 0.120471 0.292326 0.169950
H2    H     H_    0.646343 0.657643 0.750893 0.199560
H3    H     H_    0.375354 0.775168 0.715325 0.177106
H4    H     H_    0.496187 0.898326 0.280344 0.168102
N1    N     N_R   0.500820 0.501210 0.147910 -0.212791
N2    N     N_R   0.500850 0.501290 0.852040 -0.173865
O1    O     O_R   0.499990 0.319640 0.618810 -0.515628
O2    O     O_R   0.500000 0.319660 0.381240 -0.562167
O3    O     O_R   0.376050 0.499990 0.618810 -0.552063
O4    O     O_R   0.376060 0.500010 0.381240 -0.525726
O5    O     O_R   0.500000 0.680340 0.618760 -0.596937
O6    O     O_R   0.500010 0.680360 0.381190 -0.521889
O7    O     O_R   0.623940 0.499990 0.618760 -0.570489
O8    O     O_R   0.623950 0.500010 0.381190 -0.514742
N3    N     N_2   0.822985 0.647566 0.835846 -0.406376
H5    H     H_    0.812423 0.681700 0.736844 0.243031
C29   C     C_3   0.880163 0.543597 0.838645 -0.632278
H6    H     H_    0.841663 0.463031 0.790227 0.216581
H7    H     H_    0.899481 0.516451 0.945743 0.251744
H8    H     H_    0.946109 0.569322 0.781169 0.219566
N4    N     N_2   0.340878 0.408695 0.857533 -0.417324
H9    H     H_    0.288650 0.467674 0.842294 0.236573
C30   C     C_3   0.326892 0.284087 0.810499 -0.594431
H10   H     H_    0.386887 0.233076 0.840465 0.260072
H11   H     H_    0.318880 0.284213 0.696748 0.223158
H12   H     H_    0.262026 0.236935 0.855812 0.167652
O9    O     O_3   0.568907 0.195742 0.803241 -0.541172
C31   C     C_3   0.663960 0.173581 0.783136 0.119454
H13   H     H_    0.699693 0.257018 0.730993 0.151384
H14   H     H_    0.674316 0.094917 0.715229 0.070701
C32   C     C_3   0.712409 0.151557 0.922327 -0.396521
H15   H     H_    0.681251 0.064332 0.972273 0.192490
H16   H     H_    0.787913 0.140912 0.904110 0.170310
C33   C     C_3   0.704250 0.258257 0.019239 -0.730963
H17   H     H_    0.733430 0.346612 0.969767 0.241772
H18   H     H_    0.744259 0.241384 0.115669 0.217332
H19   H     H_    0.629769 0.266258 0.046698 0.277849
N5    N     N_2   0.474141 0.073384 0.019183 -0.403666
H20   H     H_    0.525748 0.033661 0.075419 0.231757
C34   C     C_3   0.390113 0.089502 0.097042 -0.596895
H21   H     H_    0.368495 0.004876 0.159842 0.243560
H22   H     H_    0.331505 0.112816 0.028930 0.215197
H23   H     H_    0.404421 0.166234 0.167854 0.258370
O10   O     O_3   0.352773 0.861096 0.966441 -0.615647
C35   C     C_3   0.259014 0.826140 0.925242 0.046916
H24   H     H_    0.221679 0.789884 0.019423 0.176719
H25   H     H_    0.255525 0.748747 0.853020 0.135375
C36   C     C_3   0.205138 0.934116 0.868088 -0.393475
H26   H     H_    0.200292 0.002940 0.949103 0.209780
H27   H     H_    0.241383 0.980358 0.777074 0.215090
C37   C     C_3   0.105834 0.888554 0.824276 -0.902286
H28   H     H_    0.108094 0.820632 0.741499 0.259905
H29   H     H_    0.068226 0.967826 0.784319 0.252530
H30   H     H_    0.066503 0.844527 0.913719 0.253876
O11   O     O_3   0.357977 0.378287 0.156759 -0.598335
C38   C     C_3   0.262605 0.399658 0.131880 0.054009
H31   H     H_    0.222772 0.356077 0.221245 0.168482
H32   H     H_    0.233376 0.348067 0.043209 0.151120
C39   C     C_3   0.240810 0.536009 0.122920 -0.374679
H33   H     H_    0.263323 0.583292 0.218395 0.245321
H34   H     H_    0.278690 0.585245 0.035637 0.189878
C40   C     C_3   0.135382 0.545207 0.103110 -0.939728
H35   H     H_    0.112980 0.513293 0.999371 0.253759
H36   H     H_    0.118386 0.642064 0.112779 0.246649
H37   H     H_    0.095029 0.488290 0.183215 0.269441
O12   O     O_3   0.650996 0.692477 0.248794 -0.564427
C41   C     C_3   0.683431 0.818641 0.223975 0.057142
H38   H     H_    0.624562 0.870785 0.188400 0.124737
H39   H     H_    0.735657 0.836849 0.140770 0.137824
C42   C     C_3   0.726835 0.870999 0.356567 -0.316375
H40   H     H_    0.674560 0.861133 0.440940 0.216479
H41   H     H_    0.786817 0.817553 0.388464 0.208800
C43   C     C_3   0.761822 0.006908 0.336273 -0.939799
H42   H     H_    0.818586 0.017581 0.258116 0.253668
H43   H     H_    0.789979 0.042988 0.435426 0.251750
H44   H     H_    0.703661 0.062140 0.301461 0.260845
N6    N     N_2   0.829889 0.641192 0.136197 -0.413597
H45   H     H_    0.825731 0.618061 0.240001 0.271128
C44   C     C_3   0.897708 0.744450 0.102075 -0.661698
H46   H     H_    0.912365 0.800975 0.194330 0.205240
H47   H     H_    0.872621 0.805877 0.018272 0.235135
H48   H     H_    0.964071 0.708625 0.069564 0.238288

loop_
_geom_bond_atom_site_label_1
_geom_bond_atom_site_label_2
_ccdc_geom_bond_type
C41   C42   S    
C41   H38   S    
C7    C8    A    
C29   H7    S    
C21   N2    A    
C30   H10   S    
Cu1   N2    S    
C26   C27   T    
Cu2   N1    S    
C44   H47   S    
O11   C38   S    
C5    C6    A    
C36   H27   S    
C22   O5    A    
C31   H14   S    
C15   C16   A    
C23   O7    A    
Cu2   O2    S    
C18   C19   A    
C15   N6    S    
C5    O10   S    
C32   H16   S    
C40   H35   S    
C41   H39   S    
N5    H20   S    
C20   N1    A    
C10   H1    S    
C8    C9    A    
N6    H45   S    
C34   H21   S    
C39   H34   S    
C9    C10   A    
C1    O1    A    
C31   C32   S    
N3    C29   S    
C20   O11   S    
N6    C44   S    
Cu2   O8    S    
C14   O12   S    
C37   H29   S    
C37   H28   S    
C29   H8    S    
C2    C23   S    
C30   H11   S    
O10   C35   S    
N4    H9    S    
C33   H19   S    
C1    C9    S    
C24   C25   T    
C3    C8    A    
C44   H48   S    
C4    N5    S    
C38   H31   S    
C16   C17   A    
C31   H13   S    
N3    H5    S    
C42   C43   S    
C23   O8    A    
N4    C30   S    
C33   H18   S    
C12   O4    A    
C32   C33   S    
C35   H24   S    
Cu1   Cu2   S    
C29   H6    S    
O12   C41   S    
Cu1   O3    S    
C34   H23   S    
C40   H36   S    
C17   C18   A    
Cu2   O4    S    
C43   H43   S    
C39   C40   S    
C35   H25   S    
C1    O2    A    
C3    O9    S    
C3    C4    A    
C21   N4    S    
C37   H30   S    
C42   H41   S    
C30   H12   S    
Cu1   O5    S    
C36   H26   S    
C14   C19   A    
C11   H4    S    
C4    C5    A    
C38   C39   S    
C16   N3    S    
C34   H22   S    
C6    C7    A    
C12   C24   S    
C6    H3    S    
C33   H17   S    
C12   O3    A    
C25   C26   S    
C19   N1    A    
C44   H46   S    
C11   C13   A    
C36   C37   S    
O9    C31   S    
C22   O6    A    
C42   H40   S    
C13   C22   S    
C43   H44   S    
C38   H32   S    
C40   H37   S    
C32   H15   S    
C35   C36   S    
C10   C11   A    
C7    C13   A    
C20   C21   A    
N5    C34   S    
Cu1   O1    S    
C43   H42   S    
C17   H2    S    
C14   C15   A    
Cu2   O6    S    
C2    C28   T    
C39   H33   S    
C18   N2    A    
Cu1   O7    S    
C27   C28   S    
