data_mof_unit_pretest_1394.cif
_audit_creation_date              2012-12-10T16:32:38-0500
_audit_creation_method            fapswitch 2.2
_symmetry_space_group_name_H-M    P1
_symmetry_Int_Tables_number       1
_space_group_crystal_system       triclinic
_cell_length_a                    16.960859
_cell_length_b                    16.889546
_cell_length_c                    16.918607
_cell_angle_alpha                 64.722303
_cell_angle_beta                  64.820931
_cell_angle_gamma                 64.86061
_cell_volume                      3786.93099094

loop_
_atom_site_label
_atom_site_type_symbol
_atom_type_description
_atom_site_fract_x
_atom_site_fract_y
_atom_site_fract_z
_atom_type_partial_charge
C1    C     C_R   0.582577 0.040530 0.597014 -0.055233
C2    C     C_R   0.821417 0.559649 0.043723 0.923967
C3    C     C_3   0.875820 0.556502 0.727607 0.101510
C4    C     C_3   0.820652 0.582953 0.815593 -0.298617
C5    C     C_3   0.723961 0.639855 0.814659 -1.002141
C6    C     C_R   0.431030 0.975839 0.177385 0.980453
C7    C     C_R   0.559575 0.044230 0.821359 0.916701
C8    C     C_R   0.566488 0.821254 0.029554 0.969868
C9    C     C_R   0.440084 0.178885 0.956732 0.900589
C10   C     C_R   0.028573 0.567448 0.821366 0.962641
C11   C     C_R   0.955202 0.440860 0.178645 0.905935
C12   C     C_R   0.822330 0.024795 0.568822 0.984168
C13   C     C_R   0.178660 0.956715 0.440113 0.905547
C14   C     C_R   0.531224 0.027821 0.550135 -0.347133
C15   C     C_R   0.400211 0.967441 0.415319 -0.055622
C16   C     C_R   0.445974 0.983818 0.465098 -0.327046
C17   C     C_R   0.030808 0.550275 0.529108 -0.330361
C18   C     C_R   0.984081 0.465788 0.445115 -0.318428
C19   C     C_R   0.544062 0.521094 0.050239 -0.331712
C20   C     C_R   0.458862 0.437961 0.003543 -0.299221
C21   C     C_R   0.571979 0.023216 0.459342 0.491948
C22   C     C_R   0.399771 0.000225 0.551280 0.465641
C23   C     C_R   0.029820 0.458096 0.567972 0.483731
C24   C     C_R   0.996798 0.554107 0.400002 0.455726
C25   C     C_R   0.449249 0.550349 0.065337 0.451949
C26   C     C_R   0.047215 0.595383 0.579573 -0.046131
C27   C     C_R   0.550644 0.397079 0.006376 0.494803
C28   C     C_R   0.536616 0.988511 0.424209 0.498500
C29   C     C_R   0.444499 0.012733 0.596112 0.467506
C30   C     C_R   0.412507 0.521378 0.026194 0.490041
C31   C     C_R   0.594689 0.444182 0.017285 0.486789
C32   C     C_R   0.993541 0.422934 0.534285 0.519383
C33   C     C_R   0.009753 0.598572 0.445209 0.473476
C34   C     C_R   0.537450 0.078229 0.671684 0.409988
C35   C     C_R   0.425418 0.996162 0.317669 0.395654
C36   C     C_R   0.081839 0.672099 0.534501 0.398398
C37   C     C_R   0.965013 0.416500 0.400527 -0.046310
C38   C     C_R   0.994744 0.319009 0.424364 0.406199
C39   C     C_R   0.672133 0.533814 0.083160 0.417122
C40   C     C_R   0.314149 0.417897 0.007189 0.393254
C41   C     C_R   0.326661 0.928246 0.461685 0.394333
C42   C     C_R   0.680199 0.009699 0.572079 0.407858
C43   C     C_R   0.459074 0.326430 0.934434 0.403443
C44   C     C_R   0.556340 0.674249 0.035145 0.378327
C45   C     C_R   0.924661 0.463034 0.327610 0.387711
C46   C     C_R   0.020275 0.567271 0.677122 0.416421
C47   C     C_R   0.589574 0.071674 0.721936 -0.339207
C48   C     C_R   0.589611 0.576267 0.058934 -0.025775
C49   C     C_R   0.393330 0.965628 0.273893 -0.340146
C50   C     C_R   0.075181 0.721904 0.587516 -0.347818
C51   C     C_R   0.963228 0.274795 0.393526 -0.356470
C52   C     C_R   0.722425 0.589056 0.070859 -0.344455
C53   C     C_R   0.272902 0.391245 0.968600 -0.364075
C54   C     C_R   0.277550 0.931300 0.410152 -0.344739
C55   C     C_R   0.725300 0.037377 0.605551 -0.338630
C56   C     C_R   0.410217 0.278338 0.931079 -0.348073
C57   C     C_R   0.599781 0.722654 0.047433 -0.340206
C58   C     C_R   0.927870 0.411482 0.278120 -0.346240
C59   C     C_R   0.411106 0.394826 0.980390 -0.026416
C60   C     C_R   0.044375 0.602943 0.723236 -0.343187
C61   C     C_R   0.678266 0.071345 0.679094 0.443708
C62   C     C_R   0.320619 0.930566 0.321715 0.449407
C63   C     C_R   0.076173 0.678142 0.676339 0.453365
C64   C     C_R   0.927179 0.322724 0.321465 0.451891
C65   C     C_R   0.679457 0.677929 0.070798 0.449236
C66   C     C_R   0.322348 0.321670 0.929091 0.467108
C67   C     C_3   0.418170 0.204729 0.637010 0.170645
C68   C     C_3   0.435147 0.278239 0.652916 -0.402304
C69   C     C_3   0.390833 0.374314 0.598285 -0.913914
C70   C     C_R   0.973917 0.177928 0.431565 0.965553
C71   C     C_3   0.437217 0.141452 0.266069 0.033394
C72   C     C_3   0.507709 0.193151 0.224448 -0.179121
C73   C     C_3   0.465057 0.289156 0.234998 -1.024251
C74   C     C_3   0.204496 0.642653 0.410740 0.180228
C75   C     C_3   0.278356 0.661860 0.423390 -0.415434
C76   C     C_3   0.373869 0.608472 0.377332 -0.889803
C77   C     C_3   0.141496 0.231590 0.422880 0.033885
C78   C     C_3   0.204311 0.174350 0.483241 -0.197805
C79   C     C_3   0.230490 0.233966 0.509329 -0.757446
C80   C     C_3   0.651003 0.407560 0.207663 0.161113
C81   C     C_R   0.045680 0.821585 0.558683 0.921740
C82   C     C_3   0.671161 0.426069 0.277365 -0.409297
C83   C     C_3   0.621021 0.380589 0.375376 -0.908811
C84   C     C_3   0.223277 0.409255 0.154514 0.048700
C85   C     C_3   0.171506 0.464436 0.222620 -0.202408
C86   C     C_3   0.234458 0.471783 0.260457 -0.792819
C87   C     C_3   0.361251 0.802158 0.581429 0.176882
C88   C     C_3   0.340580 0.728934 0.568894 -0.399588
C89   C     C_3   0.394683 0.632465 0.612962 -0.940523
C90   C     C_3   0.722345 0.864854 0.563022 0.047185
C91   C     C_3   0.793120 0.798890 0.508229 -0.165778
C92   C     C_R   0.177392 0.430919 0.975489 0.971959
C93   C     C_3   0.762081 0.716315 0.532621 -1.006439
C94   C     C_3   0.566391 0.363596 0.797020 0.094109
C95   C     C_3   0.609280 0.303067 0.734315 -0.255872
C96   C     C_3   0.628931 0.359671 0.633437 -0.966812
C97   C     C_3   0.489634 0.723835 0.920505 0.141277
C98   C     C_3   0.512791 0.809782 0.848096 -0.318353
C99   C     C_3   0.522591 0.811287 0.753893 -0.918462
C100  C     C_3   0.800443 0.581774 0.366702 0.182283
C101  C     C_3   0.724397 0.567866 0.352375 -0.404064
C102  C     C_3   0.631669 0.601484 0.418175 -0.946232
F1    F     F_    0.402152 0.005860 0.686010 -0.567532
F2    F     F_    0.392132 0.612373 0.111631 -0.584753
F3    F     F_    0.998485 0.599257 0.311555 -0.572362
F4    F     F_    0.063513 0.400555 0.639337 -0.567810
F5    F     F_    0.720846 0.092715 0.716376 -0.622022
F6    F     F_    0.284817 0.906097 0.280249 -0.608481
F7    F     F_    0.095925 0.716229 0.719563 -0.610634
F8    F     F_    0.903405 0.280716 0.285564 -0.613070
F9    F     F_    0.719930 0.722605 0.085773 -0.603540
F10   F     F_    0.282855 0.288283 0.899802 -0.608646
F11   F     F_    0.593290 0.957655 0.351041 -0.563201
F12   F     F_    0.998286 0.689812 0.406355 -0.569453
F13   F     F_    0.965168 0.348165 0.591742 -0.553643
F14   F     F_    0.687101 0.414208 0.993247 -0.562783
F15   F     F_    0.335555 0.580805 0.003818 -0.564364
F16   F     F_    0.310676 0.005273 0.594413 -0.584237
F17   F     F_    0.647379 0.050564 0.403780 -0.570694
F18   F     F_    0.599357 0.311005 0.001341 -0.563615
H1    H     H_    0.343895 0.222597 0.648549 0.205053
H2    H     H_    0.561868 0.154601 0.259071 0.276095
H3    H     H_    0.539891 0.197810 0.150781 0.280164
H4    H     H_    0.414644 0.331116 0.196347 0.265549
H5    H     H_    0.519031 0.322773 0.207397 0.268728
H6    H     H_    0.431179 0.285777 0.308344 0.258780
H7    H     H_    0.219207 0.654859 0.336606 0.218022
H8    H     H_    0.207323 0.568994 0.445062 0.100561
H9    H     H_    0.271361 0.736375 0.393616 0.278914
H10   H     H_    0.269494 0.641649 0.497639 0.206664
H11   H     H_    0.382143 0.533753 0.405685 0.250466
H12   H     H_    0.452392 0.204787 0.564283 0.102027
H13   H     H_    0.425433 0.621988 0.389920 0.261474
H14   H     H_    0.386092 0.630169 0.302232 0.304826
H15   H     H_    0.169375 0.287105 0.367435 0.108330
H16   H     H_    0.141505 0.185958 0.391075 0.078855
H17   H     H_    0.170056 0.127925 0.546274 0.301472
H18   H     H_    0.266891 0.131339 0.445800 0.150209
H19   H     H_    0.267587 0.278504 0.447115 0.195662
H20   H     H_    0.275743 0.189746 0.553546 0.262205
H21   H     H_    0.168688 0.277208 0.547663 0.323820
H22   H     H_    0.667429 0.332281 0.224148 0.206895
H23   H     H_    0.407060 0.272838 0.726939 0.274047
H24   H     H_    0.576713 0.436769 0.214624 0.112548
H25   H     H_    0.745679 0.399543 0.267923 0.276334
H26   H     H_    0.648825 0.501132 0.266066 0.206060
H27   H     H_    0.546318 0.406832 0.385841 0.254476
H28   H     H_    0.635380 0.396469 0.424270 0.269664
H29   H     H_    0.643956 0.304970 0.389878 0.288362
H30   H     H_    0.277367 0.347931 0.179396 0.098500
H31   H     H_    0.173807 0.385184 0.150427 0.084565
H32   H     H_    0.132624 0.534250 0.188970 0.310362
H33   H     H_    0.121911 0.430971 0.280074 0.151200
H34   H     H_    0.509750 0.267157 0.631243 0.210362
H35   H     H_    0.286414 0.503595 0.204078 0.319351
H36   H     H_    0.268875 0.402857 0.299748 0.209388
H37   H     H_    0.194064 0.514958 0.307128 0.247070
H38   H     H_    0.352608 0.785306 0.655139 0.195302
H39   H     H_    0.433972 0.800676 0.544318 0.104309
H40   H     H_    0.266511 0.735737 0.600205 0.274889
H41   H     H_    0.358709 0.739131 0.494647 0.208415
H42   H     H_    0.468949 0.624429 0.583623 0.261186
H43   H     H_    0.380486 0.581630 0.599757 0.266422
H44   H     H_    0.374509 0.618595 0.688168 0.281899
H45   H     H_    0.416212 0.380332 0.524334 0.249577
H46   H     H_    0.653901 0.866382 0.569837 0.147239
H47   H     H_    0.731262 0.838284 0.632286 0.092191
H48   H     H_    0.803899 0.834837 0.433697 0.296641
H49   H     H_    0.859064 0.775091 0.522490 0.226971
H50   H     H_    0.743826 0.682351 0.607621 0.248566
H51   H     H_    0.817454 0.665977 0.497921 0.270846
H52   H     H_    0.701546 0.738598 0.509583 0.275809
H53   H     H_    0.615011 0.399531 0.782549 0.180021
H54   H     H_    0.503945 0.418080 0.780283 0.100921
H55   H     H_    0.674177 0.252617 0.747284 0.295521
H56   H     H_    0.408115 0.425464 0.607694 0.262217
H57   H     H_    0.562306 0.264734 0.750156 0.200152
H58   H     H_    0.564771 0.409722 0.618380 0.260049
H59   H     H_    0.659993 0.313438 0.590178 0.281142
H60   H     H_    0.677336 0.397122 0.615745 0.273769
H61   H     H_    0.423794 0.724981 0.920159 0.222694
H62   H     H_    0.540880 0.661654 0.902053 0.094961
H63   H     H_    0.457457 0.871488 0.864121 0.290426
H64   H     H_    0.577512 0.812007 0.847612 0.190236
H65   H     H_    0.573865 0.748295 0.737104 0.241114
H66   H     H_    0.545590 0.870818 0.703220 0.273554
H67   H     H_    0.315446 0.389456 0.622319 0.289477
H68   H     H_    0.456115 0.817915 0.750225 0.300684
H69   H     H_    0.783631 0.655734 0.357414 0.206379
H70   H     H_    0.803108 0.544649 0.438518 0.104501
H71   H     H_    0.722178 0.605588 0.280719 0.268074
H72   H     H_    0.738801 0.493798 0.364393 0.213597
H73   H     H_    0.632631 0.563997 0.490146 0.258470
H74   H     H_    0.578529 0.588807 0.407239 0.272118
H75   H     H_    0.613901 0.676195 0.406145 0.283267
H76   H     H_    0.847132 0.509943 0.724766 0.196179
H77   H     H_    0.868529 0.618556 0.666975 0.104174
H78   H     H_    0.400041 0.145409 0.337050 0.117700
H79   H     H_    0.819382 0.519840 0.874959 0.294531
H80   H     H_    0.852017 0.624086 0.823199 0.192575
H81   H     H_    0.723845 0.702641 0.755116 0.259140
H82   H     H_    0.688322 0.660900 0.877553 0.258332
H83   H     H_    0.688503 0.599211 0.812079 0.277390
H84   H     H_    0.388103 0.174837 0.225507 0.108670
O1    O     O_R   0.982940 0.138950 0.510160 -0.582122
O2    O     O_R   0.982940 0.510160 0.138950 -0.595021
O3    O     O_R   0.861050 0.017060 0.489840 -0.572286
O4    O     O_R   0.138950 0.982940 0.510160 -0.602032
O5    O     O_R   0.867700 0.025880 0.612340 -0.563174
O6    O     O_R   0.132300 0.974120 0.387660 -0.573613
O7    O     O_R   0.025880 0.612340 0.867700 -0.563566
O8    O     O_R   0.974120 0.387660 0.132300 -0.575540
O9    O     O_R   0.612340 0.867700 0.025880 -0.554680
O10   O     O_R   0.387660 0.132300 0.974120 -0.572442
O11   O     O_R   0.387660 0.974120 0.132300 -0.562450
O12   O     O_R   0.017060 0.861050 0.489840 -0.584350
O13   O     O_R   0.612340 0.025880 0.867700 -0.571977
O14   O     O_R   0.132300 0.387660 0.974120 -0.565993
O15   O     O_R   0.867700 0.612340 0.025880 -0.566171
O16   O     O_R   0.974120 0.132300 0.387660 -0.564176
O17   O     O_R   0.025880 0.867700 0.612340 -0.571823
O18   O     O_3   0.444049 0.117723 0.700175 -0.525267
O19   O     O_3   0.483503 0.050063 0.263867 -0.524982
O20   O     O_3   0.117336 0.703258 0.440319 -0.527392
O21   O     O_3   0.053220 0.267238 0.477699 -0.508808
O22   O     O_3   0.706199 0.439516 0.117375 -0.531610
O23   O     O_R   0.138950 0.510160 0.982940 -0.581051
O24   O     O_3   0.259741 0.467313 0.068750 -0.506034
O25   O     O_3   0.299026 0.889644 0.555633 -0.526979
O26   O     O_3   0.733168 0.953444 0.516033 -0.526945
O27   O     O_3   0.551433 0.307612 0.889491 -0.522597
O28   O     O_3   0.477316 0.723460 0.008760 -0.520144
O29   O     O_3   0.884987 0.556957 0.300674 -0.525378
O30   O     O_3   0.967079 0.508389 0.728373 -0.520113
O31   O     O_R   0.861050 0.489840 0.017060 -0.598615
O32   O     O_R   0.510160 0.982940 0.138950 -0.570076
O33   O     O_R   0.489840 0.017060 0.861050 -0.604279
O34   O     O_R   0.489840 0.861050 0.017060 -0.591923
O35   O     O_R   0.510160 0.138950 0.982940 -0.591591
O36   O     O_R   0.017060 0.489840 0.861050 -0.574308
Zn1   Zn    Zn3+2 0.004880 0.004880 0.583590 1.146805
Zn2   Zn    Zn3+2 0.995120 0.995120 0.416410 1.161340
Zn3   Zn    Zn3+2 0.004880 0.583590 0.004880 1.156553
Zn4   Zn    Zn3+2 0.995120 0.416410 0.995120 1.158105
Zn5   Zn    Zn3+2 0.583590 0.004880 0.004880 1.159383
Zn6   Zn    Zn3+2 0.416410 0.995120 0.995120 1.134481

loop_
_geom_bond_atom_site_label_1
_geom_bond_atom_site_label_2
_ccdc_geom_bond_type
C16   C28   A    
C79   H19   S    
C87   C88   S    
C78   H17   S    
C93   H52   S    
C10   O36   A    
C101  C102  S    
C22   C29   A    
C51   C70   S    
C90   H47   S    
C47   C61   A    
C31   F14   S    
C95   C96   S    
C86   H35   S    
C101  H72   S    
C19   C31   A    
C102  H75   S    
C97   C98   S    
O8    Zn4   S    
C97   H62   S    
C20   C30   A    
C77   C78   S    
C70   O1    A    
C77   O21   S    
C33   F12   S    
C17   C23   A    
C60   C63   A    
C18   C24   A    
C17   C26   S    
C46   O30   S    
C14   C21   A    
C18   C37   S    
O13   Zn5   S    
C12   O5    A    
C68   H34   S    
C3    O30   S    
O23   Zn3   S    
C11   O8    A    
C76   H11   S    
C56   C66   A    
C81   O12   A    
C62   F6    S    
C15   C16   S    
C98   C99   S    
C74   O20   S    
O36   Zn4   S    
C29   F1    S    
C68   H23   S    
C98   H63   S    
C95   H55   S    
C65   F9    S    
C39   O22   S    
C86   H36   S    
C75   H9    S    
C30   F15   S    
C95   H57   S    
C4    H79   S    
C74   H8    S    
C6    O11   A    
C67   H12   S    
C92   O23   A    
O15   Zn3   S    
C68   C69   S    
C80   H24   S    
C35   C49   A    
C67   H1    S    
C77   H16   S    
O14   Zn4   S    
C11   C58   S    
C69   H67   S    
C89   H44   S    
C75   H10   S    
C43   C59   A    
C39   C48   A    
C72   H2    S    
C39   C52   A    
C6    O32   A    
C6    C49   S    
C40   C59   A    
C32   F13   S    
C90   H46   S    
C58   C64   A    
C50   C63   A    
C100  O29   S    
C17   C33   A    
C11   O2    A    
O1    Zn1   S    
C78   H18   S    
C15   C35   A    
C99   H68   S    
C82   H26   S    
C1    C34   A    
O12   Zn2   S    
C71   H84   S    
C93   H50   S    
C45   C58   A    
C71   O19   S    
C74   C75   S    
C91   H49   S    
C27   C31   A    
C67   C68   S    
C12   O3    A    
O7    Zn3   S    
C91   H48   S    
C84   C85   S    
O6    Zn2   S    
C88   H41   S    
C80   C82   S    
C8    O9    A    
O3    Zn2   S    
O5    Zn1   S    
C5    H82   S    
C76   H14   S    
C78   C79   S    
C4    C5    S    
O17   Zn1   S    
C38   C51   A    
C54   C62   A    
C87   O25   S    
C23   F4    S    
O16   Zn2   S    
C70   O16   A    
C92   O14   A    
C7    O13   A    
C7    C47   S    
C40   O24   S    
C67   O18   S    
C10   C60   S    
C75   C76   S    
C9    O35   A    
C37   C38   A    
C35   O19   S    
C8    C57   S    
C91   C93   S    
C102  H74   S    
C1    C42   A    
C64   F8    S    
C74   H7    S    
C27   F18   S    
C44   C57   A    
C13   O6    A    
C73   H4    S    
O31   Zn4   S    
O34   Zn6   S    
C53   C92   S    
C13   O4    A    
O10   Zn6   S    
C9    C56   S    
C85   H33   S    
O4    Zn1   S    
C20   C59   S    
O9    Zn5   S    
C53   C66   A    
C15   C41   A    
C85   C86   S    
C66   F10   S    
C2    C52   S    
C94   H54   S    
C38   O21   S    
C83   H27   S    
C42   O26   S    
C26   C36   A    
C69   H56   S    
C21   C28   A    
C41   O25   S    
C40   C53   A    
C80   H22   S    
C100  H69   S    
C2    O15   A    
C45   O29   S    
C18   C32   A    
C14   C29   A    
C37   C45   A    
C3    C4    S    
C84   O24   S    
C102  H73   S    
C89   H42   S    
C99   H65   S    
C82   H25   S    
C36   C50   A    
C71   H78   S    
C13   C54   S    
C83   H28   S    
C25   C30   A    
C22   F16   S    
C7    O33   A    
C36   O20   S    
C93   H51   S    
C16   C22   A    
C49   C62   A    
C46   C60   A    
C19   C48   S    
O32   Zn5   S    
C10   O7    A    
C100  H70   S    
C51   C64   A    
C3    H76   S    
C57   C65   A    
C72   C73   S    
C101  H71   S    
C5    H83   S    
C76   H13   S    
C25   F2    S    
C97   H61   S    
C34   C47   A    
C20   C27   A    
C8    O34   A    
C9    O10   A    
C1    C14   S    
C81   O17   A    
C24   C33   A    
C87   H38   S    
O35   Zn5   S    
C96   H58   S    
C23   C32   A    
C96   H60   S    
C73   H6    S    
C44   O28   S    
C85   H32   S    
C71   C72   S    
C72   H3    S    
C5    H81   S    
O2    Zn3   S    
C90   C91   S    
C79   H21   S    
C42   C55   A    
C73   H5    S    
C94   O27   S    
C55   C61   A    
C100  C101  S    
C3    H77   S    
C87   H39   S    
O33   Zn6   S    
C79   H20   S    
C43   O27   S    
C88   H40   S    
C96   H59   S    
C98   H64   S    
C94   C95   S    
C19   C25   A    
C86   H37   S    
C69   H45   S    
C41   C54   A    
C12   C55   S    
C28   F11   S    
C26   C46   A    
C94   H53   S    
C2    O31   A    
C97   O28   S    
C84   H31   S    
C44   C48   A    
C43   C56   A    
C4    H80   S    
C88   C89   S    
O11   Zn6   S    
C21   F17   S    
C82   C83   S    
C61   F5    S    
C90   O26   S    
C24   F3    S    
C77   H15   S    
C80   O22   S    
C89   H43   S    
C99   H66   S    
C52   C65   A    
C34   O18   S    
C50   C81   S    
C63   F7    S    
C83   H29   S    
C84   H30   S    
