data_mof_unit_pretest_986.cif
_audit_creation_date              2013-03-05T15:59:23-0500
_audit_creation_method            fapswitch 2.2
_symmetry_space_group_name_H-M    P1
_symmetry_Int_Tables_number       1
_space_group_crystal_system       triclinic
_cell_length_a                    10.530354
_cell_length_b                    12.764827
_cell_length_c                    13.299005
_cell_angle_alpha                 85.516838
_cell_angle_beta                  93.506619
_cell_angle_gamma                 100.435484
_cell_volume                      1750.66482232

loop_
_atom_site_label
_atom_site_type_symbol
_atom_site_description
_atom_site_fract_x
_atom_site_fract_y
_atom_site_fract_z
_atom_type_partial_charge
O1    O     O_R   0.467970 0.366730 0.627150 -0.619753
O2    O     O_R   0.510820 0.544830 0.662520 -0.613066
C1    C     C_R   0.493495 0.441814 0.690922 0.885700
O3    O     O_R   0.664630 0.410960 0.482340 -0.595913
O4    O     O_R   0.707470 0.589060 0.517710 -0.600839
C2    C     C_R   0.741473 0.500508 0.497221 0.964050
Zn1   Zn    Zn3+2 0.471390 0.381080 0.476380 1.068719
Zn2   Zn    Zn3+2 0.528610 0.618920 0.523620 1.020691
O5    O     O_R   0.489180 0.455170 0.337480 -0.598944
O6    O     O_R   0.532030 0.633270 0.372850 -0.620857
O7    O     O_R   0.292530 0.410940 0.482290 -0.548764
O8    O     O_R   0.335370 0.589040 0.517660 -0.574702
C3    C     C_R   0.519673 0.557179 0.310603 0.951726
C4    C     C_R   0.258231 0.499771 0.500656 0.973594
C5    C     C_3   0.953921 0.459025 0.584686 0.401266
C6    C     C_3   0.058613 0.560067 0.571820 -0.260922
H1    H     H_    0.111947 0.608700 0.631752 0.173939
C7    C     C_3   0.123005 0.499561 0.499239 -0.156798
C8    C     C_3   0.018990 0.399693 0.513041 0.190928
C9    C     C_3   0.942475 0.441689 0.422519 0.201849
C10   C     C_3   0.047090 0.541613 0.406847 -0.132701
C11   C     C_3   0.979589 0.601387 0.479383 -0.150480
C12   C     C_3   0.876066 0.500344 0.493887 -0.231249
H2    H     H_    0.086026 0.573487 0.332833 0.228575
H3    H     H_    0.959475 0.683659 0.463958 0.199629
C13   C     C_R   0.702840 0.697895 0.091334 0.549473
H4    H     H_    0.686191 0.730250 0.246698 0.163601
C14   C     C_R   0.562206 0.584672 0.209009 -0.099849
C15   C     C_R   0.443784 0.302045 0.829339 -0.309549
C16   C     C_R   0.450294 0.262580 0.930072 0.251685
C17   C     C_R   0.508203 0.332294 0.003775 0.440939
C18   C     C_R   0.553038 0.442090 0.975412 -0.062191
C19   C     C_R   0.569195 0.473039 0.872711 -0.066708
C20   C     C_R   0.585642 0.521684 0.045745 -0.025661
C21   C     C_R   0.662099 0.622114 0.018141 -0.084368
C22   C     C_R   0.689858 0.646716 0.916284 0.534301
C23   C     C_R   0.650453 0.569736 0.846836 -0.241919
C24   C     C_R   0.529892 0.508330 0.138739 -0.105337
C25   C     C_R   0.652521 0.676896 0.187568 -0.269779
C26   C     C_R   0.503557 0.406248 0.799140 -0.120472
H5    H     H_    0.456830 0.439790 0.156290 0.243685
H6    H     H_    0.393464 0.249896 0.773682 0.239146
H7    H     H_    0.685300 0.585148 0.772755 0.248856
C27   C     C_R   0.384421 0.102852 0.313611 -0.206883
H8    H     H_    0.340890 0.087127 0.239535 0.258689
N1    N     N_R   0.432930 0.222190 0.444670 -0.170948
C28   C     C_R   0.670216 0.802864 0.620116 0.613624
C29   C     C_R   0.703548 0.906969 0.651130 -0.446221
C30   C     C_R   0.640175 0.987275 0.609359 0.495166
C31   C     C_R   0.546953 0.965750 0.528879 -0.098486
C32   C     C_R   0.513717 0.857659 0.500439 -0.098935
C33   C     C_R   0.490340 0.046862 0.471484 0.001417
C34   C     C_R   0.436223 0.024984 0.373540 -0.105164
C35   C     C_R   0.424364 0.922732 0.339452 0.190827
C36   C     C_R   0.436435 0.838451 0.410316 0.290506
C37   C     C_R   0.485955 0.149052 0.505103 -0.027351
C38   C     C_R   0.378072 0.199478 0.351290 0.459940
N2    N     N_R   0.566370 0.776980 0.554790 -0.158169
H9    H     H_    0.520095 0.172335 0.579112 0.215267
H10   H     H_    0.780117 0.927107 0.707920 0.197301
O9    O     O_3   0.530681 0.291237 0.101258 -0.579332
C39   C     C_3   0.653652 0.261467 0.108323 -0.122306
H11   H     H_    0.731457 0.332448 0.097301 0.182013
H12   H     H_    0.660823 0.201398 0.053511 0.137736
H13   H     H_    0.669015 0.223874 0.185102 0.222449
N3    N     N_R   0.398730 0.151899 0.956229 0.232980
O10   O     O_R   0.375731 0.083437 0.886894 -0.367360
O11   O     O_R   0.369779 0.119013 0.048381 -0.297656
N4    N     N_R   0.307137 0.270890 0.292738 0.214109
O12   O     O_R   0.215329 0.304866 0.334011 -0.289716
O13   O     O_R   0.302486 0.272087 0.194735 -0.355358
N5    N     N_R   0.368203 0.899320 0.240736 0.245130
O14   O     O_R   0.245026 0.896831 0.221420 -0.301292
O15   O     O_R   0.434258 0.860396 0.177780 -0.380075
O16   O     O_3   0.737595 0.723650 0.657063 -0.589739
C40   C     C_3   0.872792 0.759068 0.659488 -0.254827
H14   H     H_    0.906061 0.803645 0.727376 0.209452
H15   H     H_    0.905114 0.807343 0.589266 0.155590
H16   H     H_    0.919905 0.687951 0.666304 0.190869
O17   O     O_3   0.892263 0.412784 0.672982 -0.622579
C41   C     C_3   0.977940 0.430520 0.757827 -0.233296
H17   H     H_    0.992068 0.515494 0.776023 0.155772
H18   H     H_    0.072565 0.406757 0.747096 0.188890
H19   H     H_    0.934369 0.381199 0.823600 0.202445
O18   O     O_3   0.675752 0.086750 0.646436 -0.638309
C42   C     C_3   0.785655 0.141019 0.597285 -0.177558
H20   H     H_    0.767799 0.147311 0.513791 0.178520
H21   H     H_    0.870963 0.102265 0.618101 0.206137
H22   H     H_    0.808120 0.223173 0.622368 0.240837
N6    N     N_R   0.329334 0.753248 0.408360 0.249249
O19   O     O_R   0.305505 0.696967 0.329671 -0.374777
O20   O     O_R   0.233824 0.759348 0.464003 -0.408228
N7    N     N_R   0.046650 0.291935 0.533491 0.216058
O21   O     O_R   0.014212 0.221223 0.467004 -0.342453
O22   O     O_R   0.110753 0.267836 0.616174 -0.409233
N8    N     N_R   0.881222 0.381062 0.338424 0.221993
O23   O     O_R   0.951364 0.336083 0.283707 -0.307554
O24   O     O_R   0.763924 0.388393 0.306219 -0.420797
O25   O     O_3   0.739545 0.749812 0.881080 -0.569808
C43   C     C_3   0.637537 0.809256 0.873003 -0.173837
H23   H     H_    0.582970 0.802403 0.942910 0.157398
H24   H     H_    0.568343 0.783934 0.809328 0.160377
H25   H     H_    0.678724 0.895099 0.859773 0.197729
O26   O     O_3   0.800819 0.784477 0.069257 -0.554005
C44   C     C_3   0.780844 0.878749 0.110146 -0.199847
H26   H     H_    0.677578 0.888272 0.103750 0.169769
H27   H     H_    0.836222 0.948145 0.066857 0.210689
H28   H     H_    0.818966 0.881509 0.189795 0.171641

loop_
_geom_bond_atom_site_label_1
_geom_bond_atom_site_label_2
_geom_bond_distance
_ccdc_geom_bond_type
N3    O11   1.299995 A    
N7    O21   1.299754 A    
C15   H6    1.083079 S    
C7    C10   1.539196 S    
C4    C7    1.422474 S    
C8    C9    1.524057 S    
C40   H16   1.105988 S    
C41   H17   1.111482 S    
C34   C35   1.396872 A    
C27   H8    1.078545 S    
C5    C8    1.526963 S    
C44   H27   1.109237 S    
C15   C16   1.396029 A    
C22   C23   1.392138 A    
C40   H15   1.113844 S    
C7    C8    1.529945 S    
C36   N6    1.418450 S    
C16   C17   1.411088 A    
Zn2   O6    2.001067 S    
O7    C4    1.295500 A    
C42   H21   1.112425 S    
C13   C25   1.403001 A    
C5    C6    1.543266 S    
C20   C21   1.419542 A    
N4    O13   1.300256 A    
C17   O9    1.382964 S    
O5    C3    1.310042 A    
C13   O26   1.394800 S    
C27   C34   1.392883 A    
C21   C22   1.402747 A    
H4    C25   1.081698 S    
C6    H1    1.110123 S    
C11   H3    1.109705 S    
N8    O24   1.299527 A    
C31   C33   1.433327 A    
C3    C14   1.446442 S    
C39   H12   1.113583 S    
C8    N7    1.458695 S    
Zn2   N2    2.054422 S    
C5    C12   1.531152 S    
N3    O10   1.301771 A    
C9    N8    1.460126 S    
N7    O22   1.300369 A    
O1    Zn1   2.001065 S    
C10   C11   1.553513 S    
N4    O12   1.295386 A    
O3    Zn1   1.999088 S    
O26   C44   1.412805 S    
C41   H18   1.113061 S    
C29   H10   1.080454 S    
C44   H28   1.110447 S    
C19   C26   1.412845 A    
Zn1   N1    2.066573 S    
C30   O18   1.377962 S    
C40   H14   1.109537 S    
C24   H5    1.076136 S    
N5    O15   1.301212 A    
C42   H20   1.113884 S    
N5    O14   1.301938 A    
C14   C25   1.395271 A    
O18   C42   1.406373 S    
O6    C3    1.308579 A    
C43   H25   1.107618 S    
C19   C23   1.400413 A    
O1    C1    1.309964 A    
C18   C20   1.417025 A    
C23   H7    1.063843 S    
Zn1   O7    1.995429 S    
O16   C40   1.412723 S    
C39   H11   1.112976 S    
N6    O20   1.301394 A    
C28   C29   1.399378 A    
C9    C12   1.527229 S    
C14   C24   1.386383 A    
C27   C38   1.381109 A    
Zn2   O8    1.999090 S    
N8    O23   1.299774 A    
C43   H24   1.111067 S    
C31   C32   1.435177 A    
C32   N2    1.389944 A    
C16   N3    1.442321 S    
O3    C2    1.296626 A    
C29   C30   1.384981 A    
O8    C4    1.300742 A    
C1    C26   1.478256 S    
N1    C38   1.366693 A    
C41   H19   1.109220 S    
C33   C34   1.416983 A    
Zn1   O5    2.011674 S    
C35   C36   1.392156 A    
C6    C11   1.553824 S    
C39   H13   1.109223 S    
C20   C24   1.386661 A    
C17   C18   1.424392 A    
O2    Zn2   2.011673 S    
O17   C41   1.407064 S    
C42   H22   1.105509 S    
O4    Zn2   1.995426 S    
C37   H9    1.072406 S    
C44   H26   1.113310 S    
O25   C43   1.417597 S    
C18   C19   1.403635 A    
O2    C1    1.322499 A    
C28   O16   1.380891 S    
C28   N2    1.362905 A    
N6    O19   1.301664 A    
O4    C2    1.298795 A    
C2    C12   1.421093 S    
C15   C26   1.403867 A    
C43   H23   1.112012 S    
C22   O25   1.381676 S    
C32   C36   1.418886 A    
O9    C39   1.409914 S    
C5    O17   1.412415 S    
C13   C21   1.418825 A    
C35   N5    1.436985 S    
C9    C10   1.536701 S    
C6    C7    1.540877 S    
C30   C31   1.415783 A    
C10   H2    1.108531 S    
N1    C37   1.358662 A    
C11   C12   1.538391 S    
C38   N4    1.435202 S    
C33   C37   1.420950 A    
