data_mof_unit_pretest_1235.cif
_audit_creation_date              2012-12-11T16:23:25-0500
_audit_creation_method            fapswitch 2.2
_symmetry_space_group_name_H-M    P1
_symmetry_Int_Tables_number       1
_space_group_crystal_system       triclinic
_cell_length_a                    19.944223
_cell_length_b                    7.195901
_cell_length_c                    19.900903
_cell_angle_alpha                 89.999975
_cell_angle_beta                  98.862131
_cell_angle_gamma                 90.000042
_cell_volume                      2822.0144874

loop_
_atom_site_label
_atom_site_type_symbol
_atom_type_description
_atom_site_fract_x
_atom_site_fract_y
_atom_site_fract_z
_atom_type_partial_charge
O1    O     O_R   0.188410 0.619490 0.310050 -0.496189
O2    O     O_R   0.811590 0.380510 0.689950 -0.503249
O3    O     O_R   0.311590 0.119490 0.189950 -0.496183
O4    O     O_R   0.688410 0.880510 0.810050 -0.503250
O5    O     O_R   0.327280 0.288800 0.321740 -0.554373
O6    O     O_R   0.672720 0.711200 0.678260 -0.542180
O7    O     O_R   0.172720 0.788800 0.178260 -0.554383
O8    O     O_R   0.827280 0.211200 0.821740 -0.542183
C1    C     C_R   0.350884 0.458107 0.339455 0.728423
C2    C     C_R   0.648814 0.542044 0.661076 0.718962
C3    C     C_R   0.149116 0.958107 0.160545 0.728409
C4    C     C_R   0.851186 0.042044 0.838924 0.718958
O9    O     O_R   0.189900 0.289710 0.318190 -0.544357
O10   O     O_R   0.810100 0.710290 0.681810 -0.542456
O11   O     O_R   0.310100 0.789710 0.181810 -0.544366
O12   O     O_R   0.689900 0.210290 0.818190 -0.542459
O13   O     O_R   0.173230 0.120350 0.186370 -0.536237
O14   O     O_R   0.826770 0.879650 0.813630 -0.522859
O15   O     O_R   0.326770 0.620350 0.313630 -0.536225
O16   O     O_R   0.673230 0.379650 0.686370 -0.522859
C5    C     C_R   0.169826 0.458841 0.334275 0.726418
C6    C     C_R   0.830887 0.541275 0.666462 0.697427
C7    C     C_R   0.330175 0.958841 0.165726 0.726412
C8    C     C_R   0.669113 0.041276 0.833537 0.697434
O17   O     O_3   0.244690 0.453290 0.206760 -0.370048
O18   O     O_3   0.755310 0.546710 0.793240 -0.368134
O19   O     O_3   0.255310 0.953290 0.293240 -0.370041
O20   O     O_3   0.744690 0.046710 0.706760 -0.368130
V1    V     V_3+5 0.250980 0.178070 0.258020 1.477425
V2    V     V_3+5 0.749020 0.821930 0.741980 1.541431
V3    V     V_3+5 0.249020 0.678070 0.241980 1.477410
V4    V     V_3+5 0.750980 0.321930 0.758020 1.541424
C9    C     C_R   0.438084 0.150337 0.038826 -0.219074
C10   C     C_R   0.534984 0.855703 0.933685 -0.221267
C11   C     C_R   0.061925 0.650332 0.461183 -0.219086
C12   C     C_R   0.965007 0.355692 0.566305 -0.221272
H1    H     H_    0.444441 0.281627 0.013991 0.137035
H2    H     H_    0.505190 0.730253 0.934665 0.143113
H3    H     H_    0.055574 0.781616 0.486025 0.137044
H4    H     H_    0.994796 0.230233 0.565320 0.143114
C13   C     C_R   0.390679 0.139946 0.083756 0.606907
C14   C     C_R   0.581113 0.866264 0.887517 0.606076
C15   C     C_R   0.109332 0.639939 0.416254 0.606922
C16   C     C_R   0.918879 0.366252 0.612473 0.606066
C17   C     C_R   0.379102 0.970596 0.116120 -0.167547
C18   C     C_R   0.619721 0.029074 0.882611 -0.173601
C19   C     C_R   0.120899 0.470595 0.383880 -0.167552
C20   C     C_R   0.880277 0.529073 0.617386 -0.173604
C21   C     C_R   0.416243 0.813171 0.101715 -0.231271
C22   C     C_R   0.610524 0.179726 0.925310 -0.224741
C23   C     C_R   0.083748 0.313176 0.398274 -0.231248
C24   C     C_R   0.889480 0.679735 0.574693 -0.224733
H5    H     H_    0.409294 0.681153 0.125844 0.193360
H6    H     H_    0.639558 0.306315 0.923499 0.176224
H7    H     H_    0.090690 0.181164 0.374138 0.193321
H8    H     H_    0.860452 0.806333 0.576510 0.176239
C25   C     C_R   0.464083 0.824653 0.057157 -0.145298
C26   C     C_R   0.564566 0.167979 0.971839 -0.144776
C27   C     C_R   0.035907 0.324660 0.442832 -0.145298
C28   C     C_R   0.935439 0.667989 0.528165 -0.144771
H9    H     H_    0.492696 0.701239 0.048739 0.124219
H10   H     H_    0.559989 0.285594 0.004734 0.124344
H11   H     H_    0.007287 0.201251 0.451241 0.124210
H12   H     H_    0.940021 0.785614 0.495275 0.124340
C29   C     C_R   0.475734 0.993545 0.025048 0.040509
C30   C     C_R   0.525983 0.005770 0.976582 0.034339
C31   C     C_R   0.024265 0.493546 0.474950 0.040508
C32   C     C_R   0.974015 0.505771 0.523415 0.034343
C33   C     C_R   0.088006 0.963101 0.107182 -0.127813
C34   C     C_R   0.911861 0.037834 0.892595 -0.143543
C35   C     C_R   0.411994 0.463099 0.392818 -0.127824
C36   C     C_R   0.588139 0.537835 0.607405 -0.143549
C37   C     C_R   0.025531 0.153700 0.933240 -0.164175
C38   C     C_R   0.975961 0.838121 0.064431 -0.168999
C39   C     C_R   0.474472 0.653719 0.566756 -0.164170
C40   C     C_R   0.524036 0.338104 0.435573 -0.169005
C41   C     C_R   0.968086 0.146173 0.883496 -0.213099
C42   C     C_R   0.033140 0.847001 0.114529 -0.268237
C43   C     C_R   0.531917 0.646188 0.616501 -0.213091
C44   C     C_R   0.466857 0.346985 0.385475 -0.268231
C45   C     C_R   0.913494 0.935488 0.953740 0.369616
C46   C     C_R   0.085463 0.071556 0.047490 0.346631
C47   C     C_R   0.586504 0.435478 0.546261 0.369617
C48   C     C_R   0.414539 0.571569 0.452507 0.346639
C49   C     C_R   0.971986 0.943818 0.004599 0.028757
C50   C     C_R   0.027851 0.058311 0.995276 0.001760
C51   C     C_R   0.528013 0.443811 0.495402 0.028747
C52   C     C_R   0.472151 0.558319 0.504722 0.001745
H13   H     H_    0.034666 0.761612 0.159588 0.138986
H14   H     H_    0.967775 0.224626 0.836962 0.165133
H15   H     H_    0.465329 0.261585 0.340417 0.138991
H16   H     H_    0.532229 0.724650 0.663034 0.165140
H17   H     H_    0.067977 0.235895 0.922560 0.158831
H18   H     H_    0.935094 0.745960 0.072610 0.161759
H19   H     H_    0.432029 0.735927 0.577434 0.158820
H20   H     H_    0.564901 0.245932 0.427396 0.161763
F1    F     F_    0.355758 0.296248 0.094527 -0.705275
F2    F     F_    0.586288 0.717646 0.846593 -0.693776
F3    F     F_    0.144266 0.796232 0.405496 -0.705237
F4    F     F_    0.913698 0.217621 0.653390 -0.693777
O21   O     O_3   0.143640 0.163093 0.035653 -0.574132
C53   C     C_3   0.136820 0.357115 0.043963 0.072811
H21   H     H_    0.150534 0.393698 0.098527 0.162575
H22   H     H_    0.084342 0.408880 0.026294 0.102605
C54   C     C_3   0.185536 0.454802 0.003091 -0.290504
H23   H     H_    0.238422 0.411033 0.022347 0.257280
H24   H     H_    0.173488 0.412776 0.948847 0.190432
C55   C     C_3   0.180804 0.665672 0.007456 -0.763016
H25   H     H_    0.127730 0.712542 0.991164 0.231606
H26   H     H_    0.213592 0.730250 0.973617 0.236601
H27   H     H_    0.198810 0.712343 0.060149 0.243490
O22   O     O_3   0.860211 0.818706 0.962594 -0.576557
C56   C     C_3   0.803492 0.922608 0.976419 0.080895
H28   H     H_    0.757574 0.860654 0.946030 0.147761
H29   H     H_    0.804238 0.072423 0.961890 0.077098
C57   C     C_3   0.796956 0.907496 0.051791 -0.329371
H30   H     H_    0.798324 0.758799 0.067090 0.202525
H31   H     H_    0.840262 0.980383 0.082633 0.190025
C58   C     C_3   0.730738 0.993805 0.066260 -0.817677
H32   H     H_    0.728055 0.142612 0.051211 0.232765
H33   H     H_    0.728100 0.984011 0.121466 0.230463
H34   H     H_    0.686602 0.918592 0.037846 0.237218
O23   O     O_3   0.356364 0.663130 0.464339 -0.574122
C59   C     C_3   0.363195 0.857152 0.456034 0.072849
H35   H     H_    0.349456 0.893750 0.401474 0.162594
H36   H     H_    0.415685 0.908886 0.473679 0.102585
C60   C     C_3   0.314512 0.954867 0.496938 -0.290503
H37   H     H_    0.261615 0.911146 0.477700 0.257249
H38   H     H_    0.326582 0.912807 0.551177 0.190415
C61   C     C_3   0.319266 0.165751 0.492593 -0.762970
H39   H     H_    0.372351 0.212560 0.508871 0.231595
H40   H     H_    0.286508 0.230343 0.526457 0.236596
H41   H     H_    0.301241 0.212487 0.439910 0.243456
O24   O     O_3   0.639786 0.318687 0.537409 -0.576554
C62   C     C_3   0.696508 0.422583 0.523586 0.080907
H42   H     H_    0.742427 0.360617 0.553974 0.147764
H43   H     H_    0.695764 0.572399 0.538118 0.077081
C63   C     C_3   0.703045 0.407483 0.448211 -0.329362
H44   H     H_    0.701675 0.258786 0.432908 0.202514
H45   H     H_    0.659738 0.480383 0.417371 0.190016
C64   C     C_3   0.769266 0.493788 0.433742 -0.817589
H46   H     H_    0.771957 0.642588 0.448811 0.232753
H47   H     H_    0.771897 0.484047 0.378530 0.230443
H48   H     H_    0.813403 0.418531 0.462142 0.237198

loop_
_geom_bond_atom_site_label_1
_geom_bond_atom_site_label_2
_ccdc_geom_bond_type
C26   H10   S    
C62   C63   S    
C6    C20   S    
C51   C52   A    
O1    C5    A    
O21   C53   S    
C7    C17   S    
O19   V1    S    
O13   V1    S    
C38   H18   S    
O3    C7    A    
C10   C14   A    
C37   H17   S    
O15   V3    S    
C10   C30   A    
C39   H19   S    
O23   C59   S    
C49   C50   A    
C55   H25   S    
C48   O23   S    
O7    C3    A    
C54   H24   S    
C22   H6    S    
O9    V1    S    
C15   F3    S    
C35   C48   A    
C36   C43   A    
C64   H47   S    
C11   H3    S    
O4    C8    A    
C55   H26   S    
O1    V3    S    
C21   C25   A    
C57   H30   S    
C53   C54   S    
O2    V4    S    
C14   C18   A    
O3    V1    S    
C34   C45   A    
O22   C56   S    
C47   O24   S    
C33   C46   A    
C24   C28   A    
C27   C31   A    
C26   C30   A    
C2    O16   A    
O2    C6    A    
O14   V2    S    
C11   C31   A    
C11   C15   A    
C56   C57   S    
O11   C7    A    
O12   C8    A    
C34   C41   A    
C33   C42   A    
O10   V2    S    
C35   C44   A    
C1    O15   A    
O5    V1    S    
C58   H33   S    
C42   H13   S    
C54   C55   S    
C41   H14   S    
O7    V3    S    
C9    C29   A    
C31   C32   S    
O8    V4    S    
C57   C58   S    
C1    C35   S    
C62   H42   S    
C64   H48   S    
O18   V4    S    
C19   C23   A    
C46   C50   A    
O11   V3    S    
C9    H1    S    
C22   C26   A    
C61   H40   S    
C60   H38   S    
O5    C1    A    
C45   O22   S    
C17   C21   A    
O8    C4    A    
C3    C33   S    
O9    C5    A    
C53   H22   S    
C40   C51   A    
C43   H16   S    
C63   H45   S    
C59   C60   S    
O6    V2    S    
C13   F1    S    
C12   C16   A    
C61   H41   S    
C23   C27   A    
C60   H37   S    
C12   H4    S    
C59   H36   S    
C56   H28   S    
O16   V4    S    
C58   H34   S    
C62   H43   S    
C4    C34   S    
C3    O13   A    
C37   C41   A    
C10   H2    S    
O17   V3    S    
C40   C44   A    
C25   C29   A    
C63   C64   S    
C47   C51   A    
O6    C2    A    
C58   H32   S    
C12   C32   A    
C25   H9    S    
O24   C62   S    
O12   V4    S    
C54   H23   S    
C18   C22   A    
C27   H11   S    
C55   H27   S    
C28   H12   S    
C9    C13   A    
O10   C6    A    
C44   H15   S    
C14   F2    S    
C61   H39   S    
C60   C61   S    
C8    C18   S    
C64   H46   S    
C40   H20   S    
C16   F4    S    
C48   C52   A    
C15   C19   A    
C21   H5    S    
O20   V2    S    
C46   O21   S    
C57   H31   S    
C23   H7    S    
C38   C49   A    
C53   H21   S    
O4    V2    S    
C37   C50   A    
C36   C47   A    
C63   H44   S    
C16   C20   A    
C39   C52   A    
C20   C24   A    
C28   C32   A    
C29   C30   S    
C38   C42   A    
C4    O14   A    
C13   C17   A    
C56   H29   S    
C39   C43   A    
C45   C49   A    
C24   H8    S    
C59   H35   S    
C5    C19   S    
C2    C36   S    
