data_mof_unit_pretest_1935.cif
_audit_creation_date              2012-12-11T18:32:08-0500
_audit_creation_method            fapswitch 2.2
_symmetry_space_group_name_H-M    P1
_symmetry_Int_Tables_number       1
_space_group_crystal_system       triclinic
_cell_length_a                    8.185508
_cell_length_b                    14.322765
_cell_length_c                    18.802642
_cell_angle_alpha                 94.414459
_cell_angle_beta                  92.705375
_cell_angle_gamma                 91.566149
_cell_volume                      2194.35431588

loop_
_atom_site_label
_atom_site_type_symbol
_atom_type_description
_atom_site_fract_x
_atom_site_fract_y
_atom_site_fract_z
_atom_type_partial_charge
Ba1   Ba    Ba6+2 0.841340 0.543980 0.464170 1.631782
Ba2   Ba    Ba6+2 0.348470 0.456100 0.535830 1.631679
C1    C     C_3   0.575410 0.873916 0.262140 -0.375283
C2    C     C_3   0.441897 0.510520 0.243747 -0.010842
C3    C     C_2   0.379279 0.517876 0.166867 -0.118376
C4    C     C_3   0.106125 0.743142 0.262515 0.302182
C5    C     C_2   0.219795 0.496473 0.146861 -0.080644
C6    C     C_2   0.107075 0.471460 0.204385 -0.130347
C7    C     C_1   0.161647 0.475238 0.272625 0.067686
C8    C     C_R   0.049559 0.493375 0.929382 0.458456
C9    C     C_R   0.158785 0.496545 0.069879 0.458176
C10   C     C_R   0.083885 0.528621 0.799517 -0.125591
C11   C     C_R   0.029075 0.520381 0.726712 0.065420
C12   C     C_3   0.594932 0.779697 0.293110 0.340704
C13   C     C_R   0.784586 0.436993 0.757446 0.013299
C14   C     C_R   0.837777 0.444550 0.829837 -0.143747
C15   C     C_R   0.990346 0.488855 0.852054 -0.073932
C16   C     C_3   0.088524 0.765404 0.184861 -0.344468
C17   C     C_R   0.883320 0.471439 0.706498 -0.284052
C18   C     C_R   0.699374 0.936063 0.539593 -0.036810
C19   C     C_R   0.509645 0.801508 0.498547 0.053714
C20   C     C_R   0.363621 0.769553 0.462249 -0.290754
C21   C     C_R   0.257801 0.831778 0.432163 0.016016
C22   C     C_R   0.303625 0.926132 0.432313 -0.143433
C23   C     C_3   0.484124 0.305926 0.323107 0.310740
C24   C     C_R   0.452882 0.959642 0.466134 -0.005091
C25   C     C_R   0.555563 0.898321 0.501949 -0.021891
C26   C     C_R   0.641340 0.091713 0.502533 -0.019771
C27   C     C_R   0.744285 0.031461 0.539125 -0.001662
C28   C     C_3   0.188261 0.743447 0.611227 0.307155
C29   C     C_R   0.685718 0.187833 0.503894 0.024330
C30   C     C_R   0.828130 0.222626 0.541279 -0.286429
C31   C     C_R   0.935916 0.162720 0.572611 0.020019
C32   C     C_R   0.893211 0.067272 0.573040 -0.143493
C33   C     C_R   0.497476 0.054435 0.465809 -0.038537
C34   C     C_3   0.445893 0.268344 0.246050 -0.386890
C35   C     C_3   0.195772 0.849357 0.626928 -0.390272
C36   C     C_3   0.008004 0.257457 0.391514 0.303387
C37   C     C_3   0.000400 0.151346 0.377031 -0.386887
C38   C     C_3   0.699207 0.666776 0.673767 0.308611
C39   C     C_3   0.718617 0.694793 0.753484 -0.389174
C40   C     C_3   0.123486 0.261159 0.740717 0.352454
C41   C     C_3   0.141981 0.235145 0.817481 -0.352184
C42   C     C_3   0.601878 0.208297 0.703125 0.357913
C43   C     C_3   0.588477 0.111463 0.730659 -0.359806
C44   C     C_2   0.302555 0.517168 0.293533 -0.265895
H1    H     H_    0.719287 0.778219 0.318868 0.117202
H2    H     H_    0.819398 0.647432 0.653866 0.010768
H3    H     H_    0.611904 0.605864 0.665141 0.069732
H4    H     H_    0.593328 0.931084 0.305438 0.083966
H5    H     H_    0.810084 0.753580 0.763709 0.126047
H6    H     H_    0.760345 0.634945 0.782775 0.067378
H7    H     H_    0.599471 0.717079 0.773885 0.131264
H8    H     H_    0.502536 0.773000 0.333758 -0.018667
H9    H     H_    0.450788 0.877973 0.236740 0.115013
H10   H     H_    0.367264 0.325115 0.347088 0.026808
H11   H     H_    0.566650 0.368909 0.324020 0.033385
H12   H     H_    0.294817 0.869824 0.668040 0.128396
H13   H     H_    0.369611 0.202813 0.244595 0.131502
H14   H     H_    0.377300 0.320138 0.216656 0.064896
H15   H     H_    0.561295 0.253429 0.219139 0.123648
H16   H     H_    0.667749 0.883286 0.221640 0.136422
H17   H     H_    0.140999 0.836534 0.178755 0.116720
H18   H     H_    0.192504 0.328130 0.736428 0.093179
H19   H     H_    0.991702 0.270960 0.727844 -0.063497
H20   H     H_    0.272937 0.225792 0.832524 0.152969
H21   H     H_    0.094246 0.291502 0.853930 0.077254
H22   H     H_    0.072056 0.168936 0.823494 0.110408
H23   H     H_    0.220266 0.884495 0.577911 0.065269
H24   H     H_    0.732295 0.223454 0.693615 -0.065590
H25   H     H_    0.528619 0.207284 0.651861 0.094217
H26   H     H_    0.663360 0.109761 0.781328 0.112781
H27   H     H_    0.633616 0.058467 0.690641 0.069384
H28   H     H_    0.053022 0.671693 0.266475 0.079412
H29   H     H_    0.458974 0.093540 0.740297 0.150767
H30   H     H_    0.466573 0.534113 0.127540 0.109701
H31   H     H_    0.981156 0.449551 0.190010 0.116638
H32   H     H_    0.197828 0.566515 0.814980 0.111249
H33   H     H_    0.760245 0.415774 0.868339 0.107062
H34   H     H_    0.077143 0.873329 0.646819 0.116931
H35   H     H_    0.315796 0.558621 0.344462 0.061014
H36   H     H_    0.841420 0.465263 0.650856 0.068978
H37   H     H_    0.327920 0.696092 0.460649 0.067921
H38   H     H_    0.221736 0.973375 0.407196 0.072457
H39   H     H_    0.976790 0.021254 0.598384 0.070305
H40   H     H_    0.238478 0.744564 0.278641 -0.022688
H41   H     H_    0.861085 0.296357 0.541528 0.063429
H42   H     H_    0.778485 0.892442 0.569369 0.096745
H43   H     H_    0.417015 0.098536 0.437032 0.095537
H44   H     H_    0.154732 0.713361 0.151073 0.089197
H45   H     H_    0.889740 0.281589 0.410193 0.006106
H46   H     H_    0.957145 0.762479 0.166736 0.135959
H47   H     H_    0.309449 0.719722 0.595733 0.007425
H48   H     H_    0.095813 0.725369 0.566904 0.066669
H49   H     H_    0.105238 0.276452 0.433450 0.076391
H50   H     H_    0.896487 0.129823 0.338617 0.135147
H51   H     H_    0.983657 0.117162 0.427160 0.066130
H52   H     H_    0.116267 0.127260 0.354333 0.114196
N1    N     N_R   0.203973 0.524718 0.950608 -0.238510
N2    N     N_R   0.257187 0.526167 0.019067 -0.241141
N3    N     N_R   0.004167 0.465701 0.048721 -0.242816
N4    N     N_R   0.951133 0.463987 0.980246 -0.243310
O1    O     O_2   0.878750 0.447310 0.330740 -0.465724
O2    O     O_2   0.274525 0.167071 0.563915 -0.493524
O3    O     O_3   0.186141 0.189660 0.695367 -0.598814
O4    O     O_3   0.131030 0.448880 0.418060 -0.494395
O5    O     O_3   0.553640 0.613150 0.531430 -0.485521
O6    O     O_2   0.393070 0.270760 0.474720 -0.471794
O7    O     O_3   0.561179 0.236074 0.359304 -0.646262
O8    O     O_2   0.444679 0.447443 0.756103 -0.484336
O9    O     O_3   0.541942 0.274699 0.753590 -0.597378
O10   O     O_3   0.627390 0.618170 0.367170 -0.490071
O11   O     O_2   0.774983 0.572081 0.247438 -0.488617
O12   O     O_3   0.641021 0.743296 0.639414 -0.640291
O13   O     O_3   0.040509 0.297424 0.328012 -0.634938
O14   O     O_3   0.571535 0.707498 0.238354 -0.607753
O15   O     O_2   0.796630 0.729270 0.525320 -0.474059
O16   O     O_3   0.039210 0.666640 0.400620 -0.486321
O17   O     O_2   0.916012 0.833241 0.434083 -0.493784
O18   O     O_3   0.022556 0.809468 0.304905 -0.605124
O19   O     O_2   0.310950 0.552720 0.669300 -0.460263
O20   O     O_3   0.058670 0.551200 0.581940 -0.498374
O21   O     O_3   0.562310 0.381900 0.632830 -0.484883
O22   O     O_3   0.146400 0.702483 0.673148 -0.633947
O23   O     O_3   0.636050 0.386930 0.468580 -0.470874
O24   O     O_3   0.150490 0.333430 0.599380 -0.487313
P1    P     P_3+3 0.053470 0.419720 0.342720 0.982746
P2    P     P_3+3 0.625250 0.715650 0.546950 0.973075
P3    P     P_3+3 0.057995 0.787112 0.394410 0.935510
P4    P     P_3+3 0.136230 0.580350 0.657290 0.982737
P5    P     P_3+3 0.136811 0.212204 0.606919 0.944187
P6    P     P_3+3 0.605612 0.599695 0.274097 0.961325
P7    P     P_3+3 0.573367 0.269357 0.450895 0.936027
P8    P     P_3+3 0.582733 0.386643 0.726113 0.953532

loop_
_geom_bond_atom_site_label_1
_geom_bond_atom_site_label_2
_ccdc_geom_bond_type
N3    N4    A    
O11   P6    D    
C35   H23   S    
C23   H10   S    
O19   P4    D    
C29   P7    S    
C34   H13   S    
C5    C6    S    
O3    P5    S    
C13   P8    S    
C2    C44   S    
Ba2   O21   S    
C13   C17   A    
C24   C25   A    
C7    P1    S    
C26   C27   A    
C22   C24   A    
O5    P2    S    
C28   H47   S    
Ba1   O10   S    
C36   C37   S    
C16   H17   S    
Ba2   O19   S    
C8    C15   S    
C13   C14   A    
C18   H42   S    
Ba2   O5    S    
O13   P1    S    
C21   P3    S    
C42   H25   S    
C43   H27   S    
Ba1   Ba2   S    
Ba1   O20   S    
O17   P3    D    
C1    H9    S    
C33   H43   S    
C38   O12   S    
C29   C30   A    
C26   C33   A    
C14   C15   A    
O2    P5    D    
C10   H32   S    
C36   H49   S    
C40   H19   S    
C11   P4    S    
Ba1   P2    S    
C42   H24   S    
C17   H36   S    
O1    P1    D    
Ba1   O1    S    
C39   H6    S    
C35   H12   S    
C23   O7    S    
Ba1   O4    S    
C31   P5    S    
C19   C25   A    
C7    C44   D    
C19   C20   A    
C43   H26   S    
C23   H11   S    
C4    O18   S    
O15   P2    D    
C1    H4    S    
C4    H28   S    
C18   C27   A    
Ba2   O20   S    
C4    C16   S    
C35   H34   S    
C11   C17   A    
O21   P8    S    
O7    P7    S    
O18   P3    S    
C16   H44   S    
C8    N4    A    
C2    P6    S    
C3    C5    D    
C6    C7    D    
C37   H52   S    
C30   H41   S    
O4    P1    S    
Ba2   O4    S    
C28   C35   S    
C9    N2    A    
C32   H39   S    
C10   C15   A    
C5    C9    S    
C27   C32   A    
C44   H35   S    
O12   P2    S    
N1    N2    A    
O14   P6    S    
C21   C22   A    
C31   C32   A    
O22   P4    S    
C9    N3    A    
Ba1   O15   S    
O10   P6    S    
C19   P2    S    
C39   H7    S    
C1    C12   S    
Ba1   O5    S    
Ba2   O23   S    
Ba2   O24   S    
C38   C39   S    
C12   H8    S    
C28   O22   S    
C6    H31   S    
O8    P8    D    
C40   C41   S    
C34   H15   S    
C40   H18   S    
C42   C43   S    
C1    H16   S    
O23   P7    S    
C38   H2    S    
C26   C29   A    
Ba1   P1    S    
Ba1   O23   S    
C2    C3    S    
C34   H14   S    
O9    P8    S    
C12   H1    S    
C18   C25   A    
C41   H22   S    
C4    H40   S    
C43   H29   S    
C14   H33   S    
C16   H46   S    
C30   C31   A    
C3    H30   S    
C22   H38   S    
O6    P7    D    
C28   H48   S    
O16   P3    S    
C20   H37   S    
C36   O13   S    
O24   P5    S    
C41   H20   S    
C12   O14   S    
C36   H45   S    
Ba2   O6    S    
Ba2   P4    S    
O20   P4    S    
Ba1   O16   S    
C8    N1    A    
C40   O3    S    
C37   H50   S    
C37   H51   S    
C23   C34   S    
C42   O9    S    
C24   C33   A    
C10   C11   A    
C41   H21   S    
C20   C21   A    
C39   H5    S    
C38   H3    S    
