data_mof_unit_pretest_1116.cif
_audit_creation_date              2012-12-10T17:34:57-0500
_audit_creation_method            fapswitch 2.2
_symmetry_space_group_name_H-M    P1
_symmetry_Int_Tables_number       1
_space_group_crystal_system       triclinic
_cell_length_a                    12.018965
_cell_length_b                    12.879058
_cell_length_c                    15.755111
_cell_angle_alpha                 90.266342
_cell_angle_beta                  85.39152
_cell_angle_gamma                 93.650785
_cell_volume                      2425.96215566

loop_
_atom_site_label
_atom_site_type_symbol
_atom_type_description
_atom_site_fract_x
_atom_site_fract_y
_atom_site_fract_z
_atom_type_partial_charge
C1    C     C_R   0.522629 0.700527 0.498509 0.930195
C2    C     C_3   0.409765 0.591941 0.056682 0.315868
C3    C     C_3   0.501088 0.514521 0.083403 -0.084150
C4    C     C_3   0.469992 0.400284 0.052785 0.213112
C5    C     C_3   0.488183 0.397668 0.954032 0.341274
C6    C     C_1   0.502623 0.509647 0.174848 0.091966
C7    C     C_1   0.497223 0.508024 0.825433 0.044541
C8    C     C_1   0.498319 0.504336 0.750261 -0.105625
C9    C     C_R   0.462612 0.187741 0.500846 -0.170363
C10   C     C_R   0.537640 0.812211 0.497715 -0.176115
C11   C     C_R   0.643842 0.972387 0.524511 -0.274663
C12   C     C_R   0.499435 0.500535 0.661618 0.902182
C13   C     C_R   0.639215 0.864659 0.516814 0.509461
C14   C     C_R   0.445672 0.867081 0.480282 -0.264814
C15   C     C_R   0.450551 0.973567 0.487429 0.099209
C16   C     C_R   0.550003 0.026402 0.510252 0.103608
C17   C     C_R   0.554863 0.132849 0.517555 -0.303423
C18   C     C_R   0.361217 0.135362 0.481218 0.501288
C19   C     C_R   0.356758 0.027629 0.473092 -0.271528
C20   C     C_R   0.956431 0.415947 0.408904 -0.119969
C21   C     C_R   0.839764 0.424723 0.419435 -0.043811
C22   C     C_R   0.855883 0.531116 0.540834 -0.007507
C23   C     C_R   0.477399 0.299457 0.501106 0.907319
C24   C     C_R   0.973884 0.528153 0.533055 -0.021232
C25   C     C_R   0.025506 0.469227 0.466413 -0.013572
C26   C     C_R   0.144133 0.467696 0.458968 -0.031189
C27   C     C_R   0.158352 0.576350 0.580373 0.020743
C28   C     C_R   0.040896 0.582047 0.590499 -0.190161
C29   C     C_R   0.500604 0.500101 0.338428 0.894170
C30   C     C_3   0.396883 0.572853 0.958186 -0.320814
C31   C     C_3   0.609189 0.569104 0.943877 -0.334278
C32   C     C_3   0.624103 0.549038 0.040836 0.274404
C33   C     C_1   0.502294 0.504573 0.249905 -0.098810
C34   C     C_3   0.497094 0.511751 0.917173 -0.146889
H1    H     H_    0.321667 0.521341 0.952449 0.173733
H2    H     H_    0.530861 0.348108 0.078092 0.122343
H3    H     H_    0.631870 0.173104 0.534886 0.187336
H4    H     H_    0.720086 0.013314 0.542423 0.160564
H5    H     H_    0.280677 0.986716 0.454853 0.162212
H6    H     H_    0.368810 0.826758 0.462754 0.208964
H7    H     H_    0.187271 0.426254 0.408040 0.201103
H8    H     H_    0.785910 0.385306 0.375943 0.157993
H9    H     H_    0.813281 0.573972 0.591343 0.183728
H10   H     H_    0.600065 0.653563 0.936335 0.221899
H11   H     H_    0.573605 0.370570 0.941640 0.193300
N1    N     N_R   0.207800 0.519340 0.515510 -0.152477
N2    N     N_R   0.792190 0.480660 0.484490 -0.117307
O1    O     O_R   0.421690 0.658830 0.504140 -0.611197
O2    O     O_R   0.609320 0.646410 0.494190 -0.578023
O3    O     O_R   0.406150 0.506210 0.627840 -0.611598
O4    O     O_R   0.593770 0.493790 0.617880 -0.617697
O5    O     O_R   0.390680 0.353590 0.505810 -0.580135
O6    O     O_R   0.578310 0.341170 0.495860 -0.635530
O7    O     O_R   0.406230 0.506210 0.382120 -0.598311
O8    O     O_R   0.593850 0.493790 0.372160 -0.637415
Zn1   Zn    Zn3+2 0.374720 0.508290 0.506640 0.997258
Zn2   Zn    Zn3+2 0.625280 0.491710 0.493360 0.969410
O9    O     O_3   0.455090 0.696038 0.069417 -0.597522
C35   C     C_3   0.376168 0.772501 0.085474 -0.165283
H12   H     H_    0.352906 0.777687 0.154899 0.187600
H13   H     H_    0.299736 0.758679 0.050757 0.138672
H14   H     H_    0.416134 0.849126 0.064597 0.193260
C36   C     C_2   0.296408 0.570064 0.110751 0.947504
O10   O     O_2   0.211011 0.542222 0.077316 -0.609147
O11   O     O_R   0.290034 0.586701 0.198799 -0.801415
H15   H     H_    0.212120 0.570410 0.227073 0.347383
O12   O     O_3   0.270787 0.189571 0.461847 -0.580881
C37   C     C_3   0.188391 0.180442 0.530853 -0.203901
H16   H     H_    0.222242 0.207883 0.591402 0.146957
H17   H     H_    0.151717 0.099156 0.537907 0.149945
H18   H     H_    0.119785 0.230491 0.518233 0.210958
O13   O     O_3   0.730001 0.810620 0.535623 -0.572819
C38   C     C_3   0.810974 0.818665 0.465610 -0.200486
H19   H     H_    0.848402 0.899635 0.457975 0.144812
H20   H     H_    0.775501 0.791378 0.405605 0.149271
H21   H     H_    0.879295 0.767901 0.477370 0.215345
C39   C     C_2   0.373474 0.669725 0.908747 0.977668
O14   O     O_2   0.281169 0.676508 0.882443 -0.561339
O15   O     O_R   0.455488 0.750754 0.893044 -0.784858
H22   H     H_    0.428353 0.809854 0.859518 0.342846
C40   C     C_2   0.227195 0.636100 0.639199 1.002705
O16   O     O_2   0.239319 0.600409 0.709372 -0.567044
O17   O     O_R   0.268727 0.737133 0.617895 -0.810150
H23   H     H_    0.312360 0.771186 0.664169 0.344593
C41   C     C_2   0.001063 0.350499 0.337844 0.873206
O18   O     O_2   0.962234 0.353919 0.268555 -0.633009
O19   O     O_R   0.083436 0.281589 0.350625 -0.798219
H24   H     H_    0.105946 0.241005 0.297366 0.353748
C42   C     C_2   0.989488 0.645403 0.660581 0.904142
O20   O     O_2   0.000918 0.623625 0.734697 -0.534481
O21   O     O_R   0.928694 0.730050 0.641464 -0.784379
H25   H     H_    0.897417 0.766722 0.694368 0.380679
C43   C     C_2   0.713070 0.547848 0.885412 1.067626
O22   O     O_2   0.765653 0.620198 0.847338 -0.566740
O23   O     O_R   0.747709 0.446800 0.873757 -0.769745
H26   H     H_    0.817058 0.443992 0.832891 0.355763
C44   C     C_2   0.679614 0.649902 0.076660 0.945872
O24   O     O_2   0.643695 0.687873 0.143887 -0.608860
O25   O     O_R   0.776091 0.695940 0.033007 -0.768409
H27   H     H_    0.806465 0.760583 0.062535 0.352294
O26   O     O_3   0.695473 0.463984 0.044524 -0.640929
C45   C     C_3   0.759947 0.462613 0.115859 -0.194424
H28   H     H_    0.785035 0.382186 0.124466 0.210023
H29   H     H_    0.714188 0.485606 0.176039 0.134092
H30   H     H_    0.837677 0.513498 0.103852 0.216843
O27   O     O_3   0.424173 0.316976 0.913532 -0.606744
C46   C     C_3   0.313274 0.337429 0.899030 -0.164131
H31   H     H_    0.309937 0.397896 0.849741 0.168430
H32   H     H_    0.261754 0.355270 0.957941 0.224880
H33   H     H_    0.273012 0.265510 0.873135 0.172446
O28   O     O_3   0.358129 0.368718 0.081882 -0.600514
C47   C     C_3   0.350754 0.268169 0.117857 -0.240722
H34   H     H_    0.395295 0.267863 0.177068 0.152974
H35   H     H_    0.384185 0.210191 0.071520 0.184099
H36   H     H_    0.261403 0.244881 0.135171 0.198938

loop_
_geom_bond_atom_site_label_1
_geom_bond_atom_site_label_2
_ccdc_geom_bond_type
O19   H24   S    
C4    H2    S    
C43   O22   D    
C38   H20   S    
C38   H19   S    
O23   H26   S    
C3    C6    S    
C36   O11   S    
C44   O24   D    
C7    C8    T    
C41   O18   D    
C15   C19   A    
O26   C45   S    
C30   H1    S    
O17   H23   S    
C46   H33   S    
C40   O16   D    
C20   C25   A    
C15   C16   A    
C29   C33   S    
O2    Zn2   S    
C32   C44   S    
C45   H30   S    
C18   C19   A    
C40   O17   S    
C30   C39   S    
C31   C32   S    
C37   H16   S    
C46   H31   S    
C28   C42   S    
O4    Zn2   S    
C42   O21   S    
C39   O14   D    
C41   O19   S    
C22   N2    A    
C35   H12   S    
C43   O23   S    
C5    C34   S    
C46   H32   S    
C3    C32   S    
C47   H35   S    
C47   H34   S    
C44   O25   S    
C23   O6    A    
C5    O27   S    
C39   O15   S    
O7    Zn1   S    
C35   H13   S    
C31   H10   S    
C30   C34   S    
O12   C37   S    
C27   C40   S    
C24   C25   A    
C10   C14   A    
O21   H25   S    
O6    Zn2   S    
C16   C17   A    
C29   O8    A    
O9    C35   S    
C31   C43   S    
C5    H11   S    
O3    Zn1   S    
C36   O10   D    
C11   H4    S    
N2    Zn2   S    
C11   C16   A    
C22   H9    S    
C8    C12   S    
C20   C41   S    
C31   C34   S    
C25   C26   A    
C17   H3    S    
O27   C46   S    
C45   H29   S    
C19   H5    S    
C27   N1    A    
C9    C17   A    
C4    O28   S    
O8    Zn2   S    
C7    C34   S    
C22   C24   A    
C3    C4    S    
C12   O4    A    
C2    C36   S    
O1    Zn1   S    
C35   H14   S    
C21   H8    S    
O28   C47   S    
C32   O26   S    
C9    C23   S    
C1    C10   S    
C24   C28   A    
O13   C38   S    
C10   C13   A    
C12   O3    A    
C2    O9    S    
C1    O1    A    
C13   O13   S    
C6    C33   T    
C2    C30   S    
C2    C3    S    
C18   O12   S    
O25   H27   S    
C11   C13   A    
C23   O5    A    
C37   H18   S    
C38   H21   S    
C45   H28   S    
C26   N1    A    
C14   H6    S    
O15   H22   S    
C9    C18   A    
C4    C5    S    
C20   C21   A    
C37   H17   S    
O11   H15   S    
C29   O7    A    
N1    Zn1   S    
C27   C28   A    
C14   C15   A    
C42   O20   D    
C1    O2    A    
C47   H36   S    
O5    Zn1   S    
C26   H7    S    
C21   N2    A    
