data_mof_unit_pretest_1571.cif
_audit_creation_date              2013-03-05T16:17:44-0500
_audit_creation_method            fapswitch 2.2
_symmetry_space_group_name_H-M    P1
_symmetry_Int_Tables_number       1
_space_group_crystal_system       triclinic
_cell_length_a                    28.514376
_cell_length_b                    26.030612
_cell_length_c                    18.203331
_cell_angle_alpha                 90.000046
_cell_angle_beta                  89.999972
_cell_angle_gamma                 90.017335
_cell_volume                      13511.3609822

loop_
_atom_site_label
_atom_site_type_symbol
_atom_site_description
_atom_site_fract_x
_atom_site_fract_y
_atom_site_fract_z
_atom_type_partial_charge
O1    O     O_R   0.049930 0.450080 0.561970 -0.601990
O2    O     O_R   0.950070 0.549920 0.438030 -0.514873
O3    O     O_R   0.950070 0.549920 0.561970 -0.600935
O4    O     O_R   0.049930 0.450080 0.438030 -0.513175
O5    O     O_R   0.950070 0.450080 0.438030 -0.599344
O6    O     O_R   0.049930 0.549920 0.561970 -0.515008
O7    O     O_R   0.049930 0.549920 0.438030 -0.599539
O8    O     O_R   0.950070 0.450080 0.561970 -0.512332
O9    O     O_R   0.549930 0.950080 0.561970 -0.600935
O10   O     O_R   0.450070 0.049920 0.438030 -0.513175
O11   O     O_R   0.450070 0.049920 0.561970 -0.601989
O12   O     O_R   0.549930 0.950080 0.438030 -0.514873
O13   O     O_R   0.450070 0.950080 0.438030 -0.599539
O14   O     O_R   0.549930 0.049920 0.561970 -0.512331
O15   O     O_R   0.549930 0.049920 0.438030 -0.599345
O16   O     O_R   0.450070 0.950080 0.561970 -0.515008
C1    C     C_R   0.068163 0.435359 0.500082 0.883533
C2    C     C_R   0.931863 0.564680 0.500088 0.894965
C3    C     C_R   0.931687 0.435554 0.499959 0.893930
C4    C     C_R   0.068193 0.564602 0.499905 0.899499
C5    C     C_R   0.568137 0.935320 0.500088 0.894965
C6    C     C_R   0.431837 0.064641 0.500082 0.883533
C7    C     C_R   0.431807 0.935398 0.499905 0.899500
C8    C     C_R   0.568313 0.064446 0.499959 0.893929
C9    C     C_R   0.007969 0.545317 0.198477 0.172372
C10   C     C_R   0.009805 0.455304 0.801633 0.167180
C11   C     C_R   0.991527 0.454690 0.198553 0.171010
C12   C     C_R   0.987423 0.544230 0.801378 0.171041
C13   C     C_R   0.508473 0.045310 0.198553 0.171010
C14   C     C_R   0.512577 0.955770 0.801378 0.171040
C15   C     C_R   0.492031 0.954683 0.198477 0.172372
C16   C     C_R   0.490195 0.044696 0.801633 0.167181
Cu1   Cu    Cu3+1 1.000000 0.500000 0.573360 1.066018
Cu2   Cu    Cu3+1 1.000000 0.500000 0.426640 1.069327
Cu3   Cu    Cu3+1 0.500000 0.000000 0.573360 1.066018
Cu4   Cu    Cu3+1 0.500000 1.000000 0.426640 1.069327
N1    N     N_R   0.000000 0.500000 0.316380 -0.262784
N2    N     N_R   1.000000 0.500000 0.683620 -0.256705
N3    N     N_R   0.500000 0.000000 0.316380 -0.262784
N4    N     N_R   0.500000 1.000000 0.683620 -0.256705
N5    N     N_R   0.027533 0.467776 0.037470 -0.128827
N6    N     N_R   0.970269 0.531890 0.964549 -0.119355
N7    N     N_R   0.970699 0.532147 0.037996 -0.129800
N8    N     N_R   0.027241 0.467849 0.964023 -0.116628
N9    N     N_R   0.529301 0.967853 0.037996 -0.129801
N10   N     N_R   0.472759 0.032151 0.964023 -0.116628
N11   N     N_R   0.472467 0.032224 0.037471 -0.128827
N12   N     N_R   0.529731 0.968110 0.964549 -0.119354
C17   C     C_R   0.009356 0.544581 0.276765 0.048461
C18   C     C_R   0.011321 0.456063 0.723344 0.039548
C19   C     C_R   0.990513 0.455402 0.276847 0.048909
C20   C     C_R   0.988062 0.543846 0.723098 0.049935
C21   C     C_R   0.509487 0.044598 0.276847 0.048909
C22   C     C_R   0.511937 0.956154 0.723098 0.049935
C23   C     C_R   0.490644 0.955419 0.276765 0.048461
C24   C     C_R   0.488679 0.043937 0.723344 0.039551
C25   C     C_R   0.879346 0.365071 0.552961 -0.134194
C26   C     C_R   0.142038 0.594272 0.436203 -0.141368
C27   C     C_R   0.119644 0.636245 0.551531 -0.133439
C28   C     C_R   0.858008 0.405564 0.436042 -0.141867
C29   C     C_R   0.118981 0.362993 0.449150 -0.141155
C30   C     C_R   0.857723 0.594001 0.563187 -0.140521
C31   C     C_R   0.881066 0.637114 0.449232 -0.133970
C32   C     C_R   0.142485 0.406219 0.562954 -0.116030
C33   C     C_R   0.380356 0.863755 0.551531 -0.133439
C34   C     C_R   0.641992 0.094436 0.436042 -0.141866
C35   C     C_R   0.620653 0.134929 0.552960 -0.134193
C36   C     C_R   0.357962 0.905728 0.436203 -0.141368
C37   C     C_R   0.618934 0.862886 0.449232 -0.133971
C38   C     C_R   0.357515 0.093781 0.562954 -0.116030
C39   C     C_R   0.381019 0.137006 0.449150 -0.141155
C40   C     C_R   0.642277 0.905999 0.563187 -0.140520
C41   C     C_R   0.846704 0.325651 0.538897 0.248036
C42   C     C_R   0.175834 0.632951 0.423771 0.252954
C43   C     C_R   0.152432 0.675455 0.537240 0.249203
C44   C     C_R   0.824258 0.366785 0.423940 0.252868
C45   C     C_R   0.151830 0.323892 0.463578 0.249518
C46   C     C_R   0.823954 0.632644 0.575903 0.254069
C47   C     C_R   0.848211 0.676209 0.463699 0.249926
C48   C     C_R   0.176330 0.367614 0.575521 0.267180
C49   C     C_R   0.347568 0.824545 0.537240 0.249202
C50   C     C_R   0.675742 0.133214 0.423940 0.252869
C51   C     C_R   0.653296 0.174349 0.538896 0.248036
C52   C     C_R   0.324166 0.867048 0.423771 0.252954
C53   C     C_R   0.651789 0.823791 0.463699 0.249926
C54   C     C_R   0.323670 0.132386 0.575522 0.267179
C55   C     C_R   0.348170 0.176108 0.463578 0.249518
C56   C     C_R   0.676046 0.867356 0.575903 0.254069
C57   C     C_R   0.820109 0.325928 0.473926 -0.169718
C58   C     C_R   0.179638 0.674360 0.472906 -0.168710
C59   C     C_R   0.179630 0.325639 0.527267 -0.167886
C60   C     C_R   0.820516 0.674526 0.527511 -0.169363
C61   C     C_R   0.320362 0.825640 0.472906 -0.168710
C62   C     C_R   0.679891 0.174072 0.473926 -0.169719
C63   C     C_R   0.679485 0.825474 0.527511 -0.169363
C64   C     C_R   0.320370 0.174361 0.527267 -0.167886
C65   C     C_R   0.998531 0.499797 0.925404 0.495721
C66   C     C_R   0.999301 0.500005 0.076194 0.523389
C67   C     C_R   0.501469 0.000204 0.925404 0.495721
C68   C     C_R   0.500699 0.999994 0.076194 0.523389
C69   C     C_R   0.888717 0.402410 0.497781 -0.208829
C70   C     C_R   0.110976 0.597989 0.497446 -0.209364
C71   C     C_R   0.110896 0.401906 0.502465 -0.215194
C72   C     C_R   0.889181 0.598205 0.502535 -0.212798
C73   C     C_R   0.389024 0.902011 0.497446 -0.209364
C74   C     C_R   0.611283 0.097590 0.497781 -0.208830
C75   C     C_R   0.610819 0.901795 0.502535 -0.212798
C76   C     C_R   0.389103 0.098094 0.502465 -0.215194
N13   N     N_R   0.737805 0.299946 0.463267 -0.126459
N14   N     N_R   0.204643 0.764215 0.462192 -0.128961
N15   N     N_R   0.262024 0.700005 0.462036 -0.126208
N16   N     N_R   0.795409 0.235970 0.463449 -0.130042
N17   N     N_R   0.262035 0.299999 0.538275 -0.127393
N18   N     N_R   0.795329 0.764336 0.538368 -0.128432
N19   N     N_R   0.738066 0.699973 0.538505 -0.126036
N20   N     N_R   0.204644 0.235774 0.538146 -0.125461
N21   N     N_R   0.295357 0.735785 0.462192 -0.128961
N22   N     N_R   0.762196 0.200054 0.463270 -0.126460
N23   N     N_R   0.704591 0.264029 0.463446 -0.130040
N24   N     N_R   0.237976 0.799995 0.462036 -0.126208
N25   N     N_R   0.704671 0.735664 0.538368 -0.128432
N26   N     N_R   0.237964 0.200001 0.538274 -0.127393
N27   N     N_R   0.295356 0.264226 0.538146 -0.125461
N28   N     N_R   0.761934 0.800027 0.538505 -0.126036
C77   C     C_R   0.216121 0.713641 0.462692 0.511090
C78   C     C_R   0.783754 0.286494 0.463885 0.511710
C79   C     C_R   0.783951 0.713724 0.537823 0.510395
C80   C     C_R   0.216124 0.286360 0.537594 0.509481
C81   C     C_R   0.716246 0.213505 0.463885 0.511704
C82   C     C_R   0.283879 0.786359 0.462692 0.511090
C83   C     C_R   0.283876 0.213640 0.537594 0.509480
C84   C     C_R   0.716050 0.786276 0.537822 0.510395
C85   C     C_R   0.999616 0.500011 0.158871 -0.165639
C86   C     C_R   0.998262 0.499721 0.841849 -0.152486
C87   C     C_R   0.500384 0.999989 0.158871 -0.165639
C88   C     C_R   0.501738 0.000279 0.841849 -0.152486
C89   C     C_2   0.024259 0.592953 0.312727 0.943324
O17   O     O_2   0.000496 0.612549 0.360665 -0.574808
O18   O     O_R   0.065123 0.617626 0.289077 -0.674532
H1    H     H_    0.071751 0.650402 0.317341 0.359346
C90   C     C_2   0.026706 0.407844 0.687246 0.943699
O19   O     O_2   0.064242 0.388566 0.704283 -0.506205
O20   O     O_R   0.998576 0.383399 0.635508 -0.744392
H2    H     H_    0.013412 0.350968 0.615192 0.345315
C91   C     C_2   0.975846 0.406958 0.312906 0.942216
O21   O     O_2   0.999689 0.387542 0.360884 -0.577987
O22   O     O_R   0.935111 0.382003 0.289309 -0.674446
H3    H     H_    0.928651 0.349213 0.317637 0.359043
C92   C     C_2   0.974977 0.592683 0.686639 0.938380
O23   O     O_2   0.000721 0.612217 0.641236 -0.575840
O24   O     O_R   0.933333 0.617521 0.706063 -0.671882
H4    H     H_    0.928155 0.650493 0.677532 0.356989
C93   C     C_2   0.524154 0.093042 0.312906 0.942216
O25   O     O_2   0.500311 0.112458 0.360884 -0.577987
O26   O     O_R   0.564889 0.117997 0.289310 -0.674447
H5    H     H_    0.571349 0.150786 0.317637 0.359043
C94   C     C_2   0.525023 0.907317 0.686639 0.938380
O27   O     O_2   0.499279 0.887783 0.641236 -0.575840
O28   O     O_R   0.566667 0.882479 0.706062 -0.671882
H6    H     H_    0.571845 0.849507 0.677532 0.356989
C95   C     C_2   0.475741 0.907047 0.312727 0.943324
O29   O     O_2   0.499504 0.887451 0.360665 -0.574807
O30   O     O_R   0.434877 0.882373 0.289077 -0.674533
H7    H     H_    0.428249 0.849598 0.317341 0.359346
C96   C     C_2   0.473294 0.092156 0.687246 0.943698
O31   O     O_2   0.435757 0.111433 0.704283 -0.506206
O32   O     O_R   0.501423 0.116601 0.635509 -0.744393
H8    H     H_    0.486587 0.149032 0.615193 0.345314
N29   N     N_R   0.015791 0.592500 0.159188 0.166332
O33   O     O_R   0.048978 0.595601 0.110318 -0.236257
O34   O     O_R   0.989791 0.632520 0.172379 -0.275258
N30   N     N_R   0.017184 0.407802 0.839871 0.143688
O35   O     O_R   0.981414 0.381792 0.864018 -0.262549
O36   O     O_R   0.059486 0.392909 0.856115 -0.201396
N31   N     N_R   0.983590 0.407504 0.159331 0.166927
O37   O     O_R   0.950006 0.404268 0.111148 -0.232675
O38   O     O_R   0.009846 0.367598 0.171974 -0.274188
N32   N     N_R   0.978617 0.591459 0.839509 0.151369
O39   O     O_R   0.012148 0.624896 0.847314 -0.271683
O40   O     O_R   0.936198 0.603183 0.859820 -0.199718
N33   N     N_R   0.516410 0.092496 0.159332 0.166928
O41   O     O_R   0.549994 0.095732 0.111148 -0.232676
O42   O     O_R   0.490154 0.132402 0.171974 -0.274189
N34   N     N_R   0.521383 0.908541 0.839508 0.151369
O43   O     O_R   0.487852 0.875104 0.847314 -0.271683
O44   O     O_R   0.563802 0.896817 0.859819 -0.199718
N35   N     N_R   0.484209 0.907500 0.159188 0.166333
O45   O     O_R   0.451022 0.904399 0.110317 -0.236257
O46   O     O_R   0.510209 0.867480 0.172379 -0.275257
N36   N     N_R   0.482815 0.092198 0.839871 0.143688
O47   O     O_R   0.518586 0.118208 0.864018 -0.262547
O48   O     O_R   0.440514 0.107091 0.856115 -0.201396
C97   C     C_2   0.899005 0.368831 0.628241 1.002747
O49   O     O_2   0.895609 0.409024 0.662604 -0.530995
O50   O     O_R   0.918478 0.325504 0.661890 -0.663589
H9    H     H_    0.929050 0.332496 0.714132 0.376946
C98   C     C_2   0.141495 0.548547 0.387103 0.975605
O51   O     O_2   0.139674 0.505475 0.413629 -0.554556
O52   O     O_R   0.144211 0.554562 0.310901 -0.650774
H10   H     H_    0.143366 0.520544 0.283806 0.370892
C99   C     C_2   0.098809 0.633905 0.626029 1.005788
O53   O     O_2   0.102742 0.594816 0.662784 -0.533311
O54   O     O_R   0.077580 0.677475 0.656247 -0.650402
H11   H     H_    0.066708 0.671798 0.708661 0.378603
C100  C     C_2   0.858708 0.450957 0.386296 0.975069
O55   O     O_2   0.860693 0.494200 0.412235 -0.553743
O56   O     O_R   0.855919 0.444464 0.310181 -0.650075
H12   H     H_    0.856884 0.478301 0.282634 0.370584
C101  C     C_2   0.097392 0.364441 0.375175 1.004864
O57   O     O_2   0.101283 0.402936 0.337141 -0.530181
O58   O     O_R   0.075497 0.320629 0.346867 -0.652566
H13   H     H_    0.064253 0.325556 0.294504 0.382236
C102  C     C_2   0.857821 0.547774 0.611251 0.980312
O59   O     O_2   0.859392 0.505011 0.583726 -0.556373
O60   O     O_R   0.854935 0.552963 0.687564 -0.645892
H14   H     H_    0.855466 0.518644 0.713887 0.372824
C103  C     C_2   0.902697 0.635722 0.375287 1.004362
O61   O     O_2   0.898828 0.597260 0.337181 -0.530122
O62   O     O_R   0.924611 0.679559 0.347093 -0.650682
H15   H     H_    0.935878 0.674682 0.294735 0.382338
C104  C     C_2   0.142472 0.452502 0.610971 0.978636
O63   O     O_2   0.140244 0.495243 0.583482 -0.560628
O64   O     O_R   0.146239 0.447402 0.687208 -0.642135
H16   H     H_    0.145722 0.481737 0.713493 0.370598
C105  C     C_2   0.401191 0.866095 0.626029 1.005788
O65   O     O_2   0.397258 0.905184 0.662784 -0.533311
O66   O     O_R   0.422420 0.822525 0.656247 -0.650402
H17   H     H_    0.433292 0.828202 0.708661 0.378603
C106  C     C_2   0.641292 0.049042 0.386296 0.975070
O67   O     O_2   0.639307 0.005800 0.412235 -0.553744
O68   O     O_R   0.644081 0.055535 0.310181 -0.650075
H18   H     H_    0.643116 0.021699 0.282634 0.370584
C107  C     C_2   0.600994 0.131171 0.628240 1.002752
O69   O     O_2   0.604389 0.090978 0.662604 -0.530992
O70   O     O_R   0.581522 0.174499 0.661887 -0.663592
H19   H     H_    0.570949 0.167508 0.714129 0.376947
C108  C     C_2   0.358505 0.951453 0.387103 0.975605
O71   O     O_2   0.360326 0.994525 0.413629 -0.554556
O72   O     O_R   0.355789 0.945438 0.310901 -0.650774
H20   H     H_    0.356634 0.979456 0.283806 0.370892
C109  C     C_2   0.597303 0.864278 0.375287 1.004363
O73   O     O_2   0.601171 0.902740 0.337181 -0.530122
O74   O     O_R   0.575389 0.820441 0.347094 -0.650682
H21   H     H_    0.564121 0.825318 0.294735 0.382338
C110  C     C_2   0.357527 0.047498 0.610971 0.978636
O75   O     O_2   0.359756 0.004757 0.583482 -0.560628
O76   O     O_R   0.353761 0.052598 0.687208 -0.642134
H22   H     H_    0.354278 0.018263 0.713492 0.370597
C111  C     C_2   0.402608 0.135558 0.375175 1.004865
O77   O     O_2   0.398718 0.097063 0.337141 -0.530181
O78   O     O_R   0.424503 0.179371 0.346867 -0.652567
H23   H     H_    0.435747 0.174444 0.294504 0.382237
C112  C     C_2   0.642179 0.952226 0.611251 0.980311
O79   O     O_2   0.640608 0.994989 0.583726 -0.556375
O80   O     O_R   0.645065 0.947037 0.687564 -0.645892
H24   H     H_    0.644533 0.981356 0.713887 0.372824
N37   N     N_R   0.837553 0.287314 0.593674 0.149448
O81   O     O_R   0.863800 0.246530 0.597256 -0.215900
O82   O     O_R   0.799747 0.290074 0.633466 -0.241338
N38   N     N_R   0.207129 0.629738 0.362061 0.166142
O83   O     O_R   0.209536 0.667279 0.315017 -0.241280
O84   O     O_R   0.235669 0.590994 0.355756 -0.239316
N39   N     N_R   0.161039 0.714454 0.591286 0.146643
O85   O     O_R   0.134530 0.755078 0.593613 -0.214338
O86   O     O_R   0.198607 0.712377 0.631712 -0.243078
N40   N     N_R   0.793303 0.369381 0.361758 0.166365
O87   O     O_R   0.791204 0.331405 0.315398 -0.240997
O88   O     O_R   0.764629 0.407924 0.354503 -0.238880
N41   N     N_R   0.159887 0.284327 0.410171 0.146856
O89   O     O_R   0.133181 0.243814 0.409091 -0.215078
O90   O     O_R   0.197164 0.285847 0.369035 -0.243298
N42   N     N_R   0.792343 0.628932 0.637162 0.166724
O91   O     O_R   0.789785 0.666048 0.684869 -0.238839
O92   O     O_R   0.763718 0.590169 0.642440 -0.239929
N43   N     N_R   0.840057 0.715716 0.410243 0.146420
O93   O     O_R   0.866646 0.756321 0.409136 -0.214496
O94   O     O_R   0.802802 0.714038 0.369073 -0.243030
N44   N     N_R   0.208185 0.371477 0.636446 0.166435
O95   O     O_R   0.210845 0.334543 0.684426 -0.229892
O96   O     O_R   0.236976 0.410134 0.641048 -0.242990
N45   N     N_R   0.338961 0.785546 0.591285 0.146643
O97   O     O_R   0.365470 0.744922 0.593613 -0.214337
O98   O     O_R   0.301393 0.787623 0.631712 -0.243078
N46   N     N_R   0.706697 0.130618 0.361758 0.166365
O99   O     O_R   0.708797 0.168594 0.315398 -0.240997
O100  O     O_R   0.735371 0.092075 0.354503 -0.238881
N47   N     N_R   0.662447 0.212686 0.593673 0.149448
O101  O     O_R   0.636205 0.253474 0.597247 -0.215904
O102  O     O_R   0.700247 0.209918 0.633479 -0.241328
N48   N     N_R   0.292871 0.870262 0.362061 0.166142
O103  O     O_R   0.290464 0.832721 0.315017 -0.241280
O104  O     O_R   0.264331 0.909006 0.355756 -0.239316
N49   N     N_R   0.659943 0.784284 0.410243 0.146420
O105  O     O_R   0.633355 0.743679 0.409136 -0.214496
O106  O     O_R   0.697198 0.785963 0.369072 -0.243029
N50   N     N_R   0.291815 0.128523 0.636446 0.166435
O107  O     O_R   0.289154 0.165457 0.684426 -0.229893
O108  O     O_R   0.263024 0.089866 0.641048 -0.242990
N51   N     N_R   0.340113 0.215673 0.410171 0.146856
O109  O     O_R   0.366819 0.256186 0.409091 -0.215079
O110  O     O_R   0.302836 0.214153 0.369035 -0.243298
N52   N     N_R   0.707657 0.871068 0.637162 0.166725
O111  O     O_R   0.710215 0.833953 0.684869 -0.238839
O112  O     O_R   0.736282 0.909831 0.642440 -0.239929

loop_
_geom_bond_atom_site_label_1
_geom_bond_atom_site_label_2
_geom_bond_distance
_ccdc_geom_bond_type
C32   C71   1.426983 A    
N10   C67   1.362480 A    
C26   C98   1.488559 S    
C21   C93   1.481782 S    
C96   O31   1.222271 D    
N19   N25   1.330585 A    
C17   C89   1.481297 S    
O2    C2    1.301305 A    
Cu2   N1    2.007099 S    
C99   O54   1.398476 S    
C99   O53   1.222967 D    
N26   C83   1.356368 A    
N43   O93   1.300734 A    
N7    C66   1.359812 A    
C40   C112  1.487767 S    
N51   O109  1.300738 A    
C50   N46   1.436987 S    
N32   O39   1.300556 A    
C37   C75   1.421606 A    
O1    Cu1   1.938984 S    
O78   H23   1.013811 S    
N31   O38   1.301164 A    
N17   C80   1.356368 A    
C31   C47   1.408291 A    
N33   O41   1.301294 A    
O10   C6    1.301216 A    
C62   C81   1.470053 S    
C35   C51   1.408626 A    
C14   C22   1.425108 A    
C66   C85   1.505031 S    
C26   C42   1.411749 A    
C111  O77   1.222978 D    
C94   O27   1.216673 D    
C13   N33   1.438579 S    
C56   N52   1.437085 S    
C12   C86   1.407430 A    
N46   O99   1.301135 A    
N43   O94   1.300785 A    
O72   H20   1.013885 S    
O20   H2    1.014200 S    
C49   C61   1.405036 A    
C109  O73   1.222968 D    
C44   N40   1.436986 S    
C36   C108  1.488557 S    
C10   C18   1.425903 A    
O16   Cu3   1.938409 S    
C112  O79   1.221559 D    
N1    C19   1.392323 A    
C41   N37   1.434609 S    
C28   C100  1.488838 S    
C15   C23   1.425787 A    
C4    C70   1.498308 S    
N5    N8    1.337018 A    
O3    Cu1   1.938985 S    
C25   C41   1.408627 A    
O74   H21   1.013796 S    
C7    C73   1.498308 S    
C108  O72   1.398076 S    
O80   H24   1.013860 S    
N40   O88   1.301174 A    
C108  O71   1.221830 D    
N19   C79   1.356398 A    
N34   O43   1.300558 A    
O13   C7    1.298370 A    
O3    C2    1.298518 A    
N37   O81   1.300729 A    
N29   O33   1.301288 A    
O14   C8    1.300697 A    
C98   O52   1.398074 S    
C34   C106  1.488838 S    
C67   C88   1.521005 S    
C43   C58   1.405037 A    
C40   C56   1.411812 A    
C32   C48   1.412137 A    
C90   O19   1.222271 D    
O11   Cu3   1.938985 S    
N3    C23   1.392011 A    
O22   H3    1.014016 S    
C29   C45   1.408146 A    
C20   C92   1.481902 S    
N4    C24   1.391177 A    
C24   C96   1.483255 S    
N15   C77   1.356331 A    
N36   O48   1.301122 A    
O70   H19   1.014075 S    
N47   O102  1.300779 A    
C95   O30   1.398260 S    
C26   C70   1.427148 A    
C46   N42   1.437084 S    
O12   Cu4   1.938984 S    
C9    C85   1.402570 A    
C107  O69   1.222844 D    
N16   C78   1.356629 A    
C68   C87   1.505031 S    
C44   C57   1.404632 A    
O8    Cu1   1.938409 S    
N18   N28   1.330587 A    
O2    Cu2   1.938984 S    
C102  O60   1.398135 S    
C56   C63   1.405063 A    
C10   N30   1.434520 S    
O52   H10   1.013885 S    
C96   O32   1.391019 S    
O6    Cu1   1.938405 S    
N41   O89   1.300740 A    
C55   C64   1.405177 A    
C48   N44   1.437021 S    
N29   O34   1.301160 A    
C92   O24   1.397693 S    
N49   O105  1.300733 A    
C98   O51   1.221831 D    
C65   C86   1.521005 S    
C34   C74   1.427073 A    
C37   C109  1.481080 S    
C33   C73   1.421942 A    
C91   O22   1.398276 S    
O32   H8    1.014200 S    
C11   C19   1.425617 A    
C91   O21   1.216822 D    
C30   C72   1.426708 A    
C57   C78   1.470055 S    
C100  O56   1.398079 S    
C105  O66   1.398477 S    
C101  O57   1.222981 D    
N52   O112  1.301181 A    
C111  O78   1.398407 S    
O8    C3    1.300696 A    
C59   C80   1.471129 S    
C16   N36   1.434518 S    
O56   H12   1.013888 S    
C36   C52   1.411753 A    
N39   O85   1.300725 A    
C49   N45   1.434763 S    
C23   C95   1.481298 S    
O64   H16   1.013886 S    
N38   O84   1.301181 A    
N6    C65   1.362167 A    
N14   N24   1.330528 A    
O14   Cu3   1.938405 S    
C16   C88   1.407580 A    
N41   O90   1.300792 A    
N42   O91   1.301144 A    
O9    Cu3   1.938984 S    
C2    C72   1.498486 S    
C101  O58   1.398407 S    
C45   C59   1.405179 A    
C46   C60   1.405061 A    
N45   O97   1.300725 A    
C102  O59   1.221560 D    
C51   C62   1.404946 A    
N27   C83   1.356801 A    
O12   C5    1.301305 A    
C28   C44   1.411743 A    
N11   C68   1.359853 A    
O50   H9    1.014074 S    
C25   C97   1.483785 S    
C16   C24   1.425903 A    
C109  O74   1.398396 S    
Cu3   Cu4   2.670791 S    
C11   C85   1.402342 A    
C94   O28   1.397695 S    
O60   H14   1.013860 S    
N36   O47   1.300609 A    
C106  O67   1.221948 D    
C10   C86   1.407579 A    
C37   C53   1.408287 A    
N23   C81   1.356629 A    
C34   C50   1.411746 A    
C104  O63   1.221593 D    
N1    C17   1.392008 A    
N8    C65   1.362482 A    
C27   C99   1.481778 S    
C33   C49   1.408146 A    
O66   H17   1.014019 S    
N17   N27   1.330564 A    
C40   C75   1.426706 A    
C8    C74   1.498870 S    
O18   H1    1.014012 S    
C31   C72   1.421607 A    
C53   N49   1.434800 S    
O5    Cu2   1.938409 S    
C97   O50   1.398511 S    
C105  O65   1.222968 D    
C33   C105  1.481777 S    
C15   N35   1.438594 S    
C29   C101  1.481123 S    
C53   C63   1.405289 A    
N21   C82   1.356672 A    
N51   O110  1.300794 A    
C47   C60   1.405288 A    
C5    C75   1.498488 S    
C54   C64   1.405122 A    
O13   Cu4   1.938409 S    
C64   C83   1.471129 S    
C39   C55   1.408147 A    
O4    C1    1.301216 A    
C15   C87   1.402569 A    
O15   C8    1.299407 A    
C13   C87   1.402343 A    
C104  O64   1.398229 S    
O7    C4    1.298370 A    
O16   C7    1.301360 A    
N4    C22   1.391119 A    
N46   O100  1.301172 A    
C110  O76   1.398229 S    
N47   O101  1.300730 A    
N20   C80   1.356799 A    
C63   C84   1.471076 S    
C106  O68   1.398078 S    
O7    Cu2   1.938405 S    
N44   O96   1.301183 A    
C93   O26   1.398277 S    
N6    N7    1.337048 A    
C54   N50   1.437023 S    
C11   N31   1.438578 S    
C61   C82   1.470255 S    
C38   C54   1.412137 A    
C60   C79   1.471078 S    
C27   C43   1.408144 A    
O15   Cu4   1.938405 S    
O62   H15   1.013796 S    
O68   H18   1.013889 S    
C51   N47   1.434607 S    
N30   O35   1.300609 A    
N13   N23   1.330605 A    
N48   O104  1.301181 A    
C112  O80   1.398135 S    
N14   C77   1.356672 A    
N20   N26   1.330566 A    
N9    N12   1.337048 A    
C9    N29   1.438593 S    
N39   O86   1.300783 A    
N12   C67   1.362169 A    
C100  O55   1.221949 D    
N10   N11   1.337020 A    
N50   O107  1.301144 A    
C47   N43   1.434799 S    
O10   Cu4   1.938984 S    
C29   C71   1.421684 A    
C89   O18   1.398261 S    
C27   C70   1.421943 A    
C14   N34   1.434017 S    
C30   C46   1.411811 A    
Cu4   N3    2.007099 S    
C3    C69   1.498870 S    
N38   O83   1.301144 A    
N9    C68   1.359811 A    
N32   O40   1.301180 A    
O76   H22   1.013888 S    
C18   C90   1.483252 S    
C35   C74   1.422973 A    
N52   O111  1.301143 A    
O5    C3    1.299408 A    
C42   N38   1.437092 S    
N45   O98   1.300784 A    
C25   C69   1.422976 A    
C89   O17   1.216963 D    
O11   C6    1.298616 A    
C14   C88   1.407428 A    
Cu1   N2    2.007099 S    
N34   O44   1.301180 A    
N2    C18   1.391180 A    
N15   N21   1.330530 A    
C55   N51   1.434847 S    
C31   C103  1.481080 S    
C48   C59   1.405121 A    
C90   O20   1.391020 S    
Cu3   N4    2.007099 S    
O28   H6    1.014016 S    
C41   C57   1.404950 A    
N35   O45   1.301290 A    
N49   O106  1.300787 A    
N31   O37   1.301298 A    
C95   O29   1.216963 D    
C92   O23   1.216673 D    
N24   C82   1.356330 A    
C22   C94   1.481901 S    
N16   N22   1.330606 A    
N18   C79   1.356773 A    
C12   C20   1.425108 A    
O9    C5    1.298516 A    
N3    C21   1.392321 A    
C30   C102  1.487765 S    
C13   C21   1.425615 A    
O6    C4    1.301360 A    
N28   C84   1.356395 A    
C6    C76   1.498528 S    
C42   C58   1.404820 A    
C103  O61   1.222969 D    
N50   O108  1.301183 A    
N30   O36   1.301122 A    
C58   C77   1.470257 S    
Cu1   Cu2   2.670791 S    
C32   C104  1.488456 S    
C45   N41   1.434846 S    
C52   C61   1.404821 A    
O4    Cu2   1.938984 S    
C1    C71   1.498528 S    
C103  O62   1.398396 S    
C9    C17   1.425787 A    
N35   O46   1.301157 A    
O30   H7    1.014009 S    
N40   O87   1.301134 A    
C38   C110  1.488454 S    
O58   H13   1.013812 S    
N13   C78   1.356355 A    
N33   O42   1.301164 A    
C52   N48   1.437091 S    
O1    C1    1.298616 A    
N42   O92   1.301183 A    
C97   O49   1.222847 D    
C36   C73   1.427147 A    
C107  O70   1.398512 S    
O26   H5    1.014013 S    
N22   C81   1.356358 A    
N2    C20   1.391117 A    
C19   C91   1.481780 S    
N44   O95   1.301143 A    
N48   O103  1.301145 A    
C50   C62   1.404631 A    
C38   C76   1.426983 A    
N25   C84   1.356773 A    
O54   H11   1.014020 S    
N37   O82   1.300773 A    
C93   O25   1.216822 D    
C110  O75   1.221594 D    
C12   N32   1.434017 S    
O24   H4    1.014016 S    
C39   C111  1.481125 S    
N5    C66   1.359854 A    
C43   N39   1.434763 S    
C28   C69   1.427072 A    
C39   C76   1.421682 A    
C35   C107  1.483783 S    
