data_mof_unit_pretest_722.cif
_audit_creation_date              2012-12-11T16:07:16-0500
_audit_creation_method            fapswitch 2.2
_symmetry_space_group_name_H-M    P1
_symmetry_Int_Tables_number       1
_space_group_crystal_system       triclinic
_cell_length_a                    17.373778
_cell_length_b                    17.36265
_cell_length_c                    18.099933
_cell_angle_alpha                 90.000507
_cell_angle_beta                  89.999865
_cell_angle_gamma                 89.965153
_cell_volume                      5459.93114039

loop_
_atom_site_label
_atom_site_type_symbol
_atom_type_description
_atom_site_fract_x
_atom_site_fract_y
_atom_site_fract_z
_atom_type_partial_charge
C1    C     C_R   0.403459 0.683213 0.630940 -0.072291
C2    C     C_R   0.588985 0.685928 0.628083 -0.115878
C3    C     C_3   0.775816 0.252362 0.682747 -0.286525
C4    C     C_3   0.776516 0.754065 0.325106 -0.392533
C5    C     C_3   0.251135 0.225547 0.683355 -0.285377
C6    C     C_3   0.753154 0.224218 0.324811 -0.394182
C7    C     C_3   0.224217 0.747601 0.682780 -0.286622
C8    C     C_3   0.723452 0.745947 0.825141 -0.392661
C9    C     C_3   0.248823 0.274422 0.183382 -0.285555
C10   C     C_3   0.746875 0.275743 0.824778 -0.394344
C11   C     C_3   0.275816 0.752362 0.182747 -0.286525
C12   C     C_3   0.276516 0.254065 0.825106 -0.392533
C13   C     C_R   0.685338 0.399530 0.374003 -0.080373
C14   C     C_3   0.751135 0.725547 0.183355 -0.285377
C15   C     C_3   0.253153 0.724218 0.824811 -0.394182
C16   C     C_3   0.724217 0.247601 0.182780 -0.286622
C17   C     C_2   0.745896 0.606452 0.809361 0.588348
C18   C     C_2   0.172685 0.409858 0.246834 0.497662
C19   C     C_2   0.607976 0.252368 0.808958 0.579208
C20   C     C_2   0.409890 0.829470 0.247072 0.504984
C21   C     C_2   0.254059 0.393551 0.809312 0.588609
C22   C     C_2   0.827285 0.590134 0.246844 0.497692
C23   C     C_2   0.392070 0.747571 0.808984 0.579498
C24   C     C_R   0.314228 0.588759 0.628351 -0.115056
C25   C     C_2   0.590121 0.170517 0.247070 0.504927
C26   C     C_2   0.744656 0.394299 0.198336 0.616114
C27   C     C_2   0.210471 0.580286 0.791140 0.559585
C28   C     C_2   0.604913 0.746941 0.200218 0.615209
C29   C     C_2   0.419481 0.209410 0.789527 0.561875
C30   C     C_2   0.255376 0.605647 0.198318 0.616077
C31   C     C_2   0.789524 0.419675 0.791117 0.559603
C32   C     C_2   0.395044 0.253037 0.200221 0.615172
C33   C     C_2   0.580479 0.790605 0.789582 0.561867
C34   C     C_2   0.245896 0.106452 0.309361 0.588348
C35   C     C_R   0.600681 0.685841 0.374621 -0.079272
C36   C     C_2   0.672685 0.909858 0.746834 0.497662
C37   C     C_2   0.107976 0.752368 0.308959 0.579208
C38   C     C_2   0.909891 0.329470 0.747072 0.504984
C39   C     C_2   0.754059 0.893551 0.309312 0.588609
C40   C     C_2   0.327285 0.090134 0.746844 0.497692
C41   C     C_2   0.892070 0.247571 0.308984 0.579499
C42   C     C_2   0.090121 0.670517 0.747070 0.504927
C43   C     C_2   0.244656 0.894299 0.698336 0.616114
C44   C     C_2   0.710471 0.080286 0.291140 0.559585
C45   C     C_2   0.104913 0.246941 0.700218 0.615209
C46   C     C_R   0.410991 0.314055 0.628057 -0.115898
C47   C     C_2   0.919481 0.709410 0.289527 0.561875
C48   C     C_2   0.755376 0.105647 0.698318 0.616077
C49   C     C_2   0.289524 0.919675 0.291117 0.559603
C50   C     C_2   0.895044 0.753037 0.700221 0.615172
C51   C     C_2   0.080479 0.290606 0.289582 0.561867
C52   C     C_R   0.314672 0.600459 0.373990 -0.080427
C53   C     C_R   0.685783 0.411225 0.628338 -0.115073
C54   C     C_R   0.903459 0.183213 0.130940 -0.072291
C55   C     C_R   0.084977 0.814140 0.870331 -0.111966
C56   C     C_R   0.183298 0.096450 0.130708 -0.072862
C57   C     C_R   0.584977 0.314140 0.370331 -0.111966
C58   C     C_R   0.813682 0.914405 0.870915 -0.111596
C59   C     C_R   0.096551 0.816772 0.130920 -0.072215
C60   C     C_R   0.915033 0.185848 0.870321 -0.111999
C61   C     C_R   0.816683 0.903539 0.130685 -0.072815
C62   C     C_R   0.186314 0.085593 0.870912 -0.111603
C63   C     C_R   0.899314 0.814157 0.874623 -0.079213
C64   C     C_R   0.088985 0.185928 0.128083 -0.115878
C65   C     C_R   0.185338 0.899530 0.874003 -0.080373
C66   C     C_R   0.814228 0.088759 0.128351 -0.115057
C67   C     C_R   0.100681 0.185841 0.874621 -0.079272
C68   C     C_R   0.683298 0.596450 0.630708 -0.072862
C69   C     C_R   0.910991 0.814055 0.128057 -0.115898
C70   C     C_R   0.814672 0.100459 0.873990 -0.080427
C71   C     C_R   0.185783 0.911225 0.128338 -0.115073
C72   C     C_3   0.281233 0.304773 0.293997 0.166062
C73   C     C_3   0.692880 0.713470 0.714980 0.148444
C74   C     C_3   0.306197 0.718664 0.293209 0.164974
C75   C     C_3   0.714157 0.307361 0.714905 0.146143
C76   C     C_3   0.718742 0.695222 0.293980 0.166043
C77   C     C_3   0.307073 0.286515 0.714936 0.148489
C78   C     C_3   0.693835 0.281302 0.293240 0.164969
C79   C     C_R   0.313682 0.414405 0.370915 -0.111596
C80   C     C_3   0.285868 0.692597 0.714939 0.146225
C81   C     C_3   0.781233 0.804773 0.793997 0.166062
C82   C     C_3   0.192880 0.213470 0.214980 0.148444
C83   C     C_3   0.806197 0.218664 0.793209 0.164974
C84   C     C_3   0.214157 0.807361 0.214905 0.146143
C85   C     C_3   0.218742 0.195222 0.793980 0.166043
C86   C     C_3   0.807073 0.786515 0.214936 0.148489
C87   C     C_3   0.193835 0.781302 0.793240 0.164969
C88   C     C_3   0.785868 0.192597 0.214940 0.146225
C89   C     C_R   0.337243 0.653084 0.664925 0.104438
C90   C     C_R   0.596551 0.316772 0.630920 -0.072214
C91   C     C_R   0.653614 0.333944 0.339966 0.116194
C92   C     C_R   0.653409 0.662810 0.664482 0.103525
C93   C     C_R   0.333373 0.345363 0.340920 0.113142
C94   C     C_R   0.662775 0.346889 0.664901 0.104313
C95   C     C_R   0.346406 0.666033 0.339947 0.116267
C96   C     C_R   0.346555 0.337166 0.664441 0.103427
C97   C     C_R   0.666617 0.654633 0.340914 0.113131
C98   C     C_R   0.837243 0.153084 0.164925 0.104438
C99   C     C_R   0.153614 0.833944 0.839966 0.116194
C100  C     C_R   0.153409 0.162810 0.164482 0.103525
C101  C     C_R   0.415033 0.685848 0.370321 -0.111999
C102  C     C_R   0.833373 0.845364 0.840920 0.113142
C103  C     C_R   0.162775 0.846889 0.164901 0.104313
C104  C     C_R   0.846406 0.166033 0.839947 0.116267
C105  C     C_R   0.846555 0.837166 0.164441 0.103427
C106  C     C_R   0.166617 0.154633 0.840914 0.113131
C107  C     C_3   0.751547 0.684156 0.769937 -0.029579
C108  C     C_3   0.220501 0.335543 0.241147 -0.070850
C109  C     C_3   0.685487 0.247738 0.769227 -0.025721
C110  C     C_3   0.336628 0.780231 0.241049 -0.067598
C111  C     C_3   0.248408 0.315839 0.769892 -0.029791
C112  C     C_R   0.316683 0.403539 0.630684 -0.072815
C113  C     C_3   0.779470 0.664449 0.241131 -0.070833
C114  C     C_3   0.314547 0.752217 0.769259 -0.025995
C115  C     C_3   0.663401 0.219737 0.241078 -0.067743
C116  C     C_3   0.752255 0.311843 0.237037 -0.171513
C117  C     C_3   0.226922 0.663424 0.770424 -0.102683
C118  C     C_3   0.687838 0.754121 0.238280 -0.169759
C119  C     C_3   0.336442 0.227350 0.770113 -0.104275
C120  C     C_3   0.247782 0.688116 0.237006 -0.171555
C121  C     C_3   0.773097 0.336537 0.770392 -0.102858
C122  C     C_3   0.312125 0.245855 0.238305 -0.169611
C123  C     C_R   0.686314 0.585593 0.370912 -0.111603
C124  C     C_3   0.663519 0.772656 0.770146 -0.104165
C125  C     C_3   0.251547 0.184155 0.269937 -0.029579
C126  C     C_3   0.720502 0.835543 0.741147 -0.070850
C127  C     C_3   0.185487 0.747738 0.269227 -0.025721
C128  C     C_3   0.836628 0.280230 0.741049 -0.067598
C129  C     C_3   0.748408 0.815839 0.269892 -0.029791
C130  C     C_3   0.279470 0.164449 0.741131 -0.070833
C131  C     C_3   0.814547 0.252217 0.269259 -0.025995
C132  C     C_3   0.163401 0.719737 0.741078 -0.067743
C133  C     C_3   0.252254 0.811843 0.737038 -0.171513
C134  C     C_R   0.399314 0.314157 0.374623 -0.079213
C135  C     C_3   0.726922 0.163424 0.270424 -0.102683
C136  C     C_3   0.187838 0.254121 0.738280 -0.169760
C137  C     C_3   0.836442 0.727350 0.270113 -0.104275
C138  C     C_3   0.747782 0.188116 0.737006 -0.171555
C139  C     C_3   0.273097 0.836537 0.270392 -0.102858
C140  C     C_3   0.812125 0.745855 0.738305 -0.169611
C141  C     C_3   0.163519 0.272656 0.270146 -0.104165
C142  C     C_3   0.223452 0.245947 0.325141 -0.392661
C143  C     C_3   0.748823 0.774422 0.683382 -0.285555
C144  C     C_3   0.246875 0.775744 0.324778 -0.394344
H1    H     H_    0.428682 0.739405 0.639988 0.145465
H2    H     H_    0.558922 0.739924 0.631723 0.157149
H3    H     H_    0.743649 0.420764 0.369056 0.112909
H4    H     H_    0.260150 0.558844 0.632051 0.154086
H5    H     H_    0.579152 0.744089 0.369803 0.114186
H6    H     H_    0.441051 0.260056 0.631688 0.157200
H7    H     H_    0.256361 0.579226 0.369035 0.112930
H8    H     H_    0.739863 0.441137 0.632038 0.154082
H9    H     H_    0.928682 0.239405 0.139988 0.145465
H10   H     H_    0.047995 0.765061 0.859275 0.150670
H11   H     H_    0.239173 0.070747 0.140072 0.143347
H12   H     H_    0.547995 0.265062 0.359275 0.150670
H13   H     H_    0.764569 0.951417 0.859978 0.147632
H14   H     H_    0.071330 0.760576 0.139949 0.145518
H15   H     H_    0.952018 0.234924 0.859259 0.150660
H16   H     H_    0.760810 0.929248 0.140047 0.143275
H17   H     H_    0.235425 0.048579 0.859977 0.147610
H18   H     H_    0.920844 0.755909 0.869805 0.114218
H19   H     H_    0.058922 0.239924 0.131723 0.157149
H20   H     H_    0.243649 0.920764 0.869056 0.112909
H21   H     H_    0.760150 0.058844 0.132051 0.154086
H22   H     H_    0.079152 0.244089 0.869803 0.114186
H23   H     H_    0.739173 0.570747 0.640072 0.143347
H24   H     H_    0.941052 0.760056 0.131688 0.157200
H25   H     H_    0.756361 0.079226 0.869035 0.112930
H26   H     H_    0.239863 0.941137 0.132038 0.154082
H27   H     H_    0.211895 0.237853 0.384655 0.131227
H28   H     H_    0.758238 0.785676 0.623811 0.128223
H29   H     H_    0.238677 0.786689 0.384437 0.130849
H30   H     H_    0.787252 0.243601 0.623075 0.127963
H31   H     H_    0.788079 0.762174 0.384617 0.131217
H32   H     H_    0.241714 0.214279 0.623788 0.128219
H33   H     H_    0.761354 0.213275 0.384468 0.130844
H34   H     H_    0.264569 0.451417 0.359978 0.147632
H35   H     H_    0.212784 0.756360 0.623109 0.127959
H36   H     H_    0.711895 0.737853 0.884655 0.131227
H37   H     H_    0.258238 0.285676 0.123811 0.128223
H38   H     H_    0.738677 0.286689 0.884437 0.130849
H39   H     H_    0.287252 0.743601 0.123075 0.127963
H40   H     H_    0.288079 0.262174 0.884617 0.131217
H41   H     H_    0.741714 0.714279 0.123788 0.128219
H42   H     H_    0.261354 0.713275 0.884468 0.130844
H43   H     H_    0.712784 0.256360 0.123109 0.127959
H44   H     H_    0.759256 0.602932 0.869517 -0.023470
H45   H     H_    0.571330 0.260576 0.639949 0.145518
H46   H     H_    0.176505 0.388441 0.191479 0.084346
H47   H     H_    0.604825 0.240217 0.869408 -0.021757
H48   H     H_    0.390299 0.825163 0.191027 0.079418
H49   H     H_    0.240617 0.397071 0.869457 -0.023543
H50   H     H_    0.823529 0.611551 0.191486 0.084418
H51   H     H_    0.395223 0.759795 0.869422 -0.021837
H52   H     H_    0.609709 0.174869 0.191024 0.079422
H53   H     H_    0.789964 0.374097 0.233213 0.050371
H54   H     H_    0.213114 0.562875 0.848904 0.013547
H55   H     H_    0.626341 0.792452 0.234406 0.049226
H56   H     H_    0.452018 0.734924 0.359259 0.150660
H57   H     H_    0.437700 0.210680 0.847134 0.013610
H58   H     H_    0.210070 0.625859 0.233194 0.050402
H59   H     H_    0.786830 0.437088 0.848873 0.013654
H60   H     H_    0.373591 0.207505 0.234370 0.049130
H61   H     H_    0.562291 0.789373 0.847201 0.013491
H62   H     H_    0.259256 0.102932 0.369517 -0.023470
H63   H     H_    0.676505 0.888441 0.691479 0.084346
H64   H     H_    0.104825 0.740217 0.369408 -0.021757
H65   H     H_    0.890299 0.325163 0.691027 0.079418
H66   H     H_    0.740617 0.897071 0.369457 -0.023543
H67   H     H_    0.260810 0.429248 0.640047 0.143275
H68   H     H_    0.323529 0.111551 0.691486 0.084418
H69   H     H_    0.895223 0.259795 0.369422 -0.021837
H70   H     H_    0.109709 0.674869 0.691024 0.079422
H71   H     H_    0.289965 0.874097 0.733213 0.050371
H72   H     H_    0.713114 0.062875 0.348903 0.013547
H73   H     H_    0.126341 0.292452 0.734406 0.049226
H74   H     H_    0.937700 0.710680 0.347134 0.013610
H75   H     H_    0.710070 0.125859 0.733194 0.050402
H76   H     H_    0.286830 0.937088 0.348874 0.013654
H77   H     H_    0.873591 0.707505 0.734370 0.049130
H78   H     H_    0.735425 0.548579 0.359976 0.147610
H79   H     H_    0.062291 0.289373 0.347201 0.013491
H80   H     H_    0.420844 0.255909 0.369805 0.114218
N1    N     N_R   0.424590 0.632770 0.578330 -0.056432
N2    N     N_R   0.575410 0.632770 0.578330 -0.054858
N3    N     N_R   0.632770 0.424590 0.421670 -0.050301
N4    N     N_R   0.367230 0.575410 0.578330 -0.054938
N5    N     N_R   0.575410 0.632770 0.421670 -0.050023
N6    N     N_R   0.424590 0.367230 0.578330 -0.054848
N7    N     N_R   0.367230 0.575410 0.421670 -0.050303
N8    N     N_R   0.632770 0.424590 0.578330 -0.054927
N9    N     N_R   0.924590 0.132770 0.078330 -0.056432
N10   N     N_R   0.075410 0.867230 0.921670 -0.052437
N11   N     N_R   0.132770 0.075410 0.078330 -0.055923
N12   N     N_R   0.575410 0.367230 0.421670 -0.052437
N13   N     N_R   0.867230 0.924590 0.921670 -0.051754
N14   N     N_R   0.075410 0.867230 0.078330 -0.056439
N15   N     N_R   0.924590 0.132770 0.921670 -0.052436
N16   N     N_R   0.867230 0.924590 0.078330 -0.055904
N17   N     N_R   0.132770 0.075410 0.921670 -0.051749
N18   N     N_R   0.924590 0.867230 0.921670 -0.050037
N19   N     N_R   0.075410 0.132770 0.078330 -0.054858
N20   N     N_R   0.132770 0.924590 0.921670 -0.050301
N21   N     N_R   0.867230 0.075410 0.078330 -0.054938
N22   N     N_R   0.075410 0.132770 0.921670 -0.050023
N23   N     N_R   0.632770 0.575410 0.578330 -0.055923
N24   N     N_R   0.924590 0.867230 0.078330 -0.054848
N25   N     N_R   0.867230 0.075410 0.921670 -0.050303
N26   N     N_R   0.132770 0.924590 0.078330 -0.054927
N27   N     N_R   0.367230 0.424590 0.421670 -0.051754
N28   N     N_R   0.575410 0.367230 0.578330 -0.056439
N29   N     N_R   0.424590 0.632770 0.421670 -0.052436
N30   N     N_R   0.367230 0.424590 0.578330 -0.055904
N31   N     N_R   0.632770 0.575410 0.421670 -0.051749
N32   N     N_R   0.424590 0.367230 0.421670 -0.050037
Ni1   Ni    Ni4+2 0.500000 0.631570 0.500000 0.220409
Ni2   Ni    Ni4+2 0.500000 0.368430 0.500000 0.220408
Ni3   Ni    Ni4+2 0.631570 0.500000 0.500000 0.219749
Ni4   Ni    Ni4+2 0.368430 0.500000 0.500000 0.219752
Ni5   Ni    Ni4+2 0.000000 0.131570 0.000000 0.220409
Ni6   Ni    Ni4+2 0.000000 0.868430 0.000000 0.220408
Ni7   Ni    Ni4+2 0.131570 0.000000 0.000000 0.219749
Ni8   Ni    Ni4+2 0.868430 0.000000 0.000000 0.219752
O1    O     O_2   0.712879 0.552940 0.779843 -0.575349
O2    O     O_2   0.187884 0.534886 0.743885 -0.606240
O3    O     O_2   0.553319 0.700459 0.213658 -0.525877
O4    O     O_2   0.463762 0.186815 0.741305 -0.604234
O5    O     O_2   0.302106 0.554091 0.211152 -0.522883
O6    O     O_2   0.812149 0.465074 0.743880 -0.606137
O7    O     O_2   0.446649 0.299499 0.213685 -0.525863
O8    O     O_2   0.536162 0.813153 0.741371 -0.604343
O9    O     O_2   0.212879 0.052940 0.279843 -0.575349
O10   O     O_2   0.685539 0.978791 0.753898 -0.607905
O11   O     O_2   0.053678 0.783345 0.278909 -0.575976
O12   O     O_2   0.185538 0.478791 0.253898 -0.607905
O13   O     O_2   0.978875 0.317945 0.756340 -0.609799
O14   O     O_2   0.787177 0.947034 0.279849 -0.575307
O15   O     O_2   0.314433 0.021204 0.753876 -0.607855
O16   O     O_2   0.946347 0.216499 0.278980 -0.575935
O17   O     O_2   0.021138 0.682050 0.756352 -0.609679
O18   O     O_2   0.197932 0.945860 0.711164 -0.522848
O19   O     O_2   0.687884 0.034886 0.243886 -0.606240
O20   O     O_2   0.053319 0.200459 0.713658 -0.525877
O21   O     O_2   0.963762 0.686815 0.241305 -0.604234
O22   O     O_2   0.802106 0.054091 0.711152 -0.522883
O23   O     O_2   0.553678 0.283345 0.778910 -0.575976
O24   O     O_2   0.312149 0.965074 0.243880 -0.606137
O25   O     O_2   0.946649 0.799499 0.713685 -0.525863
O26   O     O_2   0.036162 0.313153 0.241371 -0.604343
O27   O     O_2   0.478875 0.817945 0.256340 -0.609799
O28   O     O_2   0.287177 0.447034 0.779849 -0.575307
O29   O     O_2   0.814433 0.521204 0.253876 -0.607855
O30   O     O_2   0.446347 0.716499 0.778980 -0.575935
O31   O     O_2   0.521138 0.182050 0.256352 -0.609679
O32   O     O_2   0.697932 0.445860 0.211164 -0.522848

loop_
_geom_bond_atom_site_label_1
_geom_bond_atom_site_label_2
_ccdc_geom_bond_type
C55   H10   S    
C81   C126  S    
N15   N25   A    
C78   C115  S    
C83   C128  S    
C101  H56   S    
N28   Ni2   S    
N2    N23   A    
C9    C108  S    
C72   C142  S    
C29   C119  S    
N13   N18   A    
C7    C133  S    
C17   C107  S    
C67   N22   A    
C50   C140  S    
C126  C143  S    
C119  C130  S    
C107  C140  S    
C43   C133  S    
C26   H53   S    
C74   C144  S    
C22   C113  S    
C51   H79   S    
C53   H8    S    
C56   N11   A    
N8    N28   A    
C61   C105  A    
C44   C135  S    
C19   C109  S    
C13   C91   A    
N13   Ni8   S    
C30   O5    D    
C82   C141  S    
N2    Ni1   S    
C36   O10   D    
N5    N31   A    
N24   Ni6   S    
C27   C117  S    
C30   H58   S    
C65   N20   A    
C16   C88   S    
C8    C81   S    
C31   C121  S    
C121  C128  S    
C41   C131  S    
C69   C105  A    
C44   O19   D    
C76   C118  S    
C101  N29   A    
C82   C125  S    
C13   N3    A    
N27   Ni4   S    
C41   H69   S    
C8    H36   S    
C71   H26   S    
N20   Ni7   S    
C70   N25   A    
N11   N19   A    
C7    C132  S    
N22   Ni5   S    
C5    C130  S    
C134  H80   S    
C6    H33   S    
C47   O21   D    
C10   H38   S    
C37   H64   S    
C113  C137  S    
C5    C77   S    
C16   C115  S    
C2    N2    A    
N9    Ni5   S    
C80   C117  S    
C18   H46   S    
C44   H72   S    
C36   C126  S    
C88   C135  S    
C74   C110  S    
C38   C128  S    
C62   C106  A    
C11   C84   S    
C74   C120  S    
N12   Ni2   S    
C48   C138  S    
C69   H24   S    
C118  C129  S    
C28   C118  S    
N9    N21   A    
N27   N32   A    
C30   C120  S    
C52   H7    S    
C68   C92   A    
C18   C108  S    
C46   C96   A    
N17   Ni7   S    
C41   O16   D    
C29   O4    D    
C32   O7    D    
C22   O29   D    
C83   C138  S    
C19   H47   S    
C48   H75   S    
C81   C140  S    
C1    H1    S    
C140  C143  S    
N1    N4    A    
C120  C127  S    
C64   N19   A    
C33   H61   S    
C70   H25   S    
C143  H28   S    
C34   C125  S    
C59   H14   S    
C111  C136  S    
C6    C78   S    
C62   H17   S    
C17   H44   S    
C10   C109  S    
C117  C132  S    
C3    H30   S    
C4    C137  S    
C72   C108  S    
C40   O15   D    
C4    H31   S    
N32   Ni2   S    
C23   O30   D    
C3    C75   S    
C25   O31   D    
C11   C110  S    
C26   O32   D    
N16   Ni8   S    
C63   C102  A    
C11   C120  S    
C18   O12   D    
C51   C141  S    
C57   H12   S    
C79   H34   S    
C28   H55   S    
C112  H67   S    
C14   C86   S    
C61   H16   S    
C14   H41   S    
C3    C128  S    
C39   C129  S    
C109  C138  S    
C6    C135  S    
C12   C119  S    
C38   O13   D    
C112  N30   A    
C31   O6    D    
C76   C113  S    
N18   Ni6   S    
C21   O28   D    
C50   O25   D    
C25   H52   S    
C20   C110  S    
C49   C139  S    
C13   H3    S    
C55   N10   A    
C85   C106  S    
C8    C107  S    
C42   O17   D    
C62   N17   A    
C124  C126  S    
C71   C103  A    
N11   Ni7   S    
C66   H21   S    
C53   C94   A    
C78   C116  S    
C73   C92   S    
C58   H13   S    
N10   N20   A    
N4    Ni4   S    
C52   N7    A    
C77   C96   S    
C59   C103  A    
C66   C98   A    
C122  C125  S    
C97   C123  A    
C39   O14   D    
C115  C135  S    
C9    H37   S    
C53   N8    A    
N29   Ni1   S    
N10   Ni6   S    
C55   C99   A    
N15   Ni5   S    
N19   Ni5   S    
C88   C131  S    
C21   H49   S    
C60   C104  A    
C88   C98   S    
C95   C101  A    
C142  H27   S    
C49   O24   D    
C60   H15   S    
N3    N12   A    
C27   H54   S    
C28   O3    D    
C110  C139  S    
C70   C104  A    
C73   C107  S    
C10   C83   S    
C52   C95   A    
C80   C89   S    
C77   C111  S    
C86   C137  S    
C48   O22   D    
C84   C139  S    
C33   C124  S    
C58   C102  A    
C58   N13   A    
C123  N31   A    
C9    C82   S    
C45   O20   D    
C46   N6    A    
C64   H19   S    
C16   C116  S    
C108  C141  S    
C21   C111  S    
C90   C94   A    
C47   H74   S    
C29   H57   S    
N17   N22   A    
C32   C122  S    
C59   N14   A    
C8    C124  S    
C76   C97   S    
C63   N18   A    
C15   C117  S    
C39   H66   S    
C32   H60   S    
C85   C130  S    
N30   Ni4   S    
C9    C122  S    
C60   N15   A    
C65   C99   A    
C72   C93   S    
C33   O8    D    
N14   Ni6   S    
C57   N12   A    
C73   C143  S    
C1    N1    A    
C40   C130  S    
C57   C91   A    
C61   N16   A    
C79   N27   A    
C6    C131  S    
N6    N30   A    
C16   H43   S    
C20   H48   S    
C67   C106  A    
C4    C129  S    
C14   C113  S    
N7    Ni4   S    
C40   H68   S    
C134  N32   A    
C23   C114  S    
C12   H40   S    
C127  C144  S    
N25   Ni8   S    
C34   O9    D    
N7    N29   A    
N26   Ni7   S    
C27   O2    D    
C64   C100  A    
N16   N24   A    
C42   C132  S    
C35   H5    S    
C75   C94   S    
C7    C80   S    
C66   N21   A    
N5    Ni1   S    
C63   H18   S    
C50   H77   S    
C45   H73   S    
C87   C133  S    
C10   C121  S    
C43   H71   S    
C24   C89   A    
C54   H9    S    
C34   H62   S    
C96   C112  A    
C12   C85   S    
C79   C93   A    
C25   C115  S    
C17   O1    D    
N6    Ni2   S    
C14   C118  S    
C144  H29   S    
C71   N26   A    
C31   H59   S    
N3    Ni3   S    
C84   C127  S    
C56   H11   S    
C5    C136  S    
C87   C99   S    
C81   C102  S    
C68   N23   A    
C123  H78   S    
N31   Ni3   S    
C75   C109  S    
C83   C104  S    
C49   H76   S    
C11   H39   S    
C51   O26   D    
C93   C134  A    
C24   H4    S    
C3    C138  S    
C85   C136  S    
C90   N28   A    
N8    Ni3   S    
C35   N5    A    
C36   H63   S    
C87   C132  S    
C42   H70   S    
C43   O18   D    
C139  C144  S    
C69   N24   A    
C125  C142  S    
C73   C124  S    
C19   O23   D    
C47   C137  S    
C15   C114  S    
C7    H35   S    
C2    C92   A    
C67   H22   S    
C46   H6    S    
C80   C114  S    
C86   C105  S    
C56   C100  A    
C23   H51   S    
C15   C87   S    
C45   C136  S    
C1    C89   A    
C72   C122  S    
C75   C121  S    
C20   O27   D    
C82   C100  S    
C74   C95   S    
C22   H50   S    
C77   C119  S    
N23   Ni3   S    
C86   C129  S    
C78   C91   S    
C2    H2    S    
C15   H42   S    
N1    Ni1   S    
C24   N4    A    
C141  C142  S    
C37   O11   D    
C116  C131  S    
C65   H20   S    
C5    H32   S    
C114  C133  S    
C38   H65   S    
C26   C116  S    
C4    C76   S    
C68   H23   S    
C84   C103  S    
C54   C98   A    
C54   N9    A    
C35   C97   A    
N21   Ni8   S    
C12   C111  S    
N14   N26   A    
C37   C127  S    
C90   H45   S    
