data_mof_unit_pretest_708.cif
_audit_creation_date              2012-12-10T17:33:51-0500
_audit_creation_method            fapswitch 2.2
_symmetry_space_group_name_H-M    P1
_symmetry_Int_Tables_number       1
_space_group_crystal_system       triclinic
_cell_length_a                    10.776086
_cell_length_b                    12.156836
_cell_length_c                    12.817246
_cell_angle_alpha                 95.402063
_cell_angle_beta                  91.974549
_cell_angle_gamma                 87.010026
_cell_volume                      1668.62857681

loop_
_atom_site_label
_atom_site_type_symbol
_atom_type_description
_atom_site_fract_x
_atom_site_fract_y
_atom_site_fract_z
_atom_type_partial_charge
C1    C     C_R   0.485621 0.523632 0.699646 0.917223
C2    C     C_3   0.123984 0.493513 0.497286 -0.055712
C3    C     C_3   0.070812 0.521162 0.385998 -0.266257
C4    C     C_3   0.072948 0.581087 0.584499 -0.566738
C5    C     C_R   0.494658 0.460331 0.186240 -0.028611
C6    C     C_R   0.457436 0.542149 0.810984 -0.113543
C7    C     C_R   0.498050 0.647270 0.976342 0.036741
C8    C     C_R   0.476426 0.644597 0.868504 -0.145397
C9    C     C_R   0.416360 0.453930 0.862021 0.022637
C10   C     C_R   0.434284 0.455477 0.971862 0.067058
C11   C     C_R   0.490700 0.549105 0.025868 0.082482
C12   C     C_R   0.742327 0.499987 0.497019 0.956510
C13   C     C_R   0.533826 0.543710 0.129496 0.131651
C14   C     C_R   0.430086 0.372861 0.137028 -0.276186
C15   C     C_R   0.402985 0.367062 0.029814 0.118325
C16   C     C_R   0.403787 0.945472 0.382235 -0.103797
C17   C     C_R   0.409743 0.831333 0.397472 -0.013993
C18   C     C_R   0.528863 0.864933 0.555979 0.303243
C19   C     C_R   0.513369 0.981562 0.549661 0.008880
C20   C     C_R   0.462338 0.021603 0.456890 0.011663
C21   C     C_R   0.471229 0.136333 0.442782 0.242047
C22   C     C_R   0.569403 0.168952 0.611202 0.046512
C23   C     C_R   0.502422 0.476475 0.299396 0.930415
C24   C     C_R   0.553540 0.058975 0.631529 -0.148954
C25   C     C_R   0.259091 0.498671 0.501135 0.849285
C26   C     C_3   0.939531 0.387512 0.536878 -0.158240
C27   C     C_3   0.081941 0.379262 0.526611 -0.249095
C28   C     C_3   0.926448 0.504979 0.375619 0.011340
C29   C     C_3   0.931213 0.603636 0.566152 0.072275
C30   C     C_3   0.880462 0.499176 0.492347 0.004517
H1    H     H_    0.123662 0.658999 0.589946 0.203616
H2    H     H_    0.084819 0.610869 0.383888 0.176771
H3    H     H_    0.397919 0.309566 0.182025 0.152591
H4    H     H_    0.922817 0.396251 0.622196 0.194108
H5    H     H_    0.122262 0.366583 0.606341 0.184100
H6    H     H_    0.092381 0.550234 0.662833 0.190013
N1    N     N_R   0.523380 0.207800 0.519350 -0.123003
N2    N     N_R   0.476620 0.792180 0.480650 -0.153023
O1    O     O_R   0.506240 0.421700 0.658830 -0.592894
O2    O     O_R   0.491240 0.609310 0.646410 -0.615380
O3    O     O_R   0.692710 0.406190 0.506230 -0.527241
O4    O     O_R   0.677700 0.593810 0.493810 -0.608385
O5    O     O_R   0.508760 0.390690 0.353590 -0.647998
O6    O     O_R   0.493760 0.578300 0.341170 -0.624497
O7    O     O_R   0.322300 0.406190 0.506190 -0.626261
O8    O     O_R   0.307290 0.593810 0.493770 -0.650865
Zn1   Zn    Zn3+2 0.510020 0.374730 0.508290 1.005401
Zn2   Zn    Zn3+2 0.489980 0.625270 0.491710 0.981418
N3    N     N_3   0.881666 0.283045 0.498011 -0.348455
H7    H     H_    0.902378 0.254969 0.421165 0.191587
H8    H     H_    0.913570 0.220880 0.544946 0.229429
N4    N     N_3   0.868827 0.601522 0.328022 -0.430053
H9    H     H_    0.899300 0.602722 0.251489 0.227116
H10   H     H_    0.772708 0.596546 0.323238 0.246253
N5    N     N_3   0.626122 0.615818 0.176126 -0.455565
H11   H     H_    0.694679 0.624888 0.122199 0.189124
H12   H     H_    0.585468 0.692487 0.203316 0.259574
N6    N     N_3   0.517714 0.750912 0.036891 -0.447178
H13   H     H_    0.597851 0.784137 0.011751 0.160251
H14   H     H_    0.441361 0.805669 0.025674 0.226646
N7    N     N_3   0.339800 0.273101 0.983091 -0.470177
H15   H     H_    0.394562 0.201789 0.995957 0.206555
H16   H     H_    0.255971 0.269412 0.021088 0.213627
C31   C     C_2   0.467585 0.750310 0.819999 0.496783
H17   H     H_    0.537266 0.810589 0.839263 0.084278
O9    O     O_2   0.378554 0.773032 0.763021 -0.502736
N8    N     N_3   0.355264 0.366776 0.799992 -0.426727
H18   H     H_    0.264263 0.363418 0.824759 0.215741
H19   H     H_    0.404949 0.291456 0.805709 0.218772
N9    N     N_3   0.433442 0.175992 0.344970 -0.450945
H20   H     H_    0.512657 0.197542 0.308535 0.201876
H21   H     H_    0.370218 0.243302 0.358498 0.234648
C32   C     C_2   0.637273 0.239831 0.691934 0.464187
H22   H     H_    0.616617 0.240107 0.774173 0.019572
O10   O     O_2   0.721836 0.294395 0.668825 -0.573310
C33   C     C_2   0.324856 0.983089 0.293903 0.473183
H23   H     H_    0.349323 0.957234 0.213595 0.093478
O11   O     O_2   0.229998 0.040390 0.310871 -0.543662
C34   C     C_2   0.565314 0.030754 0.741613 0.352612
H24   H     H_    0.652048 0.041307 0.786125 0.044229
O12   O     O_2   0.475212 0.000687 0.784308 -0.532341
C35   C     C_2   0.335493 0.755315 0.326506 0.477744
H25   H     H_    0.268510 0.705484 0.357475 0.096077
O13   O     O_2   0.346768 0.749424 0.231697 -0.602735
N10   N     N_3   0.605493 0.823629 0.638855 -0.423001
H26   H     H_    0.630274 0.741021 0.620383 0.269803
H27   H     H_    0.689880 0.862583 0.641928 0.179008
C36   C     C_2   0.129343 0.279041 0.456513 0.460037
H28   H     H_    0.111339 0.272122 0.372857 0.047010
O14   O     O_2   0.186710 0.202775 0.495057 -0.521937
C37   C     C_2   0.892390 0.403079 0.303256 0.385313
H29   H     H_    0.962445 0.345598 0.268184 0.083683
O15   O     O_2   0.783673 0.384419 0.282289 -0.594373
C38   C     C_2   0.145229 0.469698 0.293530 0.312517
H30   H     H_    0.217232 0.405581 0.303096 0.052170
O16   O     O_2   0.125798 0.501435 0.206596 -0.551274
C39   C     C_2   0.915594 0.714600 0.517431 0.478719
H31   H     H_    0.995430 0.755006 0.492236 0.062593
O17   O     O_2   0.814077 0.760558 0.503880 -0.588784
N11   N     N_3   0.868311 0.618426 0.667429 -0.464680
H32   H     H_    0.902572 0.687079 0.712749 0.192025
H33   H     H_    0.887401 0.551152 0.711234 0.176958

loop_
_geom_bond_atom_site_label_1
_geom_bond_atom_site_label_2
_ccdc_geom_bond_type
N5    H11   S    
C4    H6    S    
C11   C13   A    
C32   H22   S    
C19   C20   A    
C6    C9    A    
C39   H31   S    
C7    C8    A    
N10   H26   S    
C7    C11   A    
C26   C27   S    
C12   O3    A    
C3    C28   S    
C33   O11   D    
C17   C35   S    
C10   C15   A    
N6    H14   S    
C23   O5    A    
C18   C19   A    
N7    H16   S    
C12   O4    A    
C1    O2    A    
C26   H4    S    
C16   C17   A    
N3    H8    S    
C2    C27   S    
N1    Zn1   S    
C9    C10   A    
C7    N6    S    
N2    Zn2   S    
C4    C29   S    
N7    H15   S    
N10   H27   S    
C32   O10   D    
C27   C36   S    
C14   H3    S    
C39   O17   D    
N4    H10   S    
O7    Zn1   S    
O3    Zn1   S    
O8    Zn2   S    
C18   N10   S    
N8    H18   S    
C33   H23   S    
C26   N3    S    
C37   H29   S    
C34   O12   D    
C6    C8    A    
C27   H5    S    
N6    H13   S    
C22   N1    A    
C35   H25   S    
C23   O6    A    
C1    C6    S    
N8    H19   S    
C31   O9    D    
C2    C4    S    
C9    N8    S    
C29   C30   S    
C37   O15   D    
C24   C34   S    
C5    C23   S    
C16   C20   A    
N11   H33   S    
C15   N7    S    
C38   H30   S    
O4    Zn2   S    
C20   C21   A    
C38   O16   D    
C5    C14   A    
N9    H20   S    
C8    C31   S    
C36   O14   D    
C26   C30   S    
C35   O13   D    
N5    H12   S    
C22   C24   A    
C25   O7    A    
N4    H9    S    
O1    Zn1   S    
O2    Zn2   S    
C29   N11   S    
C12   C30   S    
C16   C33   S    
C5    C13   A    
C3    C38   S    
C29   C39   S    
C21   N9    S    
C31   H17   S    
C28   C30   S    
C2    C3    S    
C18   N2    A    
C28   N4    S    
C2    C25   S    
N11   H32   S    
C19   C24   A    
C28   C37   S    
C17   N2    A    
C3    H2    S    
C4    H1    S    
C10   C11   A    
C1    O1    A    
C34   H24   S    
C21   N1    A    
C36   H28   S    
N3    H7    S    
C14   C15   A    
N9    H21   S    
C22   C32   S    
O5    Zn1   S    
C25   O8    A    
O6    Zn2   S    
C13   N5    S    
