data_mof_unit_pretest_104.cif
_audit_creation_date              2012-12-10T17:21:40-0500
_audit_creation_method            fapswitch 2.2
_symmetry_space_group_name_H-M    P1
_symmetry_Int_Tables_number       1
_space_group_crystal_system       triclinic
_cell_length_a                    10.847754
_cell_length_b                    10.814253
_cell_length_c                    9.644744
_cell_angle_alpha                 88.751645
_cell_angle_beta                  88.363109
_cell_angle_gamma                 96.725332
_cell_volume                      1122.82445652

loop_
_atom_site_label
_atom_site_type_symbol
_atom_type_description
_atom_site_fract_x
_atom_site_fract_y
_atom_site_fract_z
_atom_type_partial_charge
C1    C     C_R   0.503924 0.262469 0.501637 0.878989
C2    C     C_3   0.876765 0.488025 0.495897 -0.048918
C3    C     C_3   0.945400 0.615854 0.446131 -0.322736
C4    C     C_3   0.918534 0.380161 0.400301 -0.096885
C5    C     C_R   0.561475 0.114134 0.755026 -0.117937
C6    C     C_R   0.545361 0.049659 0.882203 -0.092392
C7    C     C_R   0.481235 0.930730 0.889314 -0.123113
C8    C     C_R   0.446024 0.871198 0.767678 -0.153385
C9    C     C_R   0.474765 0.930502 0.636156 0.086786
C10   C     C_R   0.513905 0.059289 0.632179 0.101713
C11   C     C_R   0.502287 0.126953 0.506097 -0.078945
C12   C     C_R   0.259341 0.492669 0.502175 0.805945
C13   C     C_R   0.469925 0.062732 0.384906 -0.149828
C14   C     C_R   0.454436 0.934064 0.385639 -0.161852
C15   C     C_R   0.465780 0.866801 0.508410 -0.145850
C16   C     C_R   0.698082 0.653624 0.125014 -0.076223
C17   C     C_R   0.806110 0.689256 0.039623 -0.006926
C18   C     C_R   0.793075 0.695226 0.897893 -0.262364
C19   C     C_R   0.681644 0.652871 0.841098 -0.155014
C20   C     C_R   0.588860 0.577971 0.918782 0.175929
C21   C     C_R   0.592849 0.577423 0.068030 0.103751
C22   C     C_R   0.419516 0.422184 0.081171 -0.070763
C23   C     C_R   0.484953 0.734839 0.501137 0.810559
C24   C     C_R   0.423661 0.415510 0.934763 0.034328
C25   C     C_R   0.739311 0.495450 0.498289 0.839493
C26   C     C_3   0.056675 0.451636 0.655903 -0.104026
C27   C     C_3   0.917404 0.469732 0.648059 -0.437682
C28   C     C_3   0.087237 0.616345 0.453178 -0.389050
C29   C     C_3   0.064561 0.393678 0.395120 -0.418508
C30   C     C_3   0.120176 0.487016 0.505475 -0.015958
Cu1   Cu    Cu3+1 0.499990 0.499990 0.640660 0.977962
Cu2   Cu    Cu3+1 0.500010 0.500010 0.359340 0.985142
H1    H     H_    0.129119 0.639039 0.347534 0.190556
H2    H     H_    0.613336 0.205548 0.755289 0.186372
H3    H     H_    0.392920 0.780336 0.778763 0.186475
H4    H     H_    0.433056 0.887044 0.289942 0.192916
H5    H     H_    0.916136 0.691759 0.511165 0.196213
H6    H     H_    0.101846 0.303022 0.400652 0.231459
N1    N     N_R   0.501200 0.501210 0.147910 -0.214081
N2    N     N_R   0.501250 0.501290 0.852040 -0.238336
O1    O     O_R   0.499990 0.319640 0.618810 -0.567187
O2    O     O_R   0.500000 0.319660 0.381240 -0.575954
O3    O     O_R   0.317680 0.499970 0.618790 -0.547064
O4    O     O_R   0.317700 0.499990 0.381210 -0.601316
O5    O     O_R   0.500000 0.680340 0.618760 -0.617684
O6    O     O_R   0.500010 0.680360 0.381190 -0.570227
O7    O     O_R   0.682300 0.500010 0.618790 -0.608536
O8    O     O_R   0.682320 0.500030 0.381210 -0.563138
C31   C     C_2   0.112674 0.536773 0.769972 0.907428
O9    O     O_2   0.115272 0.649846 0.758255 -0.614316
O10   O     O_R   0.158301 0.486160 0.890195 -0.712256
H7    H     H_    0.194199 0.552010 0.955763 0.341675
C32   C     C_2   0.871550 0.389530 0.252108 0.871089
O11   O     O_2   0.921479 0.468320 0.169340 -0.588994
O12   O     O_R   0.769973 0.308188 0.210189 -0.720738
H8    H     H_    0.747007 0.325033 0.110922 0.336638
H9    H     H_    0.920834 0.636818 0.338778 0.233244
H10   H     H_    0.457189 0.111823 0.288196 0.185161
H11   H     H_    0.578677 0.093857 0.975893 0.175343
H12   H     H_    0.460569 0.883480 0.988727 0.174151
H13   H     H_    0.354077 0.359285 0.143505 0.185756
C33   C     C_2   0.061729 0.315080 0.702679 0.917158
O13   O     O_2   0.012459 0.277306 0.813973 -0.539632
O14   O     O_R   0.119721 0.231889 0.621561 -0.759238
H14   H     H_    0.113127 0.145013 0.664971 0.348210
C34   C     C_2   0.679705 0.754990 0.218530 0.950333
O15   O     O_2   0.625220 0.840393 0.176639 -0.633468
O16   O     O_R   0.737211 0.762703 0.346478 -0.771910
H15   H     H_    0.726343 0.842934 0.395396 0.326522
C35   C     C_2   0.926654 0.749358 0.090466 0.882768
O17   O     O_2   0.930658 0.833425 0.173472 -0.573274
O18   O     O_R   0.037177 0.712960 0.036231 -0.713547
H16   H     H_    0.113558 0.760381 0.076537 0.322596
H17   H     H_    0.867385 0.741180 0.830884 0.188773
H18   H     H_    0.675848 0.675389 0.733840 0.213914
C36   C     C_2   0.349117 0.304533 0.880897 0.893644
O19   O     O_2   0.311120 0.304602 0.764438 -0.533455
O20   O     O_R   0.318928 0.198382 0.966482 -0.793095
H19   H     H_    0.267166 0.128766 0.918348 0.348941
H20   H     H_    0.856689 0.393241 0.703174 0.223398
H21   H     H_    0.897631 0.552852 0.706611 0.197882
H22   H     H_    0.127414 0.693362 0.517893 0.207242
H23   H     H_    0.101847 0.428795 0.291145 0.214383
C37   C     C_2   0.869696 0.249084 0.455361 0.865354
O21   O     O_2   0.788912 0.232593 0.546874 -0.656488
O22   O     O_R   0.913297 0.145705 0.394028 -0.701901
H24   H     H_    0.873013 0.063780 0.436674 0.348002

loop_
_geom_bond_atom_site_label_1
_geom_bond_atom_site_label_2
_ccdc_geom_bond_type
C34   O16   S    
O12   H8    S    
C16   C21   A    
C23   O5    A    
C4    C32   S    
C19   C20   A    
C1    C11   S    
C7    C8    A    
C32   O11   D    
C26   C27   S    
C33   O13   D    
Cu1   O3    S    
C3    C28   S    
C36   O20   S    
C29   H23   S    
C12   O3    A    
C14   H4    S    
C5    C6    A    
C20   N2    A    
Cu1   N2    S    
C18   C19   A    
Cu2   N1    S    
C33   O14   S    
O16   H15   S    
C8    C9    A    
C31   O10   S    
C21   N1    A    
C29   H6    S    
C2    C27   S    
C9    C10   A    
C25   O7    A    
C4    C29   S    
C15   C23   S    
C34   O15   D    
C17   C35   S    
C18   H17   S    
C23   O6    A    
Cu1   O7    S    
C13   C14   A    
Cu2   O8    S    
C32   O12   S    
C28   H22   S    
O10   H7    S    
C27   H21   S    
C37   O21   D    
C27   H20   S    
C26   C31   S    
O22   H24   S    
C16   C17   A    
C13   H10   S    
C8    H3    S    
C2    C4    S    
C29   C30   S    
Cu1   Cu2   S    
C4    C37   S    
C5    H2    S    
C17   C18   A    
Cu2   O4    S    
C36   O19   D    
C25   O8    A    
C35   O17   D    
C3    H9    S    
C1    O1    A    
C28   H1    S    
C26   C30   S    
C22   C24   A    
C16   C34   S    
C7    H12   S    
Cu1   O1    S    
C12   C30   S    
O20   H19   S    
Cu2   O6    S    
C6    H11   S    
C24   C36   S    
C37   O22   S    
O18   H16   S    
C6    C7    A    
O14   H14   S    
C19   H18   S    
C2    C3    S    
C26   C33   S    
C5    C10   A    
C12   O4    A    
C22   H13   S    
C11   C13   A    
C22   N1    A    
C28   C30   S    
C24   N2    A    
C2    C25   S    
C9    C15   A    
C10   C11   A    
C1    O2    A    
C20   C21   A    
C3    H5    S    
C31   O9    D    
Cu1   O5    S    
Cu2   O2    S    
C14   C15   A    
C35   O18   S    
