data_mof_unit_pretest_1496.cif
_audit_creation_date              2012-10-26T19:10:48-0400
_audit_creation_method            fapswitch 2.2
_symmetry_space_group_name_H-M    P1
_symmetry_Int_Tables_number       1
_space_group_crystal_system       triclinic
_cell_length_a                    10.731451
_cell_length_b                    9.407846
_cell_length_c                    23.532663
_cell_angle_alpha                 89.6644
_cell_angle_beta                  89.934387
_cell_angle_gamma                 90.107042
_cell_volume                      2375.80736324

loop_
_atom_site_label
_atom_site_type_symbol
_atom_type_description
_atom_site_fract_x
_atom_site_fract_y
_atom_site_fract_z
_atom_type_partial_charge
C1    C     C_R   0.259662 0.499989 0.499781 0.603179
C2    C     C_R   0.623948 0.495502 0.119755 0.397627
C3    C     C_R   0.555755 0.384898 0.240814 -0.095975
C4    C     C_R   0.496814 0.500437 0.390976 0.570416
C5    C     C_R   0.549097 0.385856 0.299769 -0.188346
C6    C     C_R   0.495247 0.500934 0.328329 -0.040691
C7    C     C_R   0.445557 0.616155 0.296352 0.287103
C8    C     C_R   0.458732 0.618675 0.237083 0.362675
C9    C     C_R   0.511256 0.500074 0.209056 0.175754
C10   C     C_R   0.445982 0.380589 0.761493 0.010150
C11   C     C_R   0.435570 0.384317 0.702432 0.218336
C12   C     C_R   0.285287 0.473190 0.971839 -0.096634
C13   C     C_R   0.491017 0.498262 0.671570 -0.006510
C14   C     C_R   0.546613 0.610689 0.701412 -0.182218
C15   C     C_R   0.551164 0.608452 0.760603 -0.066281
C16   C     C_R   0.740043 0.500309 0.500030 0.553783
C17   C     C_R   0.502300 0.492541 0.790909 0.180583
C18   C     C_3   0.071383 0.654850 0.502867 -0.281514
C19   C     C_3   0.071586 0.418095 0.551961 -0.250372
C20   C     C_3   0.928876 0.655391 0.501456 -0.264742
C21   C     C_3   0.927844 0.417772 0.551867 -0.242380
C22   C     C_3   0.071228 0.426383 0.443811 0.450766
C23   C     C_R   0.286580 0.470456 0.030878 -0.094990
C24   C     C_3   0.121579 0.499823 0.499070 0.105396
C25   C     C_3   0.877846 0.500884 0.499545 -0.005699
C26   C     C_3   0.925786 0.429556 0.444510 -0.176932
C27   C     C_3   0.627940 0.083865 0.507192 -0.107229
C28   C     C_3   0.627893 0.916468 0.507332 -0.106714
C29   C     C_3   0.424830 0.083050 0.548748 -0.107389
C30   C     C_3   0.424364 0.915364 0.548623 -0.102029
C31   C     C_3   0.447439 0.084215 0.447910 -0.097383
C32   C     C_3   0.447697 0.916897 0.447869 -0.099531
C33   C     C_R   0.496063 0.499521 0.609020 0.539149
C34   C     C_R   0.399905 0.474331 0.060472 0.035632
C35   C     C_R   0.619135 0.489322 0.879236 0.407387
C36   C     C_R   0.396666 0.484570 0.881676 0.405833
C37   C     C_R   0.397337 0.478050 0.941070 0.039217
C38   C     C_R   0.512337 0.477216 0.970128 -0.075293
C39   C     C_R   0.625230 0.479046 0.939218 -0.023873
C40   C     C_R   0.513607 0.476759 0.030216 -0.075132
C41   C     C_R   0.627754 0.480864 0.059974 -0.024266
C42   C     C_R   0.740984 0.472944 0.028890 0.288653
C43   C     C_R   0.739695 0.471574 0.969354 0.286623
C44   C     C_R   0.401989 0.477393 0.119876 0.410999
Cu1   Cu    Cu3+1 0.499860 0.642410 0.500030 0.884960
Cu2   Cu    Cu3+1 0.499860 0.357590 0.500030 0.911409
H1    H     H_    0.588391 0.699553 0.678884 0.130933
H2    H     H_    0.462672 0.119515 0.590080 0.164101
H3    H     H_    0.460881 0.877059 0.590121 0.131714
H4    H     H_    0.350812 0.123865 0.441636 0.165553
H5    H     H_    0.351202 0.876694 0.441461 0.129644
H6    H     H_    0.595458 0.293782 0.219535 0.160243
H7    H     H_    0.587214 0.296441 0.323139 0.141623
H8    H     H_    0.406298 0.291941 0.784931 0.165823
H9    H     H_    0.195984 0.472355 0.950424 0.201275
H10   H     H_    0.327906 0.316232 0.642475 0.324655
H11   H     H_    0.893149 0.710941 0.539813 0.135598
H12   H     H_    0.593495 0.696464 0.782939 0.160631
H13   H     H_    0.892855 0.466956 0.591711 0.131154
H14   H     H_    0.077696 0.588027 0.390118 0.307490
H15   H     H_    0.089083 0.244008 0.405548 0.346949
H16   H     H_    0.888865 0.487342 0.406726 0.104872
H17   H     H_    0.888010 0.319439 0.441923 0.123395
H18   H     H_    0.671267 0.122896 0.547119 0.121477
H19   H     H_    0.670816 0.876774 0.547401 0.116594
H20   H     H_    0.687724 0.122317 0.471611 0.117527
H21   H     H_    0.687931 0.878948 0.471915 0.119387
H22   H     H_    0.502604 0.121769 0.410743 0.128903
H23   H     H_    0.108211 0.722548 0.467756 0.128048
H24   H     H_    0.503298 0.880672 0.410832 0.161067
H25   H     H_    0.327476 0.122863 0.546213 0.129347
H26   H     H_    0.326783 0.876150 0.545619 0.119959
H27   H     H_    0.846410 0.382880 0.084200 0.352057
H28   H     H_    0.844083 0.375080 0.916003 0.351707
H29   H     H_    0.336269 0.689700 0.354624 0.336638
H30   H     H_    0.445944 0.734510 0.168322 0.335174
H31   H     H_    0.106098 0.306630 0.552472 0.160403
H32   H     H_    0.103304 0.704505 0.543183 0.126963
H33   H     H_    0.106032 0.469032 0.591553 0.105060
H34   H     H_    0.896893 0.716233 0.463467 0.125468
H35   H     H_    0.893690 0.305993 0.551150 0.132818
H36   H     H_    0.198283 0.467843 0.053224 0.201567
N1    N     N_R   0.506289 0.489579 0.852007 -0.400119
N2    N     N_R   0.512541 0.491180 0.148114 -0.415269
N3    N     N_3   0.500250 0.143650 0.501250 -0.242565
N4    N     N_3   0.500250 0.856350 0.501250 -0.237853
O1    O     O_R   0.317570 0.620260 0.500030 -0.531215
O2    O     O_2   0.286969 0.488214 0.853672 -0.477830
O3    O     O_2   0.294237 0.468536 0.149359 -0.442972
O4    O     O_2   0.729524 0.518243 0.149402 -0.449808
O5    O     O_3   0.367895 0.277301 0.677108 -0.712711
O6    O     O_3   0.119251 0.494673 0.394766 -0.681458
O7    O     O_3   0.110765 0.283657 0.443302 -0.691426
O8    O     O_3   0.855094 0.458823 0.055089 -0.594784
O9    O     O_3   0.852633 0.456610 0.942215 -0.594914
O10   O     O_3   0.381912 0.727081 0.321119 -0.647869
O11   O     O_3   0.415924 0.737017 0.208078 -0.605240
O12   O     O_R   0.317570 0.379740 0.500030 -0.470097
O13   O     O_R   0.499840 0.620290 0.417900 -0.501477
O14   O     O_R   0.499840 0.379710 0.417900 -0.500922
O15   O     O_R   0.682190 0.620260 0.500010 -0.512665
O16   O     O_R   0.682190 0.379740 0.500010 -0.519042
O17   O     O_R   0.499920 0.620230 0.582140 -0.514838
O18   O     O_R   0.499920 0.379770 0.582140 -0.501098
O19   O     O_2   0.724395 0.500420 0.848167 -0.463151

loop_
_geom_bond_atom_site_label_1
_geom_bond_atom_site_label_2
_ccdc_geom_bond_type
C1    O1    A    
C31   N3    S    
C23   H36   S    
C33   O18   A    
C41   C42   A    
C2    N2    A    
C26   H17   S    
Cu1   N4    S    
C7    C8    A    
Cu1   Cu2   S    
C36   O2    S    
C7    O10   S    
Cu2   O16   S    
C12   C23   A    
C29   C30   S    
C34   C40   A    
C5    H7    S    
C36   C37   A    
C19   C21   S    
C21   H13   S    
C26   H16   S    
C5    C6    A    
H15   O7    S    
C20   C25   S    
C36   N1    A    
C2    O4    S    
C12   C37   A    
C27   N3    S    
Cu2   O14   S    
Cu1   O17   S    
C27   H18   S    
H10   O5    S    
C8    C9    A    
C43   O9    S    
C18   C24   S    
C30   N4    S    
C29   N3    S    
Cu2   N3    S    
C18   H23   S    
Cu2   O12   S    
C33   O17   A    
C13   C14   A    
H27   O8    S    
H29   O10   S    
H14   O6    S    
C31   H22   S    
C20   H34   S    
C29   H2    S    
C28   H21   S    
C34   C44   A    
C4    C6    S    
Cu1   O13   S    
C35   N1    A    
C39   C43   A    
C3    C5    A    
H30   O11   S    
Cu2   O18   S    
C17   N1    S    
C35   C39   A    
C8    O11   S    
C32   H5    S    
C13   C33   S    
C37   C38   A    
C3    C9    A    
C19   H31   S    
C31   C32   S    
C18   H32   S    
C23   C34   A    
C32   N4    S    
C19   H33   S    
C14   H1    S    
Cu1   O15   S    
C16   O16   A    
C40   C41   A    
C30   H3    S    
C21   H35   S    
C4    O14   A    
C28   N4    S    
C22   O7    S    
C22   C24   S    
C42   C43   A    
C31   H4    S    
C10   C17   A    
C16   C25   S    
C15   C17   A    
C21   C25   S    
Cu1   O1    S    
C42   O8    S    
H28   O9    S    
C44   N2    A    
C1    O12   A    
C30   H26   S    
C3    H6    S    
C6    C7    A    
C19   C24   S    
C25   C26   S    
C27   H20   S    
C38   C40   A    
C11   C13   A    
C38   C39   A    
C15   H12   S    
C28   H19   S    
C18   C20   S    
C32   H24   S    
C10   H8    S    
C12   H9    S    
C10   C11   A    
C9    N2    S    
C11   O5    S    
C16   O15   A    
C1    C24   S    
C22   C26   S    
C4    O13   A    
C27   C28   S    
C22   O6    S    
C14   C15   A    
C35   O19   S    
C2    C41   A    
C20   H11   S    
C44   O3    S    
C29   H25   S    
