data_mof_unit_pretest_216.cif
_audit_creation_date              2012-10-26T19:52:48-0400
_audit_creation_method            fapswitch 2.2
_symmetry_space_group_name_H-M    P1
_symmetry_Int_Tables_number       1
_space_group_crystal_system       triclinic
_cell_length_a                    15.040746
_cell_length_b                    10.910234
_cell_length_c                    9.542846
_cell_angle_alpha                 89.022347
_cell_angle_beta                  89.893978
_cell_angle_gamma                 90.12042
_cell_volume                      1565.72829235

loop_
_atom_site_label
_atom_site_type_symbol
_atom_type_description
_atom_site_fract_x
_atom_site_fract_y
_atom_site_fract_z
_atom_type_partial_charge
C1    C     C_R   0.499192 0.262811 0.500891 0.543056
C2    C     C_R   0.187674 0.418121 0.425919 -0.152205
C3    C     C_R   0.232550 0.508381 0.499775 0.010591
C4    C     C_R   0.329026 0.503077 0.500009 0.546590
C5    C     C_R   0.185514 0.600023 0.572264 -0.012629
C6    C     C_R   0.489871 0.058931 0.620519 0.013357
C7    C     C_R   0.496646 0.130528 0.499591 -0.018163
C8    C     C_R   0.500881 0.069611 0.370858 -0.148578
C9    C     C_R   0.501644 0.940900 0.365121 -0.033172
C10   C     C_R   0.497174 0.870541 0.493207 0.006746
C11   C     C_R   0.489813 0.935072 0.617392 0.004418
C12   C     C_R   0.904463 0.583332 0.575786 0.006901
C13   C     C_3   0.491598 0.920784 0.773972 -0.104228
C14   C     C_3   0.491150 0.063193 0.776997 -0.105108
C15   C     C_R   0.566435 0.557560 0.072404 0.145748
C16   C     C_R   0.499758 0.737500 0.498257 0.546547
C17   C     C_R   0.429592 0.455717 0.075477 -0.015390
C18   C     C_R   0.429085 0.457327 0.926789 -0.031446
C19   C     C_R   0.566535 0.557297 0.924985 0.150926
C20   C     C_3   0.663192 0.527606 0.919677 -0.270674
C21   C     C_3   0.663058 0.527624 0.078353 -0.271834
C22   C     C_R   0.670919 0.495946 0.499996 0.545543
C23   C     C_R   0.959098 0.316422 0.352492 -0.132925
C24   C     C_R   0.812271 0.579957 0.574389 -0.153653
C25   C     C_R   0.767323 0.489894 0.500383 0.007315
C26   C     C_R   0.814256 0.397366 0.429053 -0.017135
C27   C     C_R   0.908328 0.402375 0.426669 0.032556
C28   C     C_R   0.953099 0.495678 0.500956 0.045210
C29   C     C_3   0.509242 0.884929 0.221668 -0.377038
C30   C     C_3   0.409507 0.854854 0.835020 -0.395630
C31   C     C_3   0.408192 0.124076 0.837864 -0.394517
C32   C     C_3   0.765730 0.291069 0.362275 -0.402203
C33   C     C_3   0.234094 0.705736 0.639818 -0.402443
C34   C     C_R   0.051403 0.322365 0.352170 -0.138664
C35   C     C_R   0.095438 0.413876 0.425772 0.006813
C36   C     C_R   0.046769 0.501272 0.500973 0.044739
C37   C     C_R   0.091505 0.594449 0.575492 0.032313
C38   C     C_R   0.040778 0.679795 0.650621 -0.132324
C39   C     C_R   0.948484 0.674254 0.650315 -0.138876
Cu1   Cu    Cu3+1 0.500000 0.499980 0.640670 0.911183
Cu2   Cu    Cu3+1 0.500000 0.500020 0.359330 0.915547
H1    H     H_    0.373734 0.416176 0.131668 0.118890
H2    H     H_    0.570620 0.828933 0.215104 0.151210
H3    H     H_    0.347968 0.881782 0.778552 0.133559
H4    H     H_    0.417482 0.754222 0.828132 0.170141
H5    H     H_    0.402097 0.876779 0.947445 0.120839
H6    H     H_    0.555306 0.880910 0.812112 0.125385
H7    H     H_    0.413738 0.224264 0.823456 0.158244
H8    H     H_    0.346436 0.093887 0.784892 0.138836
H9    H     H_    0.403446 0.103416 0.951934 0.119646
H10   H     H_    0.554335 0.102194 0.817272 0.127115
H11   H     H_    0.676589 0.435571 0.876063 0.154862
H12   H     H_    0.372013 0.421279 0.872587 0.114816
H13   H     H_    0.693226 0.290199 0.382003 0.155756
H14   H     H_    0.776586 0.293552 0.247206 0.116456
H15   H     H_    0.791284 0.203154 0.406344 0.119129
H16   H     H_    0.703032 0.603415 0.122777 0.128613
H17   H     H_    0.928449 0.244133 0.293247 0.112020
H18   H     H_    0.225216 0.349473 0.369986 0.106675
H19   H     H_    0.206448 0.794203 0.600850 0.115157
H20   H     H_    0.226585 0.699246 0.755469 0.124004
H21   H     H_    0.305856 0.709332 0.614490 0.155190
H22   H     H_    0.071454 0.751418 0.710876 0.111501
H23   H     H_    0.703013 0.603759 0.872586 0.120315
H24   H     H_    0.911363 0.741566 0.708632 0.104349
H25   H     H_    0.675918 0.435500 0.125233 0.152348
H26   H     H_    0.088519 0.254893 0.294092 0.105937
H27   H     H_    0.505259 0.122268 0.273760 0.138982
H28   H     H_    0.774819 0.649182 0.629506 0.104639
H29   H     H_    0.449672 0.828109 0.200083 0.155953
H30   H     H_    0.513426 0.955649 0.136734 0.101861
N1    N     N_R   0.500570 0.500930 0.147930 -0.231509
N2    N     N_R   0.500570 0.500890 0.852020 -0.236365
O1    O     O_R   0.500000 0.319640 0.618810 -0.500117
O2    O     O_R   0.500010 0.319680 0.381230 -0.516470
O3    O     O_R   0.370250 0.499950 0.618800 -0.512485
O4    O     O_R   0.370260 0.499990 0.381220 -0.509173
O5    O     O_R   0.499990 0.680320 0.618770 -0.509197
O6    O     O_R   0.500000 0.680360 0.381190 -0.503162
O7    O     O_R   0.629740 0.500010 0.618780 -0.505915
O8    O     O_R   0.629750 0.500050 0.381200 -0.505293

loop_
_geom_bond_atom_site_label_1
_geom_bond_atom_site_label_2
_ccdc_geom_bond_type
C2    C35   A    
C23   H17   S    
C26   C32   S    
C5    C37   A    
C21   H25   S    
C30   H4    S    
C35   C36   A    
C14   C31   S    
C7    C8    A    
C15   C19   A    
C15   N1    A    
C26   C27   A    
C12   C28   A    
C1    O1    A    
C36   C37   A    
C38   H22   S    
Cu2   O4    S    
C38   C39   A    
Cu2   O2    S    
Cu1   N2    S    
C34   C35   A    
C17   H1    S    
C18   H12   S    
C19   C20   S    
C33   H21   S    
C22   C25   S    
C5    C33   S    
Cu1   O7    S    
C23   C27   A    
C9    C10   A    
C32   H14   S    
C9    C29   S    
C13   C14   S    
C29   H2    S    
C39   H24   S    
C30   H3    S    
C31   H8    S    
C32   H13   S    
C24   H28   S    
C1    O2    A    
C22   O8    A    
C13   C30   S    
C19   N2    A    
C24   C25   A    
C6    C11   A    
C13   H6    S    
C2    H18   S    
C8    C9    A    
C25   C26   A    
Cu1   O3    S    
C20   H23   S    
C21   H16   S    
C37   C38   A    
C6    C14   S    
C14   H10   S    
C23   C34   A    
Cu2   O8    S    
C17   C18   A    
Cu2   N1    S    
Cu1   Cu2   S    
C8    H27   S    
C18   N2    A    
C31   H7    S    
Cu1   O5    S    
C31   H9    S    
C3    C4    S    
C29   H29   S    
C1    C7    S    
C30   H5    S    
C3    C5    A    
C34   H26   S    
Cu2   O6    S    
C6    C7    A    
C33   H19   S    
C12   C24   A    
C16   O6    A    
C12   C39   A    
C2    C3    A    
C22   O7    A    
C4    O4    A    
C20   H11   S    
C10   C16   S    
C11   C13   S    
Cu1   O1    S    
C16   O5    A    
C4    O3    A    
C10   C11   A    
C15   C21   S    
C20   C21   S    
C28   C36   A    
C17   N1    A    
C33   H20   S    
C27   C28   A    
C32   H15   S    
C29   H30   S    
