data_mof_unit_pretest_1839.cif
_audit_creation_date              2012-12-11T17:27:24-0500
_audit_creation_method            fapswitch 2.2
_symmetry_space_group_name_H-M    P1
_symmetry_Int_Tables_number       1
_space_group_crystal_system       triclinic
_cell_length_a                    6.956272
_cell_length_b                    21.240474
_cell_length_c                    22.908424
_cell_angle_alpha                 92.958064
_cell_angle_beta                  89.107239
_cell_angle_gamma                 89.499898
_cell_volume                      3379.74868812

loop_
_atom_site_label
_atom_site_type_symbol
_atom_type_description
_atom_site_fract_x
_atom_site_fract_y
_atom_site_fract_z
_atom_type_partial_charge
O1    O     O_R   0.494570 0.443040 0.441850 -0.526592
O2    O     O_R   0.823720 0.437670 0.557760 -0.536841
O3    O     O_R   0.994070 0.556960 0.558150 -0.524889
C1    C     C_R   0.654387 0.422761 0.577135 0.721554
O4    O     O_R   0.824280 0.435690 0.442260 -0.533799
O5    O     O_R   0.994640 0.554970 0.441830 -0.532079
C2    C     C_R   0.657175 0.420338 0.422963 0.735798
O6    O     O_R   0.494000 0.445030 0.558170 -0.534869
O7    O     O_3   0.660820 0.539140 0.499990 -0.367350
V1    V     V_3+5 0.935650 0.492740 0.500000 1.447537
O8    O     O_R   0.324360 0.562330 0.442240 -0.535219
C3    C     C_R   0.155961 0.577028 0.422509 0.734885
O9    O     O_R   0.323800 0.564310 0.557740 -0.526382
C4    C     C_R   0.153210 0.582222 0.579996 0.693586
V2    V     V_3+5 0.435660 0.507260 0.500000 1.443860
O10   O     O_3   0.160620 0.460860 0.500010 -0.358695
C5    C     C_1   0.139824 0.633383 0.631292 -0.203200
C6    C     C_1   0.128940 0.675074 0.673605 0.013029
C7    C     C_1   0.115960 0.724844 0.724348 0.000087
C8    C     C_1   0.105118 0.766412 0.766768 0.000159
C9    C     C_1   0.092117 0.816182 0.817511 0.013340
C10   C     C_1   0.081177 0.857871 0.859825 -0.202840
C11   C     C_R   0.285875 0.736690 0.273528 -0.232489
H1    H     H_    0.422282 0.730216 0.294720 0.142234
C12   C     C_R   0.123934 0.702923 0.291051 0.048563
C13   C     C_R   0.948974 0.712230 0.262742 -0.145295
H2    H     H_    0.822137 0.686723 0.275475 0.137786
C14   C     C_R   0.936169 0.754534 0.217655 -0.213999
H3    H     H_    0.799811 0.760794 0.196425 0.201905
C15   C     C_R   0.097940 0.788393 0.200138 -0.004176
C16   C     C_R   0.273172 0.779153 0.228515 0.628046
C17   C     C_1   0.137090 0.658802 0.337728 -0.007772
C18   C     C_1   0.083834 0.832473 0.153413 0.069345
C19   C     C_1   0.073714 0.869483 0.114629 -0.156447
C20   C     C_1   0.146781 0.621764 0.376500 -0.186669
H4    H     H_    0.311147 0.290407 0.706044 0.112989
C21   C     C_R   0.430552 0.226060 0.765751 -0.150827
H5    H     H_    0.290578 0.211235 0.780875 0.112265
C22   C     C_R   0.598368 0.200379 0.788592 0.136186
C23   C     C_R   0.778032 0.220420 0.768266 -0.150444
H6    H     H_    0.909152 0.201179 0.785358 0.112871
C24   C     C_R   0.789747 0.265531 0.725655 -0.150695
H7    H     H_    0.929721 0.280351 0.710527 0.112372
C25   C     C_R   0.621931 0.291209 0.702812 0.136118
C26   C     C_R   0.442267 0.271171 0.723140 -0.150256
C27   C     C_1   0.586369 0.153748 0.832792 -0.054633
C28   C     C_1   0.633932 0.337812 0.658586 -0.054259
C29   C     C_1   0.643548 0.376629 0.621545 -0.181769
C30   C     C_1   0.576761 0.114892 0.869799 -0.182546
C31   C     C_R   0.430171 0.236053 0.219081 -0.233825
H8    H     H_    0.292284 0.228390 0.198615 0.140494
C32   C     C_R   0.593025 0.201830 0.199564 0.053688
C33   C     C_R   0.771254 0.211234 0.225696 -0.148888
H9    H     H_    0.897085 0.184424 0.210349 0.136898
C34   C     C_R   0.786955 0.255455 0.272016 -0.216140
H10   H     H_    0.924820 0.262893 0.292505 0.202181
C35   C     C_R   0.624323 0.289787 0.291549 -0.000313
C36   C     C_R   0.445846 0.280425 0.265331 0.626077
C37   C     C_1   0.577713 0.156436 0.152895 -0.019141
C38   C     C_1   0.640884 0.335103 0.338279 0.056202
C39   C     C_1   0.650876 0.373843 0.377315 -0.150544
C40   C     C_1   0.568559 0.117622 0.113896 -0.188433
O11   O     O_R   0.726340 0.046440 0.933120 -0.535143
O12   O     O_R   0.395690 0.055650 0.048950 -0.536983
O13   O     O_R   0.225700 0.936320 0.049330 -0.526828
C41   C     C_R   0.562686 0.071071 0.068285 0.746691
O14   O     O_R   0.396600 0.053690 0.933450 -0.537004
O15   O     O_R   0.226620 0.934340 0.933010 -0.524136
C42   C     C_R   0.565940 0.068691 0.914146 0.721572
O16   O     O_R   0.725420 0.048420 0.049440 -0.533294
O17   O     O_3   0.559650 0.952270 0.991250 -0.362231
V3    V     V_3+5 0.284670 0.998570 0.991180 1.440092
O18   O     O_R   0.896930 0.926880 0.933340 -0.526088
C43   C     C_R   0.067604 0.909027 0.911122 0.695436
O19   O     O_R   0.896010 0.928840 0.048840 -0.532416
C44   C     C_R   0.064410 0.914207 0.068614 0.724486
V4    V     V_3+5 0.784710 0.983880 0.991060 1.443667
O20   O     O_3   0.059600 0.030370 0.991120 -0.363876
F1    F     F_    0.431926 0.811278 0.212736 -0.700151
F2    F     F_    0.288393 0.314183 0.284426 -0.701530

loop_
_geom_bond_atom_site_label_1
_geom_bond_atom_site_label_2
_ccdc_geom_bond_type
C34   H10   S    
O18   C43   A    
C7    C8    T    
C1    O6    A    
C33   H9    S    
C25   C26   A    
C27   C30   T    
C13   H2    S    
O13   C44   A    
C14   H3    S    
C6    C7    S    
O5    C3    A    
C15   C16   A    
O15   C43   A    
V2    O10   S    
O14   V3    S    
C2    C39   S    
V3    O20   S    
O8    V2    S    
O11   C42   A    
C31   C32   A    
C11   H1    S    
O1    V2    S    
O7    V1    S    
C25   C28   S    
C36   F2    S    
C12   C17   S    
C23   C24   A    
C30   C42   S    
C9    C10   T    
O16   V4    S    
C4    C5    S    
C24   C25   A    
C5    C6    T    
C33   C34   A    
C40   C41   S    
C31   C36   A    
C17   C20   T    
C22   C23   A    
O4    C2    A    
C35   C38   S    
C31   H8    S    
C12   C13   A    
V4    O20   S    
C38   C39   T    
O14   C42   A    
O12   C41   A    
O2    C1    A    
O19   C44   A    
C21   H5    S    
C32   C37   S    
C28   C29   T    
O9    V2    S    
O15   V3    S    
C18   C19   T    
H4    C26   S    
C3    C20   S    
O19   V4    S    
O3    C4    A    
C22   C27   S    
C23   H6    S    
O6    V2    S    
C34   C35   A    
C24   H7    S    
C10   C43   S    
C21   C26   A    
O2    V1    S    
O17   V4    S    
C32   C33   A    
C1    C29   S    
O11   V4    S    
C37   C40   T    
C15   C18   S    
O1    C2    A    
O5    V1    S    
O8    C3    A    
C16   F1    S    
O13   V3    S    
C13   C14   A    
C14   C15   A    
O7    V2    S    
O17   V3    S    
C21   C22   A    
O3    V1    S    
V1    O10   S    
C35   C36   A    
C41   O16   A    
O12   V3    S    
O4    V1    S    
C11   C12   A    
C8    C9    S    
C19   C44   S    
O18   V4    S    
O9    C4    A    
C11   C16   A    
