data_mof_unit_pretest_46.cif
_audit_creation_date              2013-03-05T15:49:56-0500
_audit_creation_method            fapswitch 2.2
_symmetry_space_group_name_H-M    P1
_symmetry_Int_Tables_number       1
_space_group_crystal_system       triclinic
_cell_length_a                    6.936632
_cell_length_b                    19.945886
_cell_length_c                    23.685848
_cell_angle_alpha                 93.09262
_cell_angle_beta                  91.396303
_cell_angle_gamma                 88.4046
_cell_volume                      3270.20970036

loop_
_atom_site_label
_atom_site_type_symbol
_atom_site_description
_atom_site_fract_x
_atom_site_fract_y
_atom_site_fract_z
_atom_type_partial_charge
O1    O     O_R   0.620100 0.812200 0.810870 -0.566437
O2    O     O_R   0.379900 0.187800 0.189130 -0.560692
O3    O     O_R   0.296960 0.671650 0.794750 -0.576855
O4    O     O_R   0.703040 0.328350 0.205250 -0.577307
O5    O     O_R   0.120160 0.687800 0.689130 -0.600232
O6    O     O_R   0.879840 0.312200 0.310870 -0.597771
C1    C     C_R   0.469189 0.646604 0.804407 1.157496
C2    C     C_R   0.530868 0.353452 0.195660 1.155986
O7    O     O_R   0.290810 0.810670 0.817290 -0.566435
O8    O     O_R   0.709190 0.189330 0.182710 -0.569817
O9    O     O_R   0.113980 0.827820 0.711840 -0.584238
O10   O     O_R   0.886020 0.172180 0.288160 -0.567848
C3    C     C_R   0.459127 0.832089 0.833903 1.102698
C4    C     C_R   0.540935 0.167781 0.166124 1.095887
O11   O     O_R   0.626290 0.672180 0.788160 -0.594721
O12   O     O_R   0.373710 0.327820 0.211840 -0.594508
O13   O     O_3   0.451520 0.755460 0.715370 -0.264776
O14   O     O_3   0.548480 0.244540 0.284630 -0.263181
V1    V     V_3+5 0.179200 0.748980 0.756420 1.359118
V2    V     V_3+5 0.820800 0.251020 0.243580 1.361346
O15   O     O_R   0.783880 0.828350 0.705250 -0.589806
O16   O     O_R   0.216120 0.171650 0.294750 -0.605247
C5    C     C_R   0.949742 0.852347 0.694165 1.142117
C6    C     C_R   0.050837 0.147282 0.305611 1.131473
O17   O     O_R   0.790030 0.689320 0.682700 -0.564706
O18   O     O_R   0.209970 0.310680 0.317300 -0.562809
C7    C     C_R   0.958707 0.669185 0.665009 1.051057
C8    C     C_R   0.041455 0.331330 0.334708 1.049264
V3    V     V_3+5 0.678400 0.751010 0.743570 1.361905
V4    V     V_3+5 0.321600 0.248990 0.256430 1.355581
O19   O     O_3   0.955950 0.744540 0.784620 -0.251218
O20   O     O_3   0.044050 0.255460 0.215380 -0.249813
C9    C     C_R   0.876818 0.426323 0.388575 -0.092384
C10   C     C_R   0.124392 0.575002 0.610694 -0.097406
C11   C     C_R   0.033254 0.380217 0.384580 -0.292021
C12   C     C_R   0.967856 0.621019 0.614769 -0.289065
C13   C     C_R   0.181271 0.382873 0.427115 0.322840
C14   C     C_R   0.821721 0.619367 0.571724 0.311098
C15   C     C_R   0.169147 0.431434 0.473060 -0.027082
C16   C     C_R   0.833228 0.570664 0.525845 -0.026673
C17   C     C_R   0.008652 0.476845 0.476447 0.041210
C18   C     C_R   0.993254 0.525019 0.522559 0.044556
C19   C     C_R   0.862915 0.474071 0.433976 0.130655
C20   C     C_R   0.138824 0.527653 0.565088 0.129288
C21   C     C_R   0.311603 0.434852 0.516521 -0.099381
C22   C     C_R   0.690685 0.567228 0.482423 -0.107915
C23   C     C_R   0.296942 0.482528 0.561660 -0.130745
C24   C     C_R   0.704943 0.519324 0.437379 -0.127437
H1    H     H_    0.765478 0.425396 0.355708 0.198866
H2    H     H_    0.235424 0.575684 0.643650 0.198221
H3    H     H_    0.435150 0.400581 0.516368 0.201868
H4    H     H_    0.567037 0.601473 0.482716 0.201652
H5    H     H_    0.409754 0.483928 0.594153 0.186980
H6    H     H_    0.591872 0.517805 0.404968 0.186848
C25   C     C_R   0.951468 0.914429 0.662855 -0.437733
C26   C     C_R   0.058874 0.085166 0.337417 -0.416770
C27   C     C_R   0.921836 0.035527 0.664364 0.924851
C28   C     C_R   0.190627 0.971933 0.342916 0.916363
C29   C     C_R   0.914666 0.975754 0.691812 -0.310923
C30   C     C_R   0.147394 0.028076 0.312143 -0.319539
C31   C     C_R   0.991126 0.912892 0.604854 0.819822
C32   C     C_R   0.011340 0.085417 0.394912 0.786129
C33   C     C_R   0.019191 0.973519 0.576877 -0.123876
C34   C     C_R   0.075873 0.031808 0.429330 -0.121409
C35   C     C_R   0.976109 0.035630 0.607001 -0.358444
C36   C     C_R   0.159586 0.973143 0.401921 -0.343737
C37   C     C_R   0.082947 0.974348 0.519591 -0.036108
C38   C     C_R   0.059209 0.034466 0.489854 -0.048377
C39   C     C_R   0.043677 0.096066 0.522593 0.274885
C40   C     C_R   0.188554 0.919855 0.492893 0.272120
C41   C     C_R   0.995570 0.096488 0.580023 0.261750
C42   C     C_R   0.220678 0.918596 0.434335 0.265804
H7    H     H_    0.184985 0.027183 0.267940 0.223933
H8    H     H_    0.878296 0.977333 0.736115 0.232907
C43   C     C_R   0.492654 0.583735 0.834689 -0.523169
C44   C     C_R   0.507737 0.416355 0.165402 -0.522807
C45   C     C_R   0.616488 0.468364 0.838429 0.322823
C46   C     C_R   0.384662 0.531810 0.161542 0.323778
C47   C     C_R   0.586606 0.527116 0.808490 0.162391
C48   C     C_R   0.413304 0.472970 0.191460 0.162215
C49   C     C_R   0.448055 0.583542 0.892221 0.787467
C50   C     C_R   0.554182 0.416685 0.108020 0.785742
C51   C     C_R   0.506903 0.528737 0.925251 -0.098628
C52   C     C_R   0.495943 0.471472 0.074907 -0.098421
C53   C     C_R   0.565751 0.468026 0.896111 -0.381922
C54   C     C_R   0.436716 0.532184 0.103966 -0.381555
C55   C     C_R   0.500237 0.530888 0.985859 -0.118150
C56   C     C_R   0.503371 0.469301 0.014310 -0.118455
C57   C     C_R   0.505293 0.407915 0.980855 0.226274
C58   C     C_R   0.498904 0.592269 0.019317 0.227136
C59   C     C_R   0.555195 0.407598 0.923854 0.780532
C60   C     C_R   0.448301 0.592624 0.076278 0.779762
C61   C     C_R   0.671321 0.065525 0.110820 0.369480
C62   C     C_R   0.333222 0.935787 0.887905 0.392097
C63   C     C_R   0.531924 0.118124 0.116982 -0.536192
C64   C     C_R   0.468592 0.881889 0.882823 -0.536903
C65   C     C_R   0.382462 0.123714 0.076398 0.871788
C66   C     C_R   0.614611 0.875085 0.924239 0.874676
C67   C     C_R   0.370372 0.078013 0.028757 -0.237371
C68   C     C_R   0.632278 0.922618 0.970449 -0.233364
C69   C     C_R   0.508508 0.024315 0.022921 -0.017199
C70   C     C_R   0.495132 0.976672 0.976028 -0.031759
C71   C     C_R   0.659267 0.017914 0.064120 -0.195173
C72   C     C_R   0.344205 0.983039 0.934864 -0.206053
C73   C     C_R   0.221928 0.084044 0.987111 0.190028
C74   C     C_R   0.781265 0.916762 0.011943 0.196548
C75   C     C_R   0.209790 0.037190 0.941204 0.704705
C76   C     C_R   0.792919 0.963479 0.057972 0.688233
F1    F     F_    0.564476 0.347730 0.893697 -0.558850
F2    F     F_    0.439153 0.652467 0.106471 -0.560128
F3    F     F_    0.664153 0.364826 0.085851 -0.648965
F4    F     F_    0.339403 0.635594 0.914652 -0.647309
N1    N     N_R   0.347175 0.471179 0.248463 0.259379
O21   O     O_R   0.171089 0.490000 0.260456 -0.346550
O22   O     O_R   0.461548 0.450001 0.288436 -0.420961
N2    N     N_R   0.651218 0.528852 0.751332 0.259856
O23   O     O_R   0.827393 0.510468 0.739035 -0.344486
O24   O     O_R   0.535497 0.549719 0.711553 -0.420850
N3    N     N_R   0.703401 0.409922 0.810307 0.307912
O25   O     O_R   0.861952 0.383362 0.830734 -0.237769
O26   O     O_R   0.631850 0.385911 0.762346 -0.223903
N4    N     N_R   0.297688 0.590307 0.189559 0.307459
O27   O     O_R   0.139862 0.617080 0.168863 -0.240264
O28   O     O_R   0.368521 0.614208 0.237648 -0.228540
N5    N     N_R   0.431016 0.347435 0.001628 0.293615
O29   O     O_R   0.511185 0.289160 0.988171 -0.183060
O30   O     O_R   0.272271 0.349934 0.029951 -0.311938
N6    N     N_R   0.574638 0.652577 0.998599 0.293257
O31   O     O_R   0.732764 0.649598 0.969978 -0.312768
O32   O     O_R   0.496960 0.711121 0.012510 -0.186913
N7    N     N_R   0.820098 0.059336 0.153475 0.277765
O33   O     O_R   0.992678 0.079755 0.144546 -0.323586
O34   O     O_R   0.777597 0.040700 0.203372 -0.362013
N8    N     N_R   0.189218 0.943317 0.844081 0.275561
O35   O     O_R   0.238883 0.961708 0.794743 -0.375103
O36   O     O_R   0.014952 0.923184 0.851006 -0.322363
F5    F     F_    0.249838 0.174643 0.083893 -0.615258
F6    F     F_    0.734178 0.820006 0.919884 -0.608342
N9    N     N_R   0.083379 0.138743 0.989545 0.316151
O37   O     O_R   0.135705 0.198494 0.977902 -0.175546
O38   O     O_R   0.900605 0.126625 0.992223 -0.302909
N10   N     N_R   0.924826 0.863693 0.008196 0.312888
O39   O     O_R   0.057885 0.864573 0.970522 -0.311065
O40   O     O_R   0.943064 0.821750 0.048306 -0.179067
F7    F     F_    0.066386 0.046794 0.902162 -0.586865
F8    F     F_    0.938736 0.954651 0.096399 -0.595216
N11   N     N_R   0.339847 0.335139 0.424680 0.245371
O41   O     O_R   0.514435 0.355222 0.418631 -0.397171
O42   O     O_R   0.308325 0.271172 0.424014 -0.288828
N12   N     N_R   0.667701 0.668920 0.573172 0.243022
O43   O     O_R   0.705166 0.732187 0.570355 -0.274483
O44   O     O_R   0.491391 0.651335 0.580584 -0.388735
N13   N     N_R   0.981302 0.159522 0.611774 0.299129
O45   O     O_R   0.128973 0.181689 0.641343 -0.225029
O46   O     O_R   0.821810 0.195332 0.610250 -0.219482
N14   N     N_R   0.329717 0.863398 0.408927 0.299224
O47   O     O_R   0.516693 0.865800 0.407255 -0.270172
O48   O     O_R   0.242784 0.809609 0.389686 -0.209033
F9    F     F_    0.897044 0.136734 0.415841 -0.648452
F10   F     F_    0.984601 0.852572 0.575593 -0.640445
F11   F     F_    0.876405 0.093039 0.694965 -0.573702
F12   F     F_    0.270024 0.917572 0.314374 -0.579418
N15   N     N_R   0.122522 0.155830 0.502054 0.275068
O49   O     O_R   0.292790 0.152854 0.480034 -0.311378
O50   O     O_R   0.033571 0.213864 0.509329 -0.246699
N16   N     N_R   0.297870 0.873205 0.526292 0.275119
O51   O     O_R   0.402793 0.895305 0.569290 -0.363726
O52   O     O_R   0.302120 0.809200 0.512212 -0.223117

loop_
_geom_bond_atom_site_label_1
_geom_bond_atom_site_label_2
_geom_bond_distance
_ccdc_geom_bond_type
C51   C55   1.435728 A    
C55   C56   1.432021 A    
C33   C35   1.423933 A    
C69   C70   1.425227 A    
C42   N14   1.432037 S    
C25   C29   1.390093 A    
O13   V3    1.696526 S    
C17   C18   1.419263 A    
N15   O49   1.301260 A    
O4    C2    1.301679 A    
V1    O19   1.707801 S    
N6    O31   1.301716 A    
C61   C71   1.420869 A    
C53   C59   1.408044 A    
C15   C17   1.416559 A    
C57   N5    1.440047 S    
C16   C22   1.409516 A    
C73   C75   1.397520 A    
O9    V1    1.977060 S    
C43   C47   1.410062 A    
C66   F6    1.358904 S    
C34   C38   1.439044 A    
O16   C6    1.294523 A    
N14   O47   1.300847 A    
C11   C13   1.420873 A    
C52   C54   1.416017 A    
O3    C1    1.301897 A    
C40   N16   1.441350 S    
C75   F7    1.358306 S    
C46   C48   1.410292 A    
C27   C29   1.391056 A    
C21   H3    1.081184 S    
C28   C30   1.390662 A    
C41   N13   1.432061 S    
C22   H4    1.081391 S    
C30   H7    1.084211 S    
C2    C44   1.481134 S    
N2    O23   1.301383 A    
C31   C33   1.430105 A    
C39   C41   1.408021 A    
O7    C3    1.299146 A    
C61   C63   1.410971 A    
C32   C34   1.434564 A    
C65   C67   1.414189 A    
O5    C7    1.299087 A    
N14   O48   1.300859 A    
C28   C36   1.418067 A    
C36   C42   1.414688 A    
N11   O41   1.299721 A    
C8    C11   1.491758 S    
O8    V2    1.999827 S    
C38   C39   1.419999 A    
C64   C66   1.401749 A    
O3    V1    1.978724 S    
C71   C76   1.411746 A    
O14   V4    1.696526 S    
C57   C59   1.401591 A    
C19   C24   1.401199 A    
C10   C12   1.403864 A    
C20   C23   1.400423 A    
C15   C21   1.409754 A    
C46   C54   1.419668 A    
C45   C47   1.409979 A    
C62   C72   1.420557 A    
C2    O12   1.291983 A    
C47   N2    1.438910 S    
N16   O52   1.301671 A    
C17   C19   1.408724 A    
C18   C20   1.408839 A    
C46   N4    1.436118 S    
C65   F5    1.358758 S    
C49   C51   1.423192 A    
O7    V1    1.999826 S    
O11   V3    1.986905 S    
C22   C24   1.396756 A    
C21   C23   1.395692 A    
O17   V3    2.000560 S    
C67   C73   1.415697 A    
C33   C37   1.438394 A    
C10   H2    1.082965 S    
N10   O39   1.300465 A    
C3    C64   1.486392 S    
C37   C38   1.426727 A    
C9    C19   1.400773 A    
C44   C48   1.410151 A    
C10   C20   1.399546 A    
O8    C4    1.299466 A    
C31   F10   1.357005 S    
C44   C50   1.404822 A    
C43   C49   1.404950 A    
C1    C43   1.481006 S    
C1    O11   1.291688 A    
N7    O34   1.300904 A    
C35   C41   1.413174 A    
O15   V3    1.996275 S    
C26   C30   1.391924 A    
C34   C36   1.423520 A    
C24   H6    1.083929 S    
N12   O44   1.300219 A    
C73   N9    1.433468 S    
C58   C60   1.401930 A    
C48   N1    1.439074 S    
C49   F4    1.358169 S    
N3    O25   1.301383 A    
O10   V2    1.977061 S    
C68   C70   1.420773 A    
C27   F11   1.357170 S    
C13   N11   1.434781 S    
C62   C64   1.409707 A    
C29   H8    1.083826 S    
N3    O26   1.301266 A    
C67   C69   1.420479 A    
O18   V4    2.000559 S    
C50   C52   1.423005 A    
O15   C5    1.296412 A    
N16   O51   1.301745 A    
C26   C32   1.408659 A    
N13   O46   1.300872 A    
N4    O28   1.301259 A    
N7    O33   1.300956 A    
C28   F12   1.357141 S    
C4    C63   1.488372 S    
N10   O40   1.300935 A    
N1    O21   1.301312 A    
V2    O20   1.707801 S    
C74   N10   1.433705 S    
O16   V4    1.996273 S    
C51   C53   1.416125 A    
N12   O43   1.301013 A    
C68   C74   1.415554 A    
C39   N15   1.438271 S    
C27   C35   1.418819 A    
C16   C18   1.416837 A    
C45   N3    1.436162 S    
N6    O32   1.301760 A    
N8    O36   1.301228 A    
N9    O37   1.300996 A    
C63   C65   1.402817 A    
C5    C25   1.477787 S    
N8    O35   1.300710 A    
O5    V1    1.995811 S    
C7    C12   1.489950 S    
C6    C26   1.483407 S    
O6    V2    1.995810 S    
O10   C6    1.300789 A    
O18   C8    1.297849 A    
C62   N8    1.433781 S    
C70   C72   1.420927 A    
O2    V4    1.997040 S    
C37   C40   1.421974 A    
C50   F3    1.358138 S    
C59   F1    1.358751 S    
C12   C14   1.419865 A    
N13   O45   1.300814 A    
V3    O19   2.139425 S    
C76   F8    1.358305 S    
C54   C60   1.408242 A    
C14   C16   1.420180 A    
N9    O38   1.300957 A    
C9    C11   1.404361 A    
C60   F2    1.358711 S    
O1    V3    1.997041 S    
N5    O29   1.301758 A    
C52   C56   1.435733 A    
C74   C76   1.397749 A    
C23   H5    1.083972 S    
C25   C31   1.406166 A    
O9    C5    1.296269 A    
O13   V1    2.155691 S    
N2    O24   1.300835 A    
O14   V2    2.155692 S    
V4    O20   2.139424 S    
N11   O42   1.299672 A    
O2    C4    1.298269 A    
C66   C68   1.414163 A    
C45   C53   1.419554 A    
O4    V2    1.978723 S    
O6    C8    1.300345 A    
C13   C15   1.419750 A    
O1    C3    1.297490 A    
C56   C57   1.422032 A    
C9    H1    1.082964 S    
C69   C71   1.420720 A    
C55   C58   1.421981 A    
N5    O30   1.301699 A    
C58   N6    1.440545 S    
C32   F9    1.356921 S    
N15   O50   1.301608 A    
C40   C42   1.408917 A    
N4    O27   1.301372 A    
C61   N7    1.434090 S    
O12   V4    1.986905 S    
C14   N12   1.434861 S    
C72   C75   1.411289 A    
N1    O22   1.300818 A    
O17   C7    1.298261 A    
