data_mof_unit_pretest_292.cif
_audit_creation_date              2012-12-11T17:36:10-0500
_audit_creation_method            fapswitch 2.2
_symmetry_space_group_name_H-M    P1
_symmetry_Int_Tables_number       1
_space_group_crystal_system       triclinic
_cell_length_a                    25.784705
_cell_length_b                    6.900763
_cell_length_c                    21.732702
_cell_angle_alpha                 90.005781
_cell_angle_beta                  96.332567
_cell_angle_gamma                 90.006555
_cell_volume                      3843.39481195

loop_
_atom_site_label
_atom_site_type_symbol
_atom_type_description
_atom_site_fract_x
_atom_site_fract_y
_atom_site_fract_z
_atom_type_partial_charge
O1    O     O_R   0.208650 0.594520 0.175450 -0.539834
O2    O     O_R   0.791350 0.405480 0.824550 -0.538755
O3    O     O_R   0.291350 0.094520 0.324550 -0.539825
O4    O     O_R   0.708650 0.905480 0.675450 -0.538744
O5    O     O_R   0.192980 0.260780 0.300160 -0.508212
O6    O     O_R   0.807020 0.739220 0.699840 -0.508131
O7    O     O_R   0.307020 0.760780 0.199840 -0.508204
O8    O     O_R   0.692980 0.239220 0.800160 -0.508141
C1    C     C_R   0.178636 0.432584 0.318248 0.738163
C2    C     C_R   0.821340 0.567425 0.681717 0.737412
C3    C     C_R   0.321364 0.932587 0.181753 0.738116
C4    C     C_R   0.678660 0.067421 0.818281 0.737363
O9    O     O_R   0.202550 0.264660 0.174420 -0.538140
O10   O     O_R   0.797450 0.735340 0.825580 -0.539280
O11   O     O_R   0.297450 0.764660 0.325580 -0.538133
O12   O     O_R   0.702550 0.235340 0.674420 -0.539294
O13   O     O_R   0.300990 0.096480 0.197920 -0.546025
O14   O     O_R   0.699010 0.903520 0.802080 -0.545703
O15   O     O_R   0.199010 0.596480 0.302080 -0.546007
O16   O     O_R   0.800990 0.403520 0.697920 -0.545694
C5    C     C_R   0.190918 0.433092 0.151080 0.692283
C6    C     C_R   0.809198 0.566449 0.848805 0.692138
C7    C     C_R   0.309083 0.933132 0.348915 0.692287
C8    C     C_R   0.690804 0.066409 0.651197 0.692112
O17   O     O_3   0.282290 0.427760 0.257860 -0.360622
O18   O     O_3   0.717710 0.572240 0.742140 -0.360259
O19   O     O_3   0.217710 0.927760 0.242140 -0.360622
O20   O     O_3   0.782290 0.072240 0.757860 -0.360233
V1    V     V_3+5 0.244010 0.152080 0.248540 1.484341
V2    V     V_3+5 0.755990 0.847920 0.751460 1.487777
V3    V     V_3+5 0.255990 0.652080 0.251460 1.484362
V4    V     V_3+5 0.744010 0.347920 0.748540 1.487713
C9    C     C_R   0.657425 0.057223 0.591582 -0.057121
C10   C     C_R   0.343035 0.935124 0.408231 -0.058035
C11   C     C_R   0.842571 0.557486 0.908431 -0.057243
C12   C     C_R   0.156950 0.434873 0.091769 -0.058208
C13   C     C_R   0.648860 0.081983 0.480014 -0.136414
C14   C     C_R   0.355417 0.839568 0.515851 -0.135967
C15   C     C_R   0.851245 0.584951 0.019940 -0.136526
C16   C     C_R   0.144386 0.337061 0.984353 -0.136033
C17   C     C_R   0.679353 0.094122 0.536887 -0.157032
C18   C     C_R   0.322750 0.868750 0.461307 -0.152626
C19   C     C_R   0.820735 0.596257 0.963063 -0.157005
C20   C     C_R   0.177120 0.366970 0.038802 -0.152440
C21   C     C_R   0.604183 0.009214 0.588923 -0.207308
C22   C     C_R   0.396891 0.972509 0.410328 -0.210431
C23   C     C_R   0.895750 0.508489 0.911155 -0.207145
C24   C     C_R   0.103137 0.473131 0.089645 -0.210447
C25   C     C_R   0.572876 0.984146 0.531178 0.082448
C26   C     C_R   0.431863 0.926332 0.463872 0.083961
C27   C     C_R   0.927073 0.484409 0.968934 0.082430
C28   C     C_R   0.068076 0.426232 0.036234 0.084000
C29   C     C_R   0.596049 0.028555 0.476699 0.061333
C30   C     C_R   0.409536 0.866194 0.517513 0.062238
C31   C     C_R   0.903991 0.530645 0.023332 0.061318
C32   C     C_R   0.090299 0.364449 0.982697 0.062246
C33   C     C_R   0.519020 0.924902 0.525617 -0.085648
C34   C     C_R   0.487822 0.941199 0.466702 -0.086122
C35   C     C_R   0.980873 0.424497 0.974585 -0.085623
C36   C     C_R   0.012132 0.441859 0.033430 -0.086059
C37   C     C_R   0.514423 0.964187 0.413002 0.348144
C38   C     C_R   0.495201 0.843857 0.575903 0.350228
C39   C     C_R   0.985595 0.466643 0.087105 0.348132
C40   C     C_R   0.004574 0.341818 0.924464 0.350207
C41   C     C_R   0.567004 0.014229 0.418896 -0.182178
C42   C     C_R   0.441292 0.823678 0.571907 -0.180236
C43   C     C_R   0.933063 0.517359 0.081144 -0.182248
C44   C     C_R   0.058461 0.321008 0.928438 -0.180224
H1    H     H_    0.585851 0.035669 0.377191 0.149859
H2    H     H_    0.424215 0.765424 0.611432 0.149640
H3    H     H_    0.914274 0.540208 0.122820 0.149862
H4    H     H_    0.075451 0.261502 0.889029 0.149637
H5    H     H_    0.410354 0.035474 0.369541 0.156294
H6    H     H_    0.587912 0.998364 0.632445 0.156201
H7    H     H_    0.089774 0.537212 0.130321 0.156389
H8    H     H_    0.911979 0.496273 0.867641 0.156225
H9    H     H_    0.281501 0.836875 0.460226 0.103840
H10   H     H_    0.720215 0.132549 0.538262 0.104841
H11   H     H_    0.218328 0.334373 0.039911 0.103868
H12   H     H_    0.779931 0.635562 0.961633 0.104898
H13   H     H_    0.666796 0.113062 0.438285 0.118689
H14   H     H_    0.338450 0.789514 0.556465 0.117994
H15   H     H_    0.833380 0.617479 0.061614 0.118704
H16   H     H_    0.161269 0.285762 0.943829 0.117987
C45   C     C_R   0.437093 0.806810 0.091832 -0.288365
C46   C     C_R   0.563087 0.193319 0.908451 -0.291129
C47   C     C_R   0.062904 0.306785 0.408168 -0.288360
C48   C     C_R   0.936912 0.693347 0.591543 -0.291181
H17   H     H_    0.463423 0.687264 0.086185 0.161424
H18   H     H_    0.536787 0.312912 0.914164 0.161717
H19   H     H_    0.036573 0.187224 0.413815 0.161419
H20   H     H_    0.963213 0.812954 0.585828 0.161715
C49   C     C_R   0.398044 0.787769 0.132380 0.353793
C50   C     C_R   0.602089 0.212354 0.867842 0.350148
C51   C     C_R   0.101954 0.287743 0.367622 0.353672
C52   C     C_R   0.897910 0.712382 0.632152 0.350104
C53   C     C_R   0.363725 0.944351 0.139736 -0.109930
C54   C     C_R   0.636355 0.055685 0.860379 -0.110082
C55   C     C_R   0.136275 0.444343 0.360265 -0.109896
C56   C     C_R   0.863644 0.555693 0.639618 -0.110138
C57   C     C_R   0.369871 0.116468 0.106244 -0.331143
C58   C     C_R   0.630225 0.883536 0.893862 -0.329090
C59   C     C_R   0.130131 0.616479 0.393755 -0.331045
C60   C     C_R   0.869771 0.383525 0.606136 -0.329062
H21   H     H_    0.343864 0.237488 0.111038 0.154442
H22   H     H_    0.656200 0.762466 0.889002 0.154511
H23   H     H_    0.156139 0.737515 0.388961 0.154429
H24   H     H_    0.843795 0.262440 0.610997 0.154522
C61   C     C_R   0.408899 0.134549 0.065818 0.378306
C62   C     C_R   0.591251 0.865480 0.934361 0.378262
C63   C     C_R   0.091102 0.634561 0.434180 0.378293
C64   C     C_R   0.908745 0.365469 0.565636 0.378236
C65   C     C_R   0.442633 0.978439 0.058718 0.047202
C66   C     C_R   0.557549 0.021635 0.941536 0.047493
C67   C     C_R   0.057366 0.478433 0.441280 0.047223
C68   C     C_R   0.942448 0.521641 0.558460 0.047487
C69   C     C_1   0.483205 0.993482 0.017396 0.064034
C70   C     C_1   0.516997 0.006565 0.982884 0.063921
C71   C     C_1   0.016793 0.493480 0.482601 0.064014
C72   C     C_1   0.983000 0.506567 0.517112 0.063905
O21   O     O_3   0.492559 0.917688 0.354197 -0.644034
H25   H     H_    0.470454 0.801400 0.357647 0.292644
O22   O     O_3   0.523088 0.761316 0.626941 -0.643472
H26   H     H_    0.553866 0.696112 0.612615 0.291678
O23   O     O_3   0.007457 0.421330 0.146005 -0.644089
H27   H     H_    0.029435 0.304580 0.142813 0.292610
O24   O     O_3   0.976574 0.258335 0.873660 -0.643456
H28   H     H_    0.945748 0.193999 0.888184 0.291691
O25   O     O_3   0.393584 0.619275 0.165712 -0.638377
H29   H     H_    0.420783 0.526252 0.155829 0.295587
O26   O     O_3   0.606550 0.380929 0.834550 -0.637250
H30   H     H_    0.579381 0.473986 0.844493 0.297009
O27   O     O_3   0.106413 0.119229 0.334290 -0.638413
H31   H     H_    0.079214 0.026193 0.344174 0.295592
O28   O     O_3   0.893450 0.880978 0.665443 -0.637220
H32   H     H_    0.920620 0.974048 0.655498 0.297008
O29   O     O_3   0.414613 0.302805 0.032782 -0.646311
H33   H     H_    0.387665 0.397290 0.042363 0.289767
O30   O     O_3   0.585556 0.697203 0.967395 -0.646204
H34   H     H_    0.612499 0.602730 0.957786 0.289831
O31   O     O_3   0.085390 0.802836 0.467216 -0.646323
H35   H     H_    0.112340 0.897332 0.457634 0.289758
O32   O     O_3   0.914436 0.197174 0.532603 -0.646209
H36   H     H_    0.887493 0.102690 0.542212 0.289824

loop_
_geom_bond_atom_site_label_1
_geom_bond_atom_site_label_2
_ccdc_geom_bond_type
O17   V3    S    
C55   C59   A    
C48   C52   A    
O1    C5    A    
C47   H19   S    
O19   V1    S    
C9    C21   A    
C16   H16   S    
O3    C7    A    
C10   C18   A    
C56   C60   A    
O15   V3    S    
C25   C33   A    
O28   H32   S    
C5    C12   S    
C42   H2    S    
O7    C3    A    
C6    C11   S    
C35   C40   A    
C26   C30   A    
C36   C39   A    
C40   C44   A    
C64   O32   S    
C61   O29   S    
C62   O30   S    
C23   H8    S    
C14   C18   A    
O4    C8    A    
C51   C55   A    
C44   H4    S    
C64   C68   A    
C50   C54   A    
C57   C61   A    
O32   H36   S    
O1    V3    S    
O13   V1    S    
C59   C63   A    
O3    V1    S    
C46   C50   A    
C45   C49   A    
C1    O15   A    
C15   C31   A    
C48   H20   S    
C2    O16   A    
C16   C32   A    
C47   C51   A    
O2    C6    A    
C43   H3    S    
C58   H22   S    
C10   C22   A    
C21   C25   A    
C11   C19   A    
C62   C66   A    
C16   C20   A    
C47   C67   A    
C61   C65   A    
C13   C29   A    
C7    C10   S    
C34   C37   A    
O11   C7    A    
C11   C23   A    
C35   C36   A    
O12   C8    A    
C14   H14   S    
C57   H21   S    
C24   H7    S    
C13   H13   S    
O10   V2    S    
C49   O25   S    
C38   O22   S    
C52   O28   S    
O5    V1    S    
O17   V1    S    
C39   C43   A    
O7    V3    S    
C38   C42   A    
O19   V3    S    
C26   C34   A    
O22   H26   S    
C46   H18   S    
C17   H10   S    
C60   C64   A    
C45   H17   S    
O18   V4    S    
C15   C19   A    
C33   C38   A    
C19   H12   S    
C54   C58   A    
C68   C72   S    
C21   H6    S    
O8    V4    S    
C48   C68   A    
C2    C56   S    
O5    C1    A    
C1    C55   S    
C31   C43   A    
C14   C30   A    
O20   V4    S    
O8    C4    A    
C40   O24   S    
O9    C5    A    
C66   C70   S    
C71   C72   T    
O2    V4    S    
O21   H25   S    
C39   O23   S    
C65   C69   S    
O6    V2    S    
O18   V2    S    
C67   C71   S    
O27   H31   S    
C12   C20   A    
C27   C35   A    
O26   H30   S    
C49   C53   A    
C60   H24   S    
C29   C41   A    
C59   H23   S    
O25   H29   S    
O16   V4    S    
O9    V1    S    
C3    O13   A    
C4    C54   S    
C20   H11   S    
C8    C9    S    
C37   O21   S    
O6    C2    A    
C23   C27   A    
O30   H34   S    
O11   V3    S    
C30   C42   A    
O12   V4    S    
O29   H33   S    
C22   C26   A    
C50   O26   S    
C46   C66   A    
C3    C53   S    
C9    C17   A    
O10   C6    A    
C45   C65   A    
C15   H15   S    
C32   C44   A    
C69   C70   T    
C33   C34   A    
O23   H27   S    
C28   C32   A    
C41   H1    S    
C52   C56   A    
O20   V2    S    
C12   C24   A    
C51   O27   S    
C27   C31   A    
C13   C17   A    
C53   C57   A    
C25   C29   A    
C58   C62   A    
C63   O31   S    
O14   V2    S    
C37   C41   A    
C24   C28   A    
C18   H9    S    
C28   C36   A    
C4    O14   A    
C63   C67   A    
O31   H35   S    
C22   H5    S    
O4    V2    S    
O24   H28   S    
