data_mof_unit_pretest_361.cif
_audit_creation_date              2012-12-10T17:31:10-0500
_audit_creation_method            fapswitch 2.2
_symmetry_space_group_name_H-M    P1
_symmetry_Int_Tables_number       1
_space_group_crystal_system       triclinic
_cell_length_a                    11.99329
_cell_length_b                    12.790532
_cell_length_c                    15.205213
_cell_angle_alpha                 86.616908
_cell_angle_beta                  114.858537
_cell_angle_gamma                 94.77838
_cell_volume                      2108.28115

loop_
_atom_site_label
_atom_site_type_symbol
_atom_type_description
_atom_site_fract_x
_atom_site_fract_y
_atom_site_fract_z
_atom_type_partial_charge
C1    C     C_R   0.475831 0.299642 0.498464 0.912020
C2    C     C_R   0.524021 0.700396 0.501161 0.932341
C3    C     C_R   0.676861 0.589287 0.122537 0.392131
C4    C     C_R   0.406342 0.653670 0.900545 0.378153
C5    C     C_R   0.763073 0.570604 0.085059 0.443115
C6    C     C_R   0.317908 0.665895 0.937552 0.439164
C7    C     C_R   0.543172 0.812041 0.504866 -0.214151
C8    C     C_R   0.456578 0.188075 0.494074 -0.211793
C9    C     C_R   0.354513 0.038171 0.397085 -0.257377
C10   C     C_R   0.645959 0.962331 0.601005 -0.244895
C11   C     C_R   0.357240 0.144274 0.413994 0.358495
C12   C     C_R   0.643266 0.856216 0.584230 0.366406
C13   C     C_R   0.549238 0.127068 0.560586 0.345631
C14   C     C_R   0.450364 0.872946 0.438268 0.344783
C15   C     C_R   0.549050 0.022554 0.540307 0.008485
C16   C     C_R   0.451040 0.977727 0.458079 0.013019
C17   C     C_R   0.012697 0.609042 0.418635 -0.299179
C18   C     C_R   0.988190 0.392180 0.582772 -0.313594
C19   C     C_R   0.131466 0.597158 0.425441 0.048399
C20   C     C_R   0.868975 0.403448 0.575253 0.037566
C21   C     C_R   0.155660 0.451942 0.534789 0.032189
C22   C     C_R   0.844473 0.548462 0.465582 0.050713
C23   C     C_R   0.575683 0.495081 0.681304 0.917110
C24   C     C_R   0.424801 0.506964 0.318888 0.915539
C25   C     C_R   0.036472 0.460625 0.529995 0.072658
C26   C     C_R   0.963988 0.540181 0.470838 0.085115
C27   C     C_R   0.625096 0.505443 0.786875 -0.224925
C28   C     C_R   0.384409 0.533344 0.215397 -0.240201
C29   C     C_R   0.800260 0.523249 0.944221 0.543136
C30   C     C_R   0.250765 0.629078 0.070802 0.538184
C31   C     C_R   0.751903 0.505251 0.844280 -0.387067
C32   C     C_R   0.276752 0.585600 0.164089 -0.389276
C33   C     C_R   0.545707 0.523033 0.829789 0.491080
C34   C     C_R   0.465575 0.522333 0.172815 0.481740
C35   C     C_R   0.594663 0.563958 0.923289 -0.189090
C36   C     C_R   0.453619 0.582807 0.089617 -0.190441
C37   C     C_R   0.720873 0.552852 0.984886 -0.084099
C38   C     C_R   0.339369 0.626309 0.031866 -0.094441
C39   C     C_R   0.516925 0.604499 0.959556 -0.132003
C40   C     C_R   0.549669 0.592367 0.058694 -0.117059
H1    H     H_    0.831995 0.350440 0.615942 0.157825
H2    H     H_    0.168491 0.650266 0.384844 0.160176
H3    H     H_    0.959529 0.671420 0.372902 0.179414
H4    H     H_    0.041939 0.330496 0.629296 0.148121
H5    H     H_    0.213820 0.594182 0.197166 0.209954
H6    H     H_    0.813322 0.488879 0.811814 0.192479
H7    H     H_    0.278752 0.004178 0.334641 0.207103
H8    H     H_    0.722054 0.996526 0.663119 0.206956
H9    H     H_    0.787423 0.609091 0.420432 0.147623
H10   H     H_    0.212384 0.391224 0.579818 0.120900
N1    N     N_R   0.799120 0.480200 0.517090 -0.107469
N2    N     N_R   0.200880 0.519800 0.482910 -0.098291
O1    O     O_R   0.580150 0.341050 0.504560 -0.623924
O2    O     O_R   0.419850 0.658950 0.495440 -0.612790
O3    O     O_R   0.388090 0.353760 0.493600 -0.584206
O4    O     O_R   0.611910 0.646240 0.506400 -0.583451
O5    O     O_R   0.650890 0.490020 0.640860 -0.614201
O6    O     O_R   0.349110 0.509980 0.359140 -0.609906
O7    O     O_R   0.458830 0.502730 0.629890 -0.564813
O8    O     O_R   0.541170 0.497270 0.370110 -0.571798
Zn1   Zn    Zn3+2 0.628240 0.491510 0.507320 0.988205
Zn2   Zn    Zn3+2 0.371760 0.508490 0.492680 1.000668
O9    O     O_3   0.887372 0.567137 0.144658 -0.703504
H11   H     H_    0.902256 0.573769 0.213199 0.368068
O10   O     O_3   0.209369 0.713154 0.882375 -0.680421
H12   H     H_    0.204467 0.732942 0.817026 0.378953
O11   O     O_3   0.559440 0.454274 0.214661 -0.588885
C41   C     C_3   0.523015 0.357026 0.167461 0.082384
H13   H     H_    0.607127 0.324437 0.169528 0.176765
H14   H     H_    0.458451 0.364169 0.089184 0.108289
C42   C     C_3   0.466845 0.280023 0.221270 -0.344733
H15   H     H_    0.531583 0.274562 0.299146 0.247858
H16   H     H_    0.379404 0.308858 0.216073 0.228149
C43   C     C_3   0.440077 0.170930 0.178664 -0.913870
H17   H     H_    0.374328 0.174350 0.101031 0.263619
H18   H     H_    0.398681 0.117445 0.218671 0.277994
H19   H     H_    0.526566 0.138780 0.185268 0.265359
O12   O     O_3   0.419870 0.500283 0.779560 -0.586900
C44   C     C_3   0.383261 0.406480 0.817548 0.094333
H20   H     H_    0.281412 0.403734 0.790457 0.169638
H21   H     H_    0.420640 0.405088 0.898198 0.119522
C45   C     C_3   0.418288 0.308788 0.783123 -0.418571
H22   H     H_    0.386210 0.313120 0.703140 0.231379
H23   H     H_    0.519998 0.305049 0.816540 0.213052
C46   C     C_3   0.361365 0.208553 0.811204 -0.902604
H24   H     H_    0.393275 0.202001 0.891190 0.261935
H25   H     H_    0.389592 0.139405 0.786548 0.278325
H26   H     H_    0.259275 0.208430 0.776292 0.259778
O13   O     O_3   0.923881 0.513130 0.001946 -0.696115
H27   H     H_    0.964784 0.491142 0.961944 0.337706
O14   O     O_3   0.142531 0.677880 0.019371 -0.672442
H28   H     H_    0.094521 0.676548 0.058982 0.366191
O15   O     O_3   0.720514 0.612640 0.219428 -0.779491
H29   H     H_    0.660381 0.654478 0.228480 0.341282
O16   O     O_3   0.386502 0.697137 0.810120 -0.739986
H30   H     H_    0.466928 0.711974 0.806534 0.354194
O17   O     O_3   0.356487 0.831381 0.355508 -0.771043
H31   H     H_    0.383158 0.767604 0.337858 0.321877
O18   O     O_3   0.642463 0.168318 0.643844 -0.774572
H32   H     H_    0.615019 0.231454 0.661846 0.318513
O19   O     O_3   0.732963 0.793042 0.647134 -0.733201
H33   H     H_    0.795564 0.836353 0.699425 0.344684
O20   O     O_3   0.268273 0.207764 0.350691 -0.747064
H34   H     H_    0.206838 0.164903 0.297383 0.337403

loop_
_geom_bond_atom_site_label_1
_geom_bond_atom_site_label_2
_ccdc_geom_bond_type
O6    Zn2   S    
O15   H29   S    
C5    C37   A    
C1    C8    S    
C32   H5    S    
O16   H30   S    
N1    Zn1   S    
C29   O13   S    
C20   H1    S    
C46   H24   S    
C27   C33   A    
C23   O7    A    
C30   C38   A    
C8    C13   A    
C43   H18   S    
C17   C26   A    
C35   C37   A    
C9    C16   A    
C20   N1    A    
C10   C15   A    
C41   C42   S    
C33   O12   S    
C15   C16   A    
O3    Zn2   S    
C5    O9    S    
C1    O1    A    
C17   C19   A    
O1    Zn1   S    
C19   N2    A    
C7    C14   A    
C2    C7    S    
C41   H13   S    
C31   H6    S    
C6    C38   A    
C23   C27   S    
N2    Zn2   S    
C34   C36   A    
C19   H2    S    
C28   C34   A    
C18   C25   A    
C21   H10   S    
C6    O10   S    
O17   H31   S    
C46   H25   S    
C7    C12   A    
C43   H17   S    
C27   C31   A    
O11   C41   S    
O19   H33   S    
C36   C40   A    
C4    C6    A    
C2    O2    A    
C39   C40   A    
C44   H21   S    
O12   C44   S    
O2    Zn2   S    
C25   C26   A    
C43   H19   S    
C44   H20   S    
O8    Zn1   S    
C13   O18   S    
C35   C39   A    
C17   H3    S    
C18   H4    S    
C42   C43   S    
C4    O16   S    
O18   H32   S    
C4    C39   A    
C28   C32   A    
C24   O8    A    
C3    O15   S    
C9    C11   A    
C10   C12   A    
C22   H9    S    
C24   O6    A    
C3    C40   A    
C9    H7    S    
C45   H23   S    
C13   C15   A    
C10   H8    S    
C14   C16   A    
O14   H28   S    
C14   O17   S    
C42   H16   S    
C46   H26   S    
C23   O5    A    
C21   C25   A    
O7    Zn2   S    
C24   C28   S    
C30   O14   S    
C3    C5    A    
C34   O11   S    
C44   C45   S    
O5    Zn1   S    
C45   C46   S    
C36   C38   A    
C1    O3    A    
C12   O19   S    
C29   C31   A    
C2    O4    A    
C30   C32   A    
C8    C11   A    
C33   C35   A    
C18   C20   A    
O9    H11   S    
C42   H15   S    
C41   H14   S    
O10   H12   S    
C22   C26   A    
C29   C37   A    
O20   H34   S    
O4    Zn1   S    
C11   O20   S    
C45   H22   S    
O13   H27   S    
C21   N2    A    
C22   N1    A    
