data_mof_unit_pretest_601.cif
_audit_creation_date              2013-03-05T15:53:06-0500
_audit_creation_method            fapswitch 2.2
_symmetry_space_group_name_H-M    P1
_symmetry_Int_Tables_number       1
_space_group_crystal_system       triclinic
_cell_length_a                    9.988747
_cell_length_b                    10.714737
_cell_length_c                    15.50191
_cell_angle_alpha                 93.775648
_cell_angle_beta                  68.676363
_cell_angle_gamma                 90.08975
_cell_volume                      1541.73703534

loop_
_atom_site_label
_atom_site_type_symbol
_atom_site_description
_atom_site_fract_x
_atom_site_fract_y
_atom_site_fract_z
_atom_type_partial_charge
O1    O     O_R   0.385310 0.683220 0.500000 -0.620256
O2    O     O_R   0.614640 0.683250 0.500010 -0.608377
C1    C     C_R   0.506024 0.737875 0.487873 0.948968
O3    O     O_R   0.319840 0.499980 0.632240 -0.572964
O4    O     O_R   0.549160 0.500000 0.632250 -0.628795
C2    C     C_R   0.411502 0.492159 0.674925 0.931340
Zn1   Zn    Zn3+2 0.346880 0.499980 0.499990 1.022522
Zn2   Zn    Zn3+2 0.653120 0.500020 0.500010 1.022233
O5    O     O_R   0.385360 0.316750 0.499990 -0.582122
O6    O     O_R   0.614690 0.316780 0.500000 -0.614770
O7    O     O_R   0.450840 0.500000 0.367750 -0.624525
O8    O     O_R   0.680160 0.500020 0.367760 -0.562995
C3    C     C_R   0.496832 0.260467 0.505909 0.896053
C4    C     C_R   0.589225 0.503372 0.324557 0.885447
C5    C     C_R   0.360153 0.475455 0.774855 -0.148021
C6    C     C_R   0.634703 0.532037 0.226976 -0.056681
C7    C     C_R   0.170192 0.419441 0.916253 0.328156
C8    C     C_R   0.222198 0.432245 0.820626 -0.194676
C9    C     C_R   0.450807 0.497302 0.824982 0.102620
C10   C     C_R   0.390166 0.515127 0.921748 -0.013452
C11   C     C_R   0.254341 0.461670 0.969219 -0.132192
C12   C     C_R   0.471587 0.570072 0.971433 0.110695
C13   C     C_R   0.438890 0.542190 0.063551 0.009472
C14   C     C_R   0.304512 0.491515 0.111398 -0.242629
C15   C     C_R   0.213235 0.449352 0.066024 0.328750
C16   C     C_R   0.585012 0.652265 0.931451 -0.144184
C17   C     C_R   0.678410 0.687947 0.976628 -0.155836
C18   C     C_R   0.662513 0.639420 0.061194 0.160079
C19   C     C_R   0.543629 0.563800 0.104054 0.105407
C20   C     C_R   0.764602 0.662735 0.102861 -0.114642
C21   C     C_R   0.750768 0.608936 0.185490 -0.054843
C22   C     C_R   0.537196 0.505436 0.183211 -0.200560
H1    H     H_    0.454758 0.439019 0.213083 0.203460
H2    H     H_    0.828717 0.629334 0.217362 0.224705
H3    H     H_    0.766869 0.748174 0.943274 0.175389
H4    H     H_    0.155723 0.403656 0.781353 0.214804
H5    H     H_    0.267774 0.485794 0.185283 0.213108
H6    H     H_    0.603137 0.687363 0.864256 0.166292
H7    H     H_    0.855493 0.721317 0.071162 0.164344
C23   C     C_R   0.262891 0.886338 0.468683 -0.132681
H8    H     H_    0.272707 0.800785 0.425485 0.168835
C24   C     C_R   0.129694 0.948102 0.503868 -0.124559
H9    H     H_    0.039602 0.906211 0.491606 0.212176
C25   C     C_R   0.110850 0.057951 0.560382 0.227356
C26   C     C_R   0.230194 0.114286 0.571390 -0.091511
H10   H     H_    0.214150 0.201883 0.613156 0.155241
C27   C     C_R   0.369043 0.060105 0.524553 0.080107
C28   C     C_R   0.381052 0.936782 0.487354 0.092344
C29   C     C_R   0.511611 0.869775 0.469302 -0.245259
C30   C     C_R   0.640325 0.935191 0.451835 0.292371
H11   H     H_    0.728927 0.115579 0.454199 0.226566
C31   C     C_R   0.630663 0.063524 0.471579 -0.218465
C32   C     C_R   0.496770 0.126099 0.508016 -0.168287
H12   H     H_    0.929019 0.349212 0.401074 0.200868
C33   C     C_R   0.792026 0.680718 0.608264 -0.070488
H13   H     H_    0.681135 0.675017 0.619863 0.212610
C34   C     C_R   0.827062 0.782522 0.653479 -0.273850
H14   H     H_    0.746140 0.853229 0.691745 0.198888
C35   C     C_R   0.961289 0.787346 0.657651 -0.210858
H15   H     H_    0.980954 0.861026 0.702691 0.208630
C36   C     C_R   0.061710 0.688900 0.618866 0.367213
C37   C     C_R   0.037971 0.590578 0.557269 -0.052495
C38   C     C_R   0.895163 0.589852 0.554338 0.161705
N1    N     N_R   0.856800 0.501200 0.500850 -0.133009
C39   C     C_R   0.958430 0.417180 0.445518 -0.073483
C40   C     C_R   0.101443 0.417376 0.443983 0.340484
N2    N     N_R   0.142390 0.501280 0.500880 -0.182056
N3    N     N_R   0.090203 0.380800 0.118024 0.251568
O9    O     O_R   0.087072 0.261267 0.097871 -0.291603
O10   O     O_R   0.003764 0.428030 0.198489 -0.378902
N4    N     N_R   0.780078 0.876056 0.405308 0.223303
O11   O     O_R   0.895401 0.937465 0.398620 -0.392697
O12   O     O_R   0.794233 0.774792 0.351606 -0.413072
I1    I     I_    0.905552 0.144122 0.620322 -0.294372
N5    N     N_R   0.149080 0.674667 0.671886 0.236110
O13   O     O_R   0.239630 0.761942 0.672516 -0.419455
O14   O     O_R   0.090101 0.618148 0.747942 -0.403606
N6    N     N_R   0.202629 0.330227 0.379109 0.221242
O15   O     O_R   0.234749 0.228282 0.408521 -0.360525
O16   O     O_R   0.214979 0.327182 0.292703 -0.398262
N7    N     N_R   0.030996 0.367039 0.956598 0.245263
O17   O     O_R   0.926210 0.435150 0.015712 -0.360250
O18   O     O_R   0.001192 0.263730 0.919015 -0.329564
I2    I     I_    0.673148 0.433566 0.767351 -0.244891

loop_
_geom_bond_atom_site_label_1
_geom_bond_atom_site_label_2
_geom_bond_distance
_ccdc_geom_bond_type
C5    C8    1.395294 A    
C33   H13   1.057999 S    
C9    C10   1.398341 A    
C30   N4    1.442467 S    
N7    O17   1.297929 A    
C1    C29   1.457739 S    
H12   C39   1.082497 S    
C26   H10   1.082026 S    
C36   N5    1.413862 S    
C6    C21   1.400398 A    
Zn1   O7    1.931994 S    
C16   C17   1.394912 A    
C37   N2    1.413282 A    
C13   C19   1.414299 A    
C18   C19   1.414984 A    
C19   C22   1.394468 A    
C20   C21   1.400130 A    
O7    C4    1.300107 A    
N6    O16   1.297894 A    
C34   C35   1.366344 A    
C23   C28   1.412382 A    
O5    C3    1.302147 A    
C2    C5    1.467383 S    
N3    O9    1.301236 A    
C33   C38   1.406295 A    
C30   C31   1.384656 A    
C13   C14   1.404760 A    
C27   C32   1.405937 A    
C23   C24   1.390342 A    
C40   N2    1.382108 A    
C35   H15   1.084440 S    
C15   N3    1.433275 S    
C24   C25   1.390409 A    
O3    Zn1   1.968062 S    
N7    O18   1.301354 A    
C14   H5    1.074140 S    
C3    C32   1.442229 S    
C26   C27   1.415069 A    
C40   N6    1.430007 S    
C35   C36   1.400537 A    
H11   C31   1.082977 S    
C14   C15   1.397621 A    
O3    C2    1.315798 A    
N4    O12   1.298530 A    
N6    O15   1.295006 A    
C16   H6    1.083264 S    
C17   H3    1.083704 S    
C7    C11   1.427303 A    
O1    C1    1.296000 A    
C5    C9    1.402032 A    
N5    O13   1.302003 A    
C37   C38   1.443617 A    
C27   C28   1.393841 A    
Zn2   O8    1.968059 S    
C7    C8    1.397388 A    
C21   H2    1.078493 S    
C31   C32   1.400288 A    
C25   I1    2.104344 S    
N5    O14   1.300640 A    
Zn2   N1    2.039293 S    
Zn2   O6    1.999953 S    
C23   H8    1.081685 S    
C10   C12   1.412668 A    
C29   C30   1.409464 A    
C33   C34   1.371166 A    
C4    C6    1.466261 S    
C24   H9    1.076728 S    
C9    I2    2.162955 S    
C25   C26   1.395241 A    
Zn1   O5    2.001123 S    
C11   C15   1.419795 A    
C28   C29   1.416176 A    
O1    Zn1   1.999954 S    
O2    Zn2   2.001124 S    
O8    C4    1.311712 A    
O6    C3    1.298083 A    
O4    Zn2   1.931994 S    
C6    C22   1.394399 A    
C22   H1    1.078510 S    
C18   C20   1.405863 A    
O2    C1    1.311494 A    
N4    O11   1.300158 A    
N1    C39   1.358169 A    
C34   H14   1.083166 S    
O4    C2    1.296464 A    
C20   H7    1.083565 S    
C7    N7    1.432125 S    
C36   C37   1.452324 A    
Zn1   N2    2.037685 S    
C38   N1    1.364864 A    
C10   C11   1.427328 A    
N3    O10   1.300945 A    
C39   C40   1.420041 A    
C12   C16   1.414718 A    
C17   C18   1.397220 A    
C12   C13   1.397071 A    
C8    H4    1.083609 S    
