data_mof_unit_pretest_1239.cif
_audit_creation_date              2012-12-11T15:19:50-0500
_audit_creation_method            fapswitch 2.2
_symmetry_space_group_name_H-M    P1
_symmetry_Int_Tables_number       1
_space_group_crystal_system       triclinic
_cell_length_a                    16.683966
_cell_length_b                    16.696922
_cell_length_c                    42.934467
_cell_angle_alpha                 90.000054
_cell_angle_beta                  89.999938
_cell_angle_gamma                 120.036851
_cell_volume                      10354.0684898

loop_
_atom_site_label
_atom_site_type_symbol
_atom_type_description
_atom_site_fract_x
_atom_site_fract_y
_atom_site_fract_z
_atom_type_partial_charge
C1    C     C_R   0.583750 0.426264 0.794493 0.542785
C2    C     C_R   0.842371 0.416106 0.705499 0.541577
C3    C     C_R   0.573686 0.157555 0.794476 0.542202
C4    C     C_R   0.583750 0.426265 0.705507 0.542775
C5    C     C_R   0.842371 0.416106 0.794501 0.541587
C6    C     C_R   0.573686 0.157555 0.705524 0.542193
C7    C     C_R   0.426319 0.584023 0.294558 0.529634
C8    C     C_R   0.416027 0.842375 0.205488 0.529739
C9    C     C_R   0.158396 0.573935 0.294722 0.530397
C10   C     C_R   0.426321 0.584019 0.205443 0.529632
C11   C     C_R   0.416026 0.842374 0.294513 0.529739
C12   C     C_R   0.158391 0.573933 0.205279 0.530395
C13   C     C_R   0.183450 0.563440 0.119363 -0.073819
C14   C     C_R   0.386876 0.819500 0.380585 -0.070336
C15   C     C_R   0.433392 0.614793 0.119452 -0.074054
C16   C     C_R   0.183460 0.563418 0.380637 -0.073821
C17   C     C_R   0.386889 0.819530 0.119414 -0.070321
C18   C     C_R   0.433457 0.614830 0.380548 -0.074085
C19   C     C_R   0.488893 0.073516 0.624516 -0.068434
C20   C     C_R   0.922952 0.416227 0.876195 -0.062762
C21   C     C_R   0.581207 0.514775 0.625233 -0.068572
C22   C     C_R   0.488858 0.073464 0.875478 -0.068435
C23   C     C_R   0.922872 0.416200 0.623796 -0.062762
C24   C     C_R   0.581181 0.514804 0.874761 -0.068569
C25   C     C_R   0.194672 0.559794 0.151227 -0.144307
C26   C     C_R   0.371385 0.804642 0.348865 -0.142642
C27   C     C_R   0.437066 0.630961 0.151209 -0.143966
C28   C     C_R   0.194682 0.559781 0.348773 -0.144297
C29   C     C_R   0.371391 0.804665 0.151134 -0.142643
C30   C     C_R   0.437130 0.630995 0.348791 -0.143972
C31   C     C_R   0.500560 0.114819 0.653525 -0.132325
C32   C     C_R   0.880641 0.386096 0.847302 -0.133671
C33   C     C_R   0.611835 0.503875 0.654201 -0.134207
C34   C     C_R   0.500521 0.114766 0.846469 -0.132318
C35   C     C_R   0.880561 0.386078 0.652690 -0.133672
C36   C     C_R   0.611815 0.503910 0.845793 -0.134202
C37   C     C_R   0.058836 0.572912 0.160779 -0.143353
C38   C     C_R   0.510779 0.949723 0.337992 -0.144726
C39   C     C_R   0.431837 0.486099 0.161595 -0.145145
C40   C     C_R   0.058864 0.572937 0.339224 -0.143347
C41   C     C_R   0.510788 0.949738 0.162011 -0.144720
C42   C     C_R   0.431756 0.486064 0.338406 -0.145145
C43   C     C_R   0.599160 0.054069 0.669456 -0.147416
C44   C     C_R   0.950538 0.545075 0.829815 -0.146912
C45   C     C_R   0.453577 0.396029 0.669236 -0.147241
C46   C     C_R   0.599199 0.054101 0.830547 -0.147415
C47   C     C_R   0.950583 0.545057 0.670189 -0.146915
C48   C     C_R   0.453570 0.395990 0.830767 -0.147237
C49   C     C_R   0.043535 0.569917 0.128489 -0.049012
C50   C     C_R   0.523389 0.967786 0.370116 -0.048247
C51   C     C_R   0.434925 0.472745 0.129384 -0.049863
C52   C     C_R   0.043568 0.569941 0.371515 -0.048996
C53   C     C_R   0.523403 0.967812 0.129888 -0.048246
C54   C     C_R   0.434840 0.472706 0.370616 -0.049856
C55   C     C_R   0.585088 0.010085 0.640533 -0.045563
C56   C     C_R   0.995575 0.575274 0.858587 -0.049173
C57   C     C_R   0.422537 0.409023 0.640379 -0.048816
C58   C     C_R   0.585136 0.010118 0.859470 -0.045556
C59   C     C_R   0.995623 0.575243 0.641416 -0.049180
C60   C     C_R   0.422523 0.408974 0.859624 -0.048806
C61   C     C_R   0.106612 0.566207 0.107368 0.220984
C62   C     C_R   0.461658 0.902138 0.391766 0.226662
C63   C     C_R   0.434449 0.536684 0.107891 0.226446
C64   C     C_R   0.106635 0.566205 0.392633 0.220983
C65   C     C_R   0.461675 0.902170 0.108235 0.226666
C66   C     C_R   0.434440 0.536684 0.392109 0.226420
C67   C     C_R   0.530568 0.020448 0.617669 0.216917
C68   C     C_R   0.981498 0.510919 0.882139 0.222343
C69   C     C_R   0.486423 0.467508 0.617916 0.224464
C70   C     C_R   0.530581 0.020442 0.882330 0.216932
C71   C     C_R   0.981487 0.510884 0.617859 0.222327
C72   C     C_R   0.486399 0.467492 0.882083 0.224480
C73   C     C_R   0.893374 0.450120 0.823962 0.010830
C74   C     C_R   0.556557 0.106430 0.676117 0.009562
C75   C     C_R   0.548577 0.443422 0.823702 0.008861
C76   C     C_R   0.893361 0.450108 0.676036 0.010840
C77   C     C_R   0.556556 0.106422 0.823882 0.009560
C78   C     C_R   0.548586 0.443422 0.676296 0.008865
C79   C     C_R   0.433895 0.868078 0.327395 0.024228
C80   C     C_R   0.134201 0.566692 0.172172 0.021240
C81   C     C_R   0.433867 0.566145 0.327506 0.021429
C82   C     C_R   0.433901 0.868091 0.172605 0.024236
C83   C     C_R   0.134215 0.566697 0.327830 0.021232
C84   C     C_R   0.433869 0.566144 0.172494 0.021460
C85   C     C_R   0.059874 0.622806 0.027060 0.070625
C86   C     C_R   0.567133 0.958344 0.471550 0.048515
C87   C     C_R   0.382750 0.429273 0.028127 0.068794
C88   C     C_R   0.059963 0.622828 0.472945 0.070494
C89   C     C_R   0.567176 0.958417 0.028453 0.048657
C90   C     C_R   0.382702 0.429306 0.471878 0.068811
C91   C     C_R   0.586187 0.983478 0.536678 0.066267
C92   C     C_R   0.030412 0.612517 0.962060 0.051089
C93   C     C_R   0.393589 0.409536 0.536822 0.062024
C94   C     C_R   0.586232 0.983545 0.963326 0.066333
C95   C     C_R   0.030501 0.612532 0.537945 0.051131
C96   C     C_R   0.393624 0.409496 0.963183 0.062059
C97   C     C_R   0.071894 0.625056 0.059566 0.447504
C98   C     C_R   0.557301 0.946212 0.439094 0.420871
C99   C     C_R   0.379693 0.439842 0.060567 0.455185
C100  C     C_R   0.071978 0.625082 0.440440 0.447441
C101  C     C_R   0.557339 0.946285 0.060910 0.420956
C102  C     C_R   0.379635 0.439870 0.439438 0.455125
C103  C     C_R   0.596219 0.003324 0.568731 0.439159
C104  C     C_R   0.007288 0.599721 0.930248 0.441641
C105  C     C_R   0.406025 0.399705 0.568699 0.437861
C106  C     C_R   0.596259 0.003387 0.931272 0.439148
C107  C     C_R   0.007374 0.599739 0.569757 0.441644
C108  C     C_R   0.406060 0.399669 0.931305 0.437904
C109  C     C_R   0.106497 0.502024 0.055970 0.445051
C110  C     C_R   0.396515 0.901315 0.442962 0.431310
C111  C     C_R   0.493869 0.600665 0.056115 0.410773
C112  C     C_R   0.106457 0.501963 0.444025 0.445060
C113  C     C_R   0.396536 0.901308 0.057034 0.431340
C114  C     C_R   0.493949 0.600652 0.443878 0.410768
C115  C     C_R   0.431397 0.932184 0.574296 0.460379
C116  C     C_R   0.070507 0.498859 0.925219 0.437420
C117  C     C_R   0.491535 0.564744 0.574742 0.421463
C118  C     C_R   0.431429 0.932137 0.925702 0.460421
C119  C     C_R   0.070440 0.498744 0.574777 0.437377
C120  C     C_R   0.491440 0.564709 0.925253 0.421494
C121  C     C_R   0.107705 0.506825 0.023088 0.023085
C122  C     C_R   0.401778 0.905197 0.475876 0.002737
C123  C     C_R   0.486084 0.595921 0.023347 -0.024542
C124  C     C_R   0.107649 0.506735 0.476908 0.023061
C125  C     C_R   0.401797 0.905142 0.024120 0.002794
C126  C     C_R   0.486189 0.595930 0.476646 -0.024591
C127  C     C_R   0.418797 0.917693 0.541772 0.029691
C128  C     C_R   0.093310 0.508525 0.957292 -0.000081
C129  C     C_R   0.489901 0.577567 0.542241 -0.024466
C130  C     C_R   0.418826 0.917634 0.958225 0.029748
C131  C     C_R   0.093246 0.508408 0.542704 -0.000116
C132  C     C_R   0.489793 0.577541 0.957753 -0.024445
C133  C     C_R   0.079812 0.564760 0.008694 -0.089411
C134  C     C_R   0.488567 0.935646 0.490077 -0.083874
C135  C     C_R   0.435491 0.508108 0.009389 -0.071413
C136  C     C_R   0.079828 0.564720 0.491306 -0.089502
C137  C     C_R   0.488600 0.935654 0.009923 -0.083837
C138  C     C_R   0.435523 0.508133 0.490610 -0.071468
C139  C     C_R   0.497633 0.945253 0.522876 -0.081337
C140  C     C_R   0.068511 0.562362 0.975944 -0.075826
C141  C     C_R   0.439187 0.498606 0.523296 -0.077459
C142  C     C_R   0.497670 0.945258 0.977124 -0.081225
C143  C     C_R   0.068524 0.562314 0.524056 -0.075851
C144  C     C_R   0.439151 0.498576 0.976703 -0.077424
C145  C     C_R   0.028274 0.677317 0.012549 -0.076470
C146  C     C_R   0.653820 0.991546 0.485880 -0.065817
C147  C     C_R   0.334030 0.341714 0.014046 -0.112653
C148  C     C_R   0.028437 0.677394 0.487461 -0.076373
C149  C     C_R   0.653875 0.991677 0.014127 -0.065815
C150  C     C_R   0.333916 0.341759 0.485964 -0.112566
C151  C     C_R   0.663439 0.005181 0.517923 -0.071721
C152  C     C_R   0.012138 0.670977 0.980587 -0.121049
C153  C     C_R   0.340210 0.331879 0.517924 -0.106515
C154  C     C_R   0.663495 0.005310 0.982083 -0.071821
C155  C     C_R   0.012302 0.671053 0.519423 -0.121019
C156  C     C_R   0.340318 0.331831 0.982086 -0.106592
C157  C     C_R   0.135982 0.455331 0.004443 0.289337
C158  C     C_R   0.322693 0.878304 0.494948 0.215951
C159  C     C_R   0.531194 0.675616 0.004112 0.287840
C160  C     C_R   0.135843 0.455164 0.495548 0.289339
C161  C     C_R   0.322698 0.878145 0.005046 0.215910
C162  C     C_R   0.531392 0.675627 0.495877 0.287827
C163  C     C_R   0.330348 0.880192 0.527744 0.280850
C164  C     C_R   0.134919 0.461551 0.971647 0.228985
C165  C     C_R   0.536682 0.666401 0.528053 0.285098
C166  C     C_R   0.330364 0.880048 0.972251 0.280799
C167  C     C_R   0.134780 0.461369 0.528344 0.228971
C168  C     C_R   0.536488 0.666386 0.971936 0.285095
Cr1   Cr    Cr6+3 0.530290 0.262330 0.750000 1.031346
Cr2   Cr    Cr6+3 0.732040 0.469710 0.750000 1.032109
Cr3   Cr    Cr6+3 0.737670 0.267960 0.750000 1.033208
Cr4   Cr    Cr6+3 0.262330 0.530290 0.250000 1.041315
Cr5   Cr    Cr6+3 0.469710 0.732040 0.250000 1.042740
Cr6   Cr    Cr6+3 0.267960 0.737670 0.250000 1.042172
H1    H     H_    0.960854 0.595525 0.812094 0.127191
H2    H     H_    0.642864 0.047046 0.686602 0.128579
H3    H     H_    0.403598 0.348935 0.814031 0.130026
H4    H     H_    0.960949 0.595510 0.687915 0.127181
H5    H     H_    0.642933 0.047112 0.813405 0.128581
H6    H     H_    0.403598 0.349000 0.685975 0.130023
H7    H     H_    0.559526 0.999545 0.321585 0.116848
H8    H     H_    0.011572 0.578518 0.176711 0.118653
H9    H     H_    0.429256 0.435248 0.322166 0.117800
H10   H     H_    0.559534 0.999554 0.178420 0.116845
H11   H     H_    0.011606 0.578560 0.323294 0.118660
H12   H     H_    0.429396 0.435312 0.177835 0.117785
H13   H     H_    0.984418 0.711481 0.970458 0.169896
H14   H     H_    0.731913 0.033468 0.527959 0.170784
H15   H     H_    0.303855 0.262854 0.972247 0.172830
H16   H     H_    0.984641 0.711604 0.529556 0.169905
H17   H     H_    0.731977 0.033646 0.972049 0.170722
H18   H     H_    0.303692 0.262909 0.527767 0.172854
H19   H     H_    0.715081 0.009014 0.472252 0.178002
H20   H     H_    0.013064 0.722966 0.026021 0.177497
H21   H     H_    0.292393 0.280184 0.472192 0.173059
H22   H     H_    0.715145 0.009195 0.027757 0.177922
H23   H     H_    0.013286 0.723091 0.473993 0.177613
H24   H     H_    0.292567 0.280132 0.027822 0.173060
H25   H     H_    0.040745 0.648567 0.862592 0.168428
H26   H     H_    0.617375 0.968986 0.635837 0.168908
H27   H     H_    0.349063 0.372536 0.864619 0.166493
H28   H     H_    0.040844 0.648530 0.637416 0.168444
H29   H     H_    0.617459 0.969055 0.864169 0.168886
H30   H     H_    0.349075 0.372620 0.635387 0.166507
H31   H     H_    0.580960 0.032691 0.378059 0.155256
H32   H     H_    0.982768 0.570595 0.120046 0.156350
H33   H     H_    0.437501 0.412688 0.378681 0.156571
H34   H     H_    0.580975 0.032720 0.121947 0.155272
H35   H     H_    0.982813 0.570639 0.379960 0.156336
H36   H     H_    0.437646 0.412758 0.121320 0.156574
H37   H     H_    0.253370 0.555522 0.159720 0.132031
H38   H     H_    0.311973 0.741432 0.340884 0.124142
H39   H     H_    0.438607 0.692818 0.159399 0.128907
H40   H     H_    0.253376 0.555504 0.340278 0.132044
H41   H     H_    0.311974 0.741456 0.159113 0.124132
H42   H     H_    0.438726 0.692880 0.340602 0.128972
H43   H     H_    0.468407 0.156294 0.657881 0.145419
H44   H     H_    0.835368 0.312609 0.843539 0.143508
H45   H     H_    0.685563 0.540085 0.658844 0.145357
H46   H     H_    0.468334 0.156209 0.842110 0.145425
H47   H     H_    0.835240 0.312597 0.656450 0.143490
H48   H     H_    0.685542 0.540153 0.841148 0.145362
H49   H     H_    0.234849 0.563481 0.103961 0.148854
H50   H     H_    0.339694 0.766531 0.396516 0.146967
H51   H     H_    0.430301 0.664008 0.103796 0.138674
H52   H     H_    0.234850 0.563437 0.396039 0.148852
H53   H     H_    0.339709 0.766563 0.103482 0.146970
H54   H     H_    0.430427 0.664078 0.396205 0.138694
H55   H     H_    0.448240 0.084085 0.607057 0.150526
H56   H     H_    0.909386 0.365538 0.894191 0.155181
H57   H     H_    0.631816 0.558929 0.608125 0.140672
H58   H     H_    0.448177 0.084001 0.892934 0.150511
H59   H     H_    0.909259 0.365509 0.605797 0.155185
H60   H     H_    0.631782 0.558985 0.891867 0.140673
N1    N     N_R   0.093231 0.563705 0.073844 -0.402375
N2    N     N_R   0.472812 0.918666 0.425083 -0.394979
N3    N     N_R   0.436697 0.524719 0.074427 -0.386228
N4    N     N_R   0.093252 0.563692 0.426157 -0.402405
N5    N     N_R   0.472838 0.918701 0.074918 -0.394997
N6    N     N_R   0.436699 0.524722 0.425573 -0.386269
N7    N     N_R   0.519402 0.981054 0.586861 -0.394613
N8    N     N_R   0.023701 0.540152 0.912586 -0.383143
N9    N     N_R   0.457330 0.477014 0.587032 -0.383260
N10   N     N_R   0.519433 0.981061 0.913139 -0.394606
N11   N     N_R   0.023705 0.540105 0.587413 -0.383162
N12   N     N_R   0.457302 0.476982 0.912968 -0.383253
O1    O     O_R   0.509640 0.171340 0.784000 -0.503066
O2    O     O_R   0.661700 0.490360 0.716000 -0.503353
O3    O     O_R   0.828660 0.338300 0.784000 -0.501326
O4    O     O_R   0.509640 0.171340 0.716000 -0.503053
O5    O     O_R   0.661700 0.490360 0.784000 -0.503362
O6    O     O_R   0.828660 0.338300 0.716000 -0.501309
O7    O     O_R   0.171340 0.509640 0.284000 -0.493118
O8    O     O_R   0.490360 0.661700 0.216000 -0.492478
O9    O     O_R   0.338300 0.828660 0.284000 -0.492683
O10   O     O_R   0.171340 0.509640 0.216000 -0.493115
O11   O     O_R   0.490360 0.661700 0.284000 -0.492488
O12   O     O_R   0.338300 0.828660 0.216000 -0.492686
O13   O     O_R   0.539230 0.345420 0.781810 -0.498419
O14   O     O_R   0.806190 0.460770 0.718190 -0.497276
O15   O     O_R   0.654580 0.193810 0.781810 -0.497904
O16   O     O_R   0.539230 0.345420 0.718190 -0.498418
O17   O     O_R   0.806190 0.460770 0.781810 -0.497277
O18   O     O_R   0.654580 0.193810 0.718190 -0.497904
O19   O     O_R   0.345420 0.539230 0.281810 -0.495450
O20   O     O_R   0.460770 0.806190 0.218190 -0.494561
O21   O     O_R   0.193810 0.654580 0.281810 -0.493845
O22   O     O_R   0.345420 0.539230 0.218190 -0.495439
O23   O     O_R   0.460770 0.806190 0.281810 -0.494575
O24   O     O_R   0.193810 0.654580 0.218190 -0.493840
O25   O     O_3   0.666667 0.333333 0.750000 -0.242901
O26   O     O_3   0.333333 0.666667 0.250000 -0.255494
O27   O     O_2   0.063955 0.682013 0.075110 -0.489301
O28   O     O_2   0.623643 0.958799 0.423337 -0.496688
O29   O     O_2   0.326105 0.373682 0.076401 -0.493729
O30   O     O_2   0.064089 0.682074 0.424899 -0.489209
O31   O     O_2   0.623689 0.958906 0.076669 -0.496682
O32   O     O_2   0.325986 0.373728 0.423608 -0.493657
O33   O     O_2   0.673531 0.043255 0.580299 -0.516145
O34   O     O_2   0.969225 0.638736 0.918550 -0.517156
O35   O     O_2   0.373542 0.322354 0.579937 -0.518540
O36   O     O_2   0.673573 0.043365 0.919706 -0.516200
O37   O     O_2   0.969380 0.638817 0.581459 -0.517115
O38   O     O_2   0.373634 0.322319 0.920071 -0.518576
O39   O     O_2   0.115816 0.441868 0.068811 -0.424261
O40   O     O_2   0.323999 0.882625 0.430025 -0.466981
O41   O     O_2   0.553937 0.671414 0.068416 -0.474047
O42   O     O_2   0.115736 0.441790 0.431177 -0.424202
O43   O     O_2   0.324018 0.882634 0.069968 -0.466967
O44   O     O_2   0.554059 0.671361 0.431570 -0.474010
O45   O     O_2   0.364345 0.903483 0.591556 -0.424345
O46   O     O_2   0.088844 0.450773 0.908613 -0.477328
O47   O     O_2   0.523362 0.631211 0.592305 -0.480191
O48   O     O_2   0.364377 0.903399 0.908440 -0.424342
O49   O     O_2   0.088709 0.450599 0.591378 -0.477333
O50   O     O_2   0.523220 0.631167 0.907686 -0.480187
O51   O     O_3   0.174817 0.421008 0.954383 -0.668897
H61   H     H_    0.214974 0.466831 0.938551 0.363476
O52   O     O_3   0.253048 0.850360 0.546549 -0.622872
H62   H     H_    0.195908 0.822540 0.533876 0.365051
O53   O     O_3   0.588987 0.746294 0.955134 -0.601126
H63   H     H_    0.634173 0.737049 0.942948 0.350322
O54   O     O_3   0.174610 0.420750 0.545605 -0.668871
H64   H     H_    0.214792 0.466546 0.561439 0.363452
O55   O     O_3   0.253058 0.850131 0.953443 -0.622913
H65   H     H_    0.195915 0.822281 0.966115 0.365019
O56   O     O_3   0.589273 0.746298 0.544849 -0.601104
H66   H     H_    0.634399 0.736973 0.557041 0.350323
O57   O     O_3   0.236941 0.848900 0.482033 -0.672950
H67   H     H_    0.240632 0.904098 0.471951 0.361446
O58   O     O_3   0.169185 0.403463 0.018795 -0.622275
H68   H     H_    0.175626 0.362949 0.003402 0.370450
O59   O     O_3   0.571572 0.764253 0.484101 -0.606343
H69   H     H_    0.530271 0.764656 0.467589 0.342063
O60   O     O_3   0.236918 0.848591 0.017962 -0.672940
H70   H     H_    0.240462 0.903773 0.028003 0.361395
O61   O     O_3   0.168963 0.403230 0.481192 -0.622215
H71   H     H_    0.175324 0.362658 0.496581 0.370434
O62   O     O_3   0.571276 0.764241 0.015883 -0.606378
H72   H     H_    0.529957 0.764589 0.032398 0.342019

loop_
_geom_bond_atom_site_label_1
_geom_bond_atom_site_label_2
_ccdc_geom_bond_type
C132  C144  A    
C154  H17   S    
C12   O10   A    
C44   H1    S    
C104  O34   D    
C93   C141  A    
O53   H63   S    
C16   H52   S    
C111  N3    Am   
C38   H7    S    
C47   C76   A    
C112  C124  A    
C35   H47   S    
C149  H22   S    
C33   C78   A    
C21   C33   A    
C60   C72   A    
C113  O43   D    
C97   N1    Am   
C108  N12   Am   
C72   N12   S    
C25   H37   S    
C115  N7    Am   
C86   C134  A    
C3    O15   A    
C105  O35   D    
C45   C78   A    
C64   N4    S    
C108  O38   D    
C66   N6    S    
C96   C108  A    
C28   C83   A    
C28   H40   S    
C40   C83   A    
Cr2   O2    S    
C152  H13   S    
C93   C105  A    
Cr5   O20   S    
C151  H14   S    
C116  N8    Am   
C6    O4    A    
C58   C70   A    
C117  O47   D    
C4    C78   S    
C96   C144  A    
C162  C165  A    
C163  O52   S    
C15   C27   A    
O54   H64   S    
C110  O40   D    
C45   C57   A    
C122  C158  A    
C161  O60   S    
C14   C26   A    
C19   H55   S    
C145  H20   S    
C11   C79   S    
C9    C83   S    
C167  O54   S    
C117  N9    Am   
C112  N4    Am   
C7    O11   A    
C71   N11   S    
C3    C77   S    
C131  C143  A    
C87   C135  A    
C114  N6    Am   
Cr4   O10   S    
C89   C101  A    
C46   H5    S    
C20   C68   A    
C9    O7    A    
C91   C103  A    
C138  C141  A    
C63   N3    S    
C46   C77   A    
Cr3   O3    S    
C93   C153  A    
C29   C82   A    
Cr4   O22   S    
Cr5   O23   S    
C109  C121  A    
C96   C156  A    
C123  C159  A    
C41   C82   A    
C124  C160  A    
C57   H30   S    
C8    O12   A    
C85   C97   A    
C92   C104  A    
C47   C59   A    
C98   N2    Am   
C49   H32   S    
C4    O16   A    
C123  C135  A    
C5    O17   A    
C147  H24   S    
C26   H38   S    
C105  N9    Am   
C42   C54   A    
Cr6   O21   S    
C39   C51   A    
C137  C142  A    
C90   C150  A    
C9    O21   A    
C24   C36   A    
C10   O22   A    
C15   H51   S    
C27   C84   A    
C85   C145  A    
C39   C84   A    
C136  C143  A    
C114  C126  A    
C29   H41   S    
C14   C62   A    
C128  C164  A    
Cr3   O15   S    
C122  C134  A    
C98   O28   D    
C119  C131  A    
C41   H10   S    
C100  N4    Am   
C148  C155  A    
C117  C129  A    
C156  H15   S    
C131  C167  A    
C166  O55   S    
C46   C58   A    
Cr3   O18   S    
C42   C81   A    
C120  N12   Am   
C90   C138  A    
C118  N10   Am   
C33   H45   S    
C22   C34   A    
C37   C80   A    
C35   C76   A    
C114  O44   D    
C94   C142  A    
C119  O49   D    
C24   H60   S    
C120  O50   D    
C134  C139  A    
C31   C74   A    
Cr6   O26   S    
C56   C68   A    
C116  O46   D    
C21   C69   A    
C106  O36   D    
C36   C75   A    
C157  C164  A    
C41   C53   A    
C164  O51   S    
C158  C163  A    
C109  N1    Am   
C43   C55   A    
C7    C81   S    
C61   N1    S    
C159  O62   S    
C24   C72   A    
C20   C32   A    
C118  O48   D    
C106  N10   Am   
Cr6   O12   S    
C6    O18   A    
C1    O5    A    
C54   C66   A    
C18   C66   A    
C119  N11   Am   
C107  O37   D    
C17   H53   S    
C59   H28   S    
C5    C73   S    
C130  C142  A    
C32   H44   S    
C150  H21   S    
C145  C152  A    
C30   H42   S    
C146  C151  A    
C23   H59   S    
C23   C71   A    
Cr2   O25   S    
C1    O13   A    
C22   C70   A    
C95   C143  A    
C101  N5    Am   
C25   C80   A    
C17   C29   A    
Cr4   O26   S    
C19   C31   A    
Cr6   O24   S    
C87   C147  A    
C100  O30   D    
C8    C82   S    
C101  O31   D    
C12   O24   A    
C47   H4    S    
C34   C77   A    
C34   H46   S    
C148  H23   S    
C129  C141  A    
C38   C79   A    
C53   H34   S    
C7    O19   A    
C45   H6    S    
C39   H12   S    
C94   C106  A    
C150  C153  A    
C11   O9    A    
C19   C67   A    
C89   C149  A    
O60   H70   S    
C11   O23   A    
C3    O1    A    
C13   H49   S    
C86   C146  A    
C110  N2    Am   
C6    C74   S    
C165  O56   S    
Cr4   O7    S    
C20   H56   S    
C124  C136  A    
C111  C123  A    
O56   H66   S    
C5    O3    A    
C49   C61   A    
C88   C136  A    
C8    O20   A    
C52   C64   A    
C99   O29   D    
C69   N9    S    
C125  C137  A    
Cr3   O6    S    
Cr1   O4    S    
O52   H62   S    
Cr4   O19   S    
C118  C130  A    
C155  H16   S    
C2    O6    A    
C37   C49   A    
C43   H2    S    
C44   C56   A    
C55   H26   S    
Cr5   O8    S    
C51   C63   A    
C146  H19   S    
C147  C156  A    
C88   C100  A    
C95   C107  A    
C91   C139  A    
C58   H29   S    
C89   C137  A    
C115  O45   D    
C168  O53   S    
C158  O57   S    
C92   C140  A    
C2    C76   S    
C127  C163  A    
C10   O8    A    
C17   C65   A    
C125  C161  A    
C102  N6    Am   
C26   C79   A    
C129  C165  A    
C30   C81   A    
C110  C122  A    
C51   H36   S    
O59   H69   S    
C104  N8    Am   
C37   H8    S    
Cr1   O16   S    
C128  C140  A    
C44   C73   A    
C86   C98   A    
O62   H72   S    
C99   N3    Am   
C60   H27   S    
C133  C140  A    
O55   H65   S    
C27   H39   S    
C111  O41   D    
C85   C133  A    
C31   H43   S    
C16   C28   A    
C2    O14   A    
O58   H68   S    
O51   H61   S    
Cr3   O25   S    
C103  O33   D    
C149  C154  A    
C67   N7    S    
O57   H67   S    
Cr5   O11   S    
C14   H50   S    
C113  C125  A    
C21   H57   S    
C115  C127  A    
C159  C168  A    
C160  C167  A    
C130  C166  A    
C4    O2    A    
C70   N10   S    
C90   C102  A    
C68   N8    S    
C92   C152  A    
C18   C30   A    
C161  C166  A    
C56   H25   S    
C109  O39   D    
C43   C74   A    
C121  C157  A    
C48   C75   A    
C13   C25   A    
C127  C139  A    
C102  O32   D    
C48   H3    S    
C160  O61   S    
C48   C60   A    
C87   C99   A    
C88   C148  A    
C62   N2    S    
C1    C75   S    
C32   C73   A    
C40   H11   S    
C40   C52   A    
Cr2   O17   S    
C162  O59   S    
C94   C154  A    
C22   H58   S    
Cr1   O1    S    
C18   H54   S    
C135  C144  A    
Cr1   O25   S    
C50   C62   A    
C36   H48   S    
C53   C65   A    
C126  C138  A    
C157  O58   S    
C120  C132  A    
C107  N11   Am   
C132  C168  A    
Cr5   O26   S    
C55   C67   A    
C38   C50   A    
C42   H9    S    
C112  O42   D    
C23   C35   A    
C57   C69   A    
C91   C151  A    
C52   H35   S    
C12   C80   S    
C10   C84   S    
C103  N7    Am   
Cr2   O5    S    
C95   C155  A    
O61   H71   S    
C50   H31   S    
Cr6   O9    S    
C113  N5    Am   
C13   C61   A    
C54   H33   S    
C116  C128  A    
Cr1   O13   S    
C15   C63   A    
C65   N5    S    
Cr2   O14   S    
C16   C64   A    
C121  C133  A    
C126  C162  A    
C97   O27   D    
C59   C71   A    
C153  H18   S    
