data_mof_unit_pretest_1450.cif
_audit_creation_date              2012-12-10T18:58:38-0500
_audit_creation_method            fapswitch 2.2
_symmetry_space_group_name_H-M    P1
_symmetry_Int_Tables_number       1
_space_group_crystal_system       triclinic
_cell_length_a                    10.724305
_cell_length_b                    9.988623
_cell_length_c                    17.5886
_cell_angle_alpha                 89.998017
_cell_angle_beta                  93.699666
_cell_angle_gamma                 90.000074
_cell_volume                      1880.18262179

loop_
_atom_site_label
_atom_site_type_symbol
_atom_type_description
_atom_site_fract_x
_atom_site_fract_y
_atom_site_fract_z
_atom_type_partial_charge
C1    C     C_R   0.260277 0.500000 0.499732 0.858565
C2    C     C_R   0.739723 0.500000 0.500268 0.858565
C3    C     C_1   0.500507 0.499998 0.966288 -0.071271
C4    C     C_1   0.499495 0.500002 0.033712 -0.071271
C5    C     C_R   0.063857 0.377924 0.499841 -0.196573
C6    C     C_R   0.936143 0.622076 0.500159 -0.196573
C7    C     C_R   0.936137 0.377924 0.500117 -0.196569
C8    C     C_R   0.063863 0.622076 0.499883 -0.196569
C9    C     C_R   0.499411 0.500002 0.353792 0.853481
C10   C     C_R   0.500588 0.499998 0.646208 0.853481
C11   C     C_R   0.872434 0.500000 0.500252 -0.007928
C12   C     C_R   0.127565 0.500000 0.499748 -0.007928
C13   C     C_R   0.501711 0.621623 0.847511 -0.167856
C14   C     C_R   0.498290 0.378377 0.152489 -0.167856
C15   C     C_R   0.498282 0.621634 0.152484 -0.167855
C16   C     C_R   0.501719 0.378366 0.847516 -0.167855
C17   C     C_R   0.501657 0.621840 0.768715 -0.204017
C18   C     C_R   0.498344 0.378160 0.231285 -0.204017
C19   C     C_R   0.498336 0.621852 0.231280 -0.204014
C20   C     C_R   0.501665 0.378148 0.768720 -0.204014
C21   C     C_R   0.501360 0.499995 0.728879 -0.028610
C22   C     C_R   0.498640 0.500005 0.271120 -0.028610
C23   C     C_R   0.580596 0.071714 0.549111 0.203172
C24   C     C_R   0.419403 0.928286 0.450888 0.203172
C25   C     C_R   0.419403 0.071720 0.450889 0.203189
C26   C     C_R   0.580597 0.928280 0.549111 0.203189
C27   C     C_R   0.501535 0.499995 0.886303 0.169382
C28   C     C_R   0.498466 0.500005 0.113697 0.169382
H1    H     H_    0.501559 0.717018 0.739213 0.160110
H2    H     H_    0.498442 0.282982 0.260787 0.160110
H3    H     H_    0.498427 0.717030 0.260777 0.160105
H4    H     H_    0.501573 0.282970 0.739223 0.160105
H5    H     H_    0.112143 0.282658 0.499769 0.160807
H6    H     H_    0.887857 0.717342 0.500231 0.160807
H7    H     H_    0.887847 0.282658 0.500155 0.160815
H8    H     H_    0.112153 0.717342 0.499845 0.160815
N1    N     N_R   0.500000 0.857200 0.500000 -0.117049
N2    N     N_R   0.500000 0.142800 0.500000 -0.117049
O1    O     O_R   0.316770 0.614620 0.500000 -0.629521
O2    O     O_R   0.683230 0.385380 0.500000 -0.629521
O3    O     O_R   0.683230 0.614620 0.500000 -0.629517
O4    O     O_R   0.316770 0.385380 0.500000 -0.629517
O5    O     O_R   0.500010 0.614710 0.389120 -0.624896
O6    O     O_R   0.499990 0.385290 0.610880 -0.624896
O7    O     O_R   0.499990 0.614710 0.610880 -0.624898
O8    O     O_R   0.500010 0.385290 0.389120 -0.624898
Zn1   Zn    Zn3+2 0.500000 0.653120 0.500000 0.932219
Zn2   Zn    Zn3+2 0.500000 0.346880 0.500000 0.932219
H9    H     H_    0.501610 0.715818 0.878106 0.131540
H10   H     H_    0.498392 0.284182 0.121894 0.131540
H11   H     H_    0.498377 0.715828 0.121884 0.131540
H12   H     H_    0.501624 0.284172 0.878116 0.131540
C29   C     C_3   0.671774 0.142594 0.604688 -0.837898
H13   H     H_    0.668025 0.250921 0.602372 0.288952
H14   H     H_    0.653106 0.115120 0.664009 0.210867
H15   H     H_    0.769056 0.115075 0.593316 0.210913
C30   C     C_3   0.328226 0.857406 0.395312 -0.837898
H16   H     H_    0.331975 0.749079 0.397628 0.288952
H17   H     H_    0.230944 0.884925 0.406684 0.210913
H18   H     H_    0.346894 0.884880 0.335991 0.210867
C31   C     C_3   0.328225 0.142605 0.395312 -0.837909
H19   H     H_    0.331968 0.250931 0.397629 0.288949
H20   H     H_    0.346895 0.115141 0.335992 0.210871
H21   H     H_    0.230944 0.115079 0.406682 0.210902
C32   C     C_3   0.671775 0.857395 0.604688 -0.837909
H22   H     H_    0.668032 0.749069 0.602371 0.288949
H23   H     H_    0.769056 0.884921 0.593318 0.210902
H24   H     H_    0.653104 0.884858 0.664008 0.210870

loop_
_geom_bond_atom_site_label_1
_geom_bond_atom_site_label_2
_ccdc_geom_bond_type
C31   H21   S    
C15   C19   A    
C26   N1    A    
C18   H2    S    
C15   H11   S    
C25   N2    A    
N1    Zn1   S    
C23   N2    A    
C17   H1    S    
C14   C18   A    
N2    Zn2   S    
C13   C17   A    
C8    C12   A    
C32   H24   S    
C19   H3    S    
C29   H15   S    
C16   C27   A    
C3    C27   S    
C24   N1    A    
O3    Zn1   S    
C9    O8    A    
O7    Zn1   S    
C25   C31   S    
C29   H13   S    
C24   C25   A    
C7    C11   A    
C15   C28   A    
C14   H10   S    
C1    C12   S    
C7    H7    S    
C10   O7    A    
C13   H9    S    
C2    C11   S    
C6    C8    A    
O1    Zn1   S    
C16   C20   A    
C4    C28   S    
C23   C29   S    
C30   H16   S    
C29   H14   S    
C10   C21   S    
C20   H4    S    
C31   H19   S    
O8    Zn2   S    
C9    C22   S    
C30   H17   S    
C9    O5    A    
C5    C12   A    
C1    O1    A    
C2    O3    A    
C10   O6    A    
C3    C4    T    
C2    O2    A    
C1    O4    A    
C19   C22   A    
C20   C21   A    
C6    H6    S    
C31   H20   S    
C32   H22   S    
C8    H8    S    
C23   C26   A    
C6    C11   A    
C5    C7    A    
O2    Zn2   S    
C13   C27   A    
C30   H18   S    
O4    Zn2   S    
C14   C28   A    
C18   C22   A    
C26   C32   S    
O5    Zn1   S    
C17   C21   A    
C16   H12   S    
O6    Zn2   S    
C24   C30   S    
C32   H23   S    
C5    H5    S    
