data_mof_unit_pretest_85.cif
_audit_creation_date              2013-03-05T15:43:54-0500
_audit_creation_method            fapswitch 2.2
_symmetry_space_group_name_H-M    P1
_symmetry_Int_Tables_number       1
_space_group_crystal_system       triclinic
_cell_length_a                    8.613704
_cell_length_b                    15.619724
_cell_length_c                    18.882592
_cell_angle_alpha                 99.104455
_cell_angle_beta                  93.507893
_cell_angle_gamma                 100.921682
_cell_volume                      2452.17608345

loop_
_atom_site_label
_atom_site_type_symbol
_atom_site_description
_atom_site_fract_x
_atom_site_fract_y
_atom_site_fract_z
_atom_type_partial_charge
P1    P     P_3+3 0.038110 0.412300 0.335300 0.514686
O1    O     O_2   0.871030 0.438240 0.324420 -0.303873
O2    O     O_3   0.120590 0.445310 0.413740 -0.356886
O3    O     O_3   0.663040 0.605930 0.370050 -0.336055
O4    O     O_2   0.728058 0.537417 0.242726 -0.306800
O5    O     O_3   0.009128 0.300647 0.296097 -0.649045
O6    O     O_3   0.715500 0.704291 0.261894 -0.508485
H1    H     H_    0.731345 0.768924 0.367197 0.152161
C1    C     C_3   0.716270 0.857239 0.293025 -0.742028
H2    H     H_    0.846080 0.873623 0.289129 0.291307
H3    H     H_    0.652080 0.859496 0.240778 0.292526
P2    P     P_3+3 0.679950 0.711710 0.558590 0.456999
P3    P     P_3+3 0.140936 0.763811 0.402963 0.408126
O7    O     O_2   0.855660 0.723510 0.537160 -0.395380
O8    O     O_3   0.086340 0.654970 0.406630 -0.344881
O9    O     O_2   0.028340 0.798753 0.453677 -0.414118
O10   O     O_3   0.712178 0.759893 0.650271 -0.599451
O11   O     O_3   0.062868 0.776891 0.318528 -0.511308
C2    C     C_3   0.158250 0.745464 0.266145 0.177409
H4    H     H_    0.144494 0.672234 0.261938 0.073421
H5    H     H_    0.286301 0.777047 0.281038 0.066725
C3    C     C_3   0.103416 0.765753 0.192674 -0.032654
H6    H     H_    0.088641 0.705152 0.150651 0.075399
H7    H     H_    0.984774 0.785081 0.194310 0.212034
C4    C     C_3   0.207051 0.745356 0.621060 0.328053
H8    H     H_    0.326967 0.759999 0.602446 0.069892
H9    H     H_    0.124597 0.705822 0.575347 0.153976
C5    C     C_3   0.151983 0.832056 0.647386 -0.450469
H10   H     H_    0.197858 0.856604 0.704309 0.238311
H11   H     H_    0.021007 0.817727 0.646189 0.209261
Ba1   Ba    Ba6+2 0.854120 0.540280 0.465540 1.614172
C6    C     C_3   0.904653 0.245084 0.330051 0.631388
H12   H     H_    0.815079 0.279181 0.356151 0.027419
C7    C     C_3   0.812487 0.168174 0.271080 -0.138027
H13   H     H_    0.684322 0.171864 0.265977 0.139293
H14   H     H_    0.856268 0.175183 0.217219 0.170494
C8    C     C_3   0.727936 0.701134 0.697211 0.223289
H15   H     H_    0.838091 0.675395 0.688182 0.046275
H16   H     H_    0.624853 0.644416 0.686347 0.112292
C9    C     C_3   0.735814 0.750898 0.777416 0.285511
P4    P     P_3+3 0.151600 0.587780 0.664700 0.450385
O12   O     O_2   0.318670 0.561790 0.675630 -0.339623
O13   O     O_3   0.069120 0.554770 0.586270 -0.395016
O14   O     O_3   0.526680 0.394150 0.629950 -0.364990
O15   O     O_3   0.218242 0.703235 0.681105 -0.608271
P5    P     P_3+3 0.058214 0.228287 0.582941 0.549615
O16   O     O_3   0.607620 0.388570 0.462320 -0.354519
O17   O     O_3   0.103380 0.345110 0.593380 -0.395549
O18   O     O_2   0.193204 0.191689 0.546311 -0.321701
O19   O     O_3   0.075009 0.196754 0.668204 -0.497080
Ba2   Ba    Ba6+2 0.335710 0.459790 0.534460 1.615346
P6    P     P_3+3 0.625680 0.600497 0.278089 0.553668
C10   C     C_3   0.669428 0.767176 0.313424 0.342731
H17   H     H_    0.538679 0.753648 0.316496 0.001679
H18   H     H_    0.683903 0.905234 0.336113 0.232050
O20   O     O_3   0.582100 0.611510 0.537680 -0.374506
C11   C     C_3   0.400587 0.286173 0.310195 0.770264
H19   H     H_    0.315284 0.318022 0.341537 0.061886
C12   C     C_3   0.308595 0.230851 0.240957 -0.805252
H20   H     H_    0.211750 0.179607 0.253726 0.268562
H21   H     H_    0.255869 0.274061 0.209089 0.233118
H22   H     H_    0.388201 0.196819 0.207622 0.278197
P7    P     P_3+3 0.506716 0.275397 0.439873 0.501077
O21   O     O_2   0.334040 0.276520 0.462890 -0.273514
O22   O     O_3   0.473138 0.231563 0.347635 -0.621275
C13   C     C_3   0.042284 0.255809 0.728730 0.852145
C14   C     C_3   0.071058 0.211190 0.794388 -0.794734
H23   H     H_    0.011827 0.235473 0.841981 0.211855
H24   H     H_    0.028669 0.138468 0.781037 0.295889
H25   H     H_    0.197059 0.225771 0.810446 0.260918
P8    P     P_3+3 0.550374 0.409896 0.727173 0.400280
C15   C     C_3   0.548419 0.254129 0.777647 0.056293
H26   H     H_    0.655332 0.291614 0.810652 0.046143
O23   O     O_2   0.457864 0.482736 0.751054 -0.409535
O24   O     O_3   0.450814 0.315649 0.766376 -0.554382
H27   H     H_    0.560565 0.221529 0.723276 0.169291
C16   C     C_3   0.497390 0.169877 0.815428 0.491327
C17   C     C_R   0.969178 0.493486 0.055546 -0.009817
C18   C     C_R   0.870517 0.446548 0.099380 -0.097195
C19   C     C_R   0.706600 0.416674 0.075686 0.250834
C20   C     C_R   0.644387 0.435364 0.009900 0.175899
C21   C     C_R   0.751639 0.462996 0.960506 -0.060408
C22   C     C_R   0.911488 0.497376 0.984415 0.008248
C23   C     C_R   0.702044 0.454913 0.887304 -0.146236
C24   C     C_R   0.806945 0.482539 0.837279 -0.057634
C25   C     C_R   0.961176 0.530359 0.863091 0.023142
C26   C     C_R   0.012042 0.537851 0.937589 0.018082
C27   C     C_R   0.758964 0.466143 0.762781 0.205809
C28   C     C_R   0.866680 0.498104 0.714521 -0.496081
C29   C     C_R   0.021268 0.548589 0.737958 0.182315
C30   C     C_R   0.064998 0.569199 0.815029 -0.054446
C31   C     C_R   0.125786 0.535037 0.081895 0.076340
C32   C     C_R   0.186434 0.529049 0.152619 0.045537
C33   C     C_R   0.090090 0.479007 0.197015 -0.071681
C34   C     C_R   0.935389 0.434932 0.167296 -0.033034
H28   H     H_    0.827879 0.485260 0.657588 0.184746
H29   H     H_    0.581873 0.422494 0.869371 0.211901
H30   H     H_    0.862631 0.393152 0.197419 0.214756
C35   C     C_R   0.208372 0.625759 0.846835 -0.227788
C36   C     C_R   0.255874 0.635102 0.921543 0.132993
C37   C     C_R   0.162598 0.585987 0.965643 0.055863
C38   C     C_R   0.219606 0.585484 0.038012 0.037632
C39   C     C_R   0.396740 0.692049 0.953164 -0.300289
C40   C     C_R   0.456539 0.692117 0.024308 0.391932
C41   C     C_R   0.371174 0.634597 0.065951 0.027490
C42   C     C_R   0.344324 0.572442 0.177975 -0.041373
C43   C     C_R   0.432242 0.626056 0.134790 -0.151461
C44   C     C_R   0.408552 0.563438 0.246736 0.204555
C45   C     C_R   0.308072 0.521386 0.292668 -0.424397
C46   C     C_R   0.150684 0.477345 0.269821 0.219162
H31   H     H_    0.285123 0.660215 0.813411 0.165109
H32   H     H_    0.462801 0.735361 0.921929 0.151608
H33   H     H_    0.548137 0.662730 0.155047 0.213006
H34   H     H_    0.355145 0.520108 0.346772 0.184383
C47   C     C_R   0.772982 0.229539 0.500167 -0.416297
C48   C     C_R   0.860797 0.175966 0.531024 0.368366
C49   C     C_R   0.776702 0.093957 0.542849 -0.324015
C50   C     C_R   0.626076 0.051922 0.505115 0.151195
C51   C     C_R   0.536745 0.115302 0.488661 -0.261001
C52   C     C_R   0.610182 0.201974 0.483396 0.237305
C53   C     C_R   0.416362 0.907417 0.441892 0.029426
C54   C     C_R   0.351661 0.815511 0.439400 0.138056
C55   C     C_R   0.590163 0.792562 0.506295 0.220831
C56   C     C_R   0.658977 0.885703 0.508662 -0.003011
C57   C     C_R   0.565229 0.947955 0.485919 0.052675
C58   C     C_R   0.437659 0.761309 0.471355 -0.516433
H35   H     H_    0.823042 0.072060 0.588599 0.182424
H36   H     H_    0.411269 0.102424 0.482729 0.171502
H37   H     H_    0.382065 0.692913 0.470587 0.176825
H38   H     H_    0.825866 0.297580 0.498344 0.174197
C59   C     C_3   0.203722 0.907817 0.606013 -0.423951
C60   C     C_3   0.373255 0.955297 0.628212 -0.667922
H39   H     H_    0.389049 0.971925 0.687323 0.320932
H40   H     H_    0.455850 0.912597 0.609321 0.208452
H41   H     H_    0.398371 0.017085 0.605285 0.264581
H42   H     H_    0.191962 0.884610 0.547971 0.244273
H43   H     H_    0.127641 0.957207 0.618210 0.253282
N1    N     N_R   0.000362 0.218201 0.385402 0.208173
O25   O     O_R   0.053812 0.279575 0.440467 -0.379816
O26   O     O_R   0.084516 0.158227 0.368773 -0.377862
N2    N     N_R   0.824095 0.081010 0.286279 0.269919
O27   O     O_R   0.890092 0.028141 0.242557 -0.320811
O28   O     O_R   0.778414 0.058600 0.346384 -0.476732
C61   C     C_3   0.885729 0.828062 0.797438 -0.198823
C62   C     C_3   0.043651 0.801478 0.815157 -0.913106
H44   H     H_    0.053624 0.784854 0.869610 0.277652
H45   H     H_    0.058460 0.744738 0.775321 0.269584
H46   H     H_    0.142667 0.858608 0.816044 0.278602
H47   H     H_    0.901070 0.866029 0.752500 0.197201
H48   H     H_    0.866687 0.875519 0.845029 0.219715
C63   C     C_3   0.735399 0.679129 0.825610 -0.493663
C64   C     C_3   0.769905 0.708812 0.907409 -0.673504
H49   H     H_    0.892451 0.705161 0.926186 0.243083
H50   H     H_    0.751220 0.776631 0.925876 0.269353
H51   H     H_    0.693111 0.660896 0.934190 0.261962
H52   H     H_    0.619763 0.631421 0.814788 0.222494
H53   H     H_    0.826105 0.642798 0.807966 0.204561
C65   C     C_3   0.583316 0.789659 0.789699 -0.398577
C66   C     C_3   0.565466 0.868972 0.754355 -0.687619
H54   H     H_    0.673877 0.922099 0.764382 0.284629
H55   H     H_    0.533029 0.847113 0.696060 0.258418
H56   H     H_    0.466878 0.897497 0.777350 0.252063
H57   H     H_    0.477850 0.736948 0.770359 0.211664
H58   H     H_    0.579595 0.812642 0.847874 0.207863
N3    N     N_R   0.524947 0.352558 0.292186 0.225105
O29   O     O_R   0.559610 0.428732 0.334009 -0.367405
O30   O     O_R   0.633154 0.325915 0.254540 -0.393197
N4    N     N_R   0.219504 0.836818 0.171848 0.249190
O31   O     O_R   0.180363 0.911766 0.163895 -0.313291
O32   O     O_R   0.361085 0.824240 0.158423 -0.412908
C67   C     C_3   0.143862 0.350890 0.739672 -0.234023
C68   C     C_3   0.189957 0.395800 0.818808 -0.809140
H59   H     H_    0.085939 0.390238 0.850510 0.225253
H60   H     H_    0.279540 0.368391 0.845494 0.291792
H61   H     H_    0.246454 0.465207 0.822475 0.300141
H62   H     H_    0.243852 0.350453 0.707484 0.284298
H63   H     H_    0.078232 0.394474 0.715539 0.171530
C69   C     C_3   0.871102 0.263978 0.728169 -0.536301
C70   C     C_3   0.790234 0.278224 0.659767 -0.888212
H64   H     H_    0.857713 0.326929 0.631810 0.251035
H65   H     H_    0.721370 0.214579 0.631705 0.247666
H66   H     H_    0.694097 0.307523 0.668066 0.249600
H67   H     H_    0.805681 0.203126 0.741397 0.261116
H68   H     H_    0.866830 0.320071 0.770886 0.177883
N5    N     N_R   0.615341 0.112605 0.800134 0.193355
O33   O     O_R   0.718824 0.102274 0.850181 -0.430893
O34   O     O_R   0.622058 0.073768 0.734155 -0.483779
N6    N     N_R   0.343363 0.115891 0.783895 0.230542
O35   O     O_R   0.296237 0.116491 0.717387 -0.385988
O36   O     O_R   0.278626 0.049426 0.813236 -0.428163
C71   C     C_3   0.502309 0.193475 0.899486 -0.408679
C72   C     C_3   0.359916 0.225057 0.930596 -0.752503
H69   H     H_    0.377313 0.234833 0.990635 0.309991
H70   H     H_    0.354708 0.289142 0.915228 0.260781
H71   H     H_    0.246845 0.175415 0.913324 0.282324
H72   H     H_    0.509777 0.132911 0.922737 0.274263
H73   H     H_    0.612572 0.243489 0.921257 0.188836
N7    N     N_R   0.603936 0.366919 0.117569 0.269987
O37   O     O_R   0.587516 0.281255 0.107250 -0.390301
O38   O     O_R   0.507366 0.404524 0.156033 -0.336741
N8    N     N_R   0.477334 0.436377 0.996046 0.227748
O39   O     O_R   0.434952 0.488882 0.954987 -0.467384
O40   O     O_R   0.369113 0.396627 0.031409 -0.373504
N9    N     N_R   0.602382 0.752096 0.053391 0.232470
O41   O     O_R   0.724698 0.721873 0.074882 -0.432281
O42   O     O_R   0.621692 0.834969 0.046560 -0.329786
C73   C     C_3   0.321680 0.956547 0.395320 -0.412973
C74   C     C_3   0.408093 0.995695 0.336026 -0.645329
H74   H     H_    0.505943 0.051739 0.357502 0.281096
H75   H     H_    0.451796 0.943531 0.300436 0.256323
H76   H     H_    0.323414 0.021896 0.302382 0.277754
H77   H     H_    0.217966 0.913463 0.364204 0.246482
H78   H     H_    0.258472 0.001402 0.426859 0.193412
C75   C     C_3   0.835084 0.916075 0.529735 -0.327785
C76   C     C_3   0.927585 0.956914 0.471329 -0.717836
H79   H     H_    0.922075 0.908092 0.421659 0.272046
H80   H     H_    0.879497 0.008497 0.449719 0.287572
H81   H     H_    0.052456 0.985777 0.493698 0.227876
H82   H     H_    0.859706 0.952414 0.585109 0.154299
H83   H     H_    0.891311 0.863744 0.540109 0.255290

loop_
_geom_bond_atom_site_label_1
_geom_bond_atom_site_label_2
_geom_bond_distance
_ccdc_geom_bond_type
O5    C6    1.387404 S    
C67   C68   1.540372 S    
P7    O22   1.752670 S    
C7    N2    1.455232 S    
C32   C33   1.431480 A    
P3    C54   1.880448 S    
C4    O15   1.405127 S    
C16   N5    1.488101 S    
P4    O12   1.577951 D    
C22   C26   1.412383 A    
C2    H4    1.116881 S    
P1    Ba1   3.560535 S    
O7    Ba1   2.962882 S    
C15   H27   1.091867 S    
C62   H44   1.101874 S    
N8    O40   1.299385 A    
C34   H30   1.071590 S    
C55   C56   1.455776 A    
C56   C75   1.509369 S    
C24   C25   1.410636 A    
C48   C49   1.405036 A    
C4    C5    1.537939 S    
C6    N1    1.453597 S    
C13   C69   1.503456 S    
P5    O18   1.543494 D    
N3    O29   1.291369 A    
Ba1   O13   2.799856 S    
P3    O11   1.749255 S    
O3    P6    1.732251 S    
C23   H29   1.070873 S    
C63   H53   1.087889 S    
C9    C65   1.562053 S    
C5    H10   1.103942 S    
C2    H5    1.118484 S    
O6    P6    1.740984 S    
Ba2   O20   2.856010 S    
C8    C9    1.580298 S    
C75   H82   1.095384 S    
C76   H80   1.094113 S    
O16   P7    1.787610 S    
C19   C20   1.417062 A    
N5    O34   1.306303 A    
C11   N3    1.439985 S    
C42   C43   1.411074 A    
C47   C48   1.397172 A    
C73   H78   1.092771 S    
C44   C45   1.410489 A    
O14   P8    1.806835 S    
N6    O36   1.302352 A    
P1    O1    1.577571 D    
N8    O39   1.298841 A    
C71   H72   1.114828 S    
C43   H33   1.066894 S    
C61   H48   1.112301 S    
C38   C41   1.406919 A    
C15   C16   1.596957 S    
C26   C37   1.395757 A    
C17   C22   1.417834 A    
O17   Ba2   2.827739 S    
C66   H54   1.109727 S    
C74   H74   1.098811 S    
P2    O10   1.757875 S    
C63   C64   1.534288 S    
C66   H55   1.101617 S    
O4    P6    1.545137 D    
N7    O37   1.300291 A    
C1    H18   1.102573 S    
C50   C57   1.584688 S    
Ba1   O20   3.079340 S    
C1    H2    1.108486 S    
C69   H67   1.082949 S    
C68   H61   1.090476 S    
C65   H58   1.104756 S    
O12   Ba2   2.908272 S    
C70   H66   1.027870 S    
C3    N4    1.467087 S    
C51   H36   1.056799 S    
N4    O32   1.304982 A    
P4    C29   1.935505 S    
C35   H31   1.071806 S    
C12   H20   1.107869 S    
N3    O30   1.296800 A    
Ba1   O16   2.856457 S    
C50   C51   1.423165 A    
P4    O13   1.566724 S    
C15   O24   1.422845 S    
C40   C41   1.417822 A    
C62   H45   1.100537 S    
C68   H60   1.085586 S    
C69   C70   1.497516 S    
C11   H19   1.111829 S    
O1    Ba1   2.907507 S    
N7    O38   1.299431 A    
C8    H16   1.112413 S    
P5    O17   1.768527 S    
C12   H21   1.111373 S    
C73   C74   1.525677 S    
C16   C71   1.567703 S    
C37   C38   1.425244 A    
C13   C67   1.549915 S    
C2    C3    1.537483 S    
C13   C14   1.544527 S    
C23   C24   1.407347 A    
C59   H42   1.090696 S    
C76   H81   1.113085 S    
C11   O22   1.398819 S    
O2    Ba2   2.800356 S    
C25   C26   1.427431 A    
O11   C2    1.411720 S    
C55   C58   1.395782 A    
C20   N8    1.450212 S    
C58   H37   1.082236 S    
C17   C31   1.404424 A    
C4    H8    1.105948 S    
C10   H17   1.112709 S    
C33   C46   1.446273 A    
C36   C39   1.397960 A    
C20   C21   1.411168 A    
C14   H23   1.110572 S    
C9    C63   1.551309 S    
C39   H32   1.072751 S    
P1    O2    1.566888 S    
C72   H70   1.093410 S    
C18   C34   1.419202 A    
C54   C58   1.405054 A    
C76   H79   1.103610 S    
C72   H71   1.118534 S    
C53   C57   1.460008 A    
C8    H15   1.110688 S    
C59   H43   1.109719 S    
C32   C42   1.416551 A    
C41   C43   1.407809 A    
C35   C36   1.421387 A    
C64   H51   1.107492 S    
C7    H13   1.115446 S    
C19   N7    1.425174 S    
C66   H56   1.111517 S    
O10   C8    1.391529 S    
C63   H52   1.111223 S    
N9    O41   1.301673 A    
O2    Ba1   3.087290 S    
P8    C27   1.875969 S    
C49   H35   1.060968 S    
C53   C54   1.430336 A    
P2    O20   1.606135 S    
N1    O26   1.301417 A    
C45   H34   1.080449 S    
C65   H57   1.103340 S    
O14   Ba2   2.805248 S    
C74   H75   1.109561 S    
N4    O31   1.306016 A    
N9    O42   1.301457 A    
C47   C52   1.387752 A    
C21   C23   1.400412 A    
C1    H3    1.109899 S    
P3    O8    1.689510 S    
C74   H76   1.114355 S    
C65   C66   1.524820 S    
C3    H7    1.119954 S    
C18   C19   1.420715 A    
C1    C10   1.505166 S    
C25   C30   1.435052 A    
O6    C10   1.400554 S    
C59   C60   1.508161 S    
C40   N9    1.436735 S    
C39   C40   1.408781 A    
C62   H46   1.108654 S    
C68   H59   1.105108 S    
C64   H50   1.106433 S    
C24   C27   1.410673 A    
C14   H24   1.108191 S    
C71   C72   1.522681 S    
C12   H22   1.110869 S    
P4    O15   1.756933 S    
C61   H47   1.110152 S    
C17   C18   1.409570 A    
P1    C46   1.916285 S    
C67   H63   1.096899 S    
Ba2   O21   2.962920 S    
C71   H73   1.118378 S    
Ba1   Ba2   4.723968 S    
C15   H26   1.090535 S    
H1    C10   1.111596 S    
P8    O23   1.535563 D    
O16   Ba2   3.078460 S    
C51   C52   1.403055 A    
O19   C13   1.428578 S    
O8    Ba1   2.827145 S    
C31   C38   1.416991 A    
C70   H64   1.091959 S    
C4    H9    1.104963 S    
C67   H62   1.084552 S    
P5    O19   1.762112 S    
N5    O33   1.308950 A    
C9    C61   1.571445 S    
P5    C48   1.880547 S    
C61   C62   1.528748 S    
C5    C59   1.531216 S    
C72   H69   1.116605 S    
C14   H25   1.079804 S    
C28   H28   1.081690 S    
N2    O28   1.301406 A    
P2    O7    1.575208 D    
P2    Ba1   3.586615 S    
C75   H83   1.063090 S    
N2    O27   1.306239 A    
C6    H12   1.114018 S    
P8    O24   1.842464 S    
P7    C52   1.838720 S    
O13   Ba2   3.088315 S    
C29   C30   1.449877 A    
C73   H77   1.085820 S    
P2    C55   1.959447 S    
C42   C44   1.418106 A    
C60   H41   1.109165 S    
C75   C76   1.547773 S    
C5    H11   1.105895 S    
C31   C32   1.427500 A    
C60   H39   1.099123 S    
C7    H14   1.120318 S    
C33   C34   1.415322 A    
O3    Ba1   2.805924 S    
C11   C12   1.529732 S    
N1    O25   1.292598 A    
P7    O21   1.577363 D    
C27   C28   1.418603 A    
P6    C44   1.878641 S    
C60   H40   1.101733 S    
C21   C22   1.398227 A    
P3    O9    1.518019 D    
C45   C46   1.406542 A    
P1    O5    1.748039 S    
C16   N6    1.465039 S    
C53   C73   1.546079 S    
C3    H6    1.116306 S    
N6    O35   1.297992 A    
C36   C37   1.406402 A    
C64   H49   1.107521 S    
C30   C35   1.412178 A    
C28   C29   1.417858 A    
C49   C50   1.427644 A    
P4    Ba2   3.561232 S    
C69   H68   1.100812 S    
C6    C7    1.555769 S    
C56   C57   1.472827 A    
C70   H65   1.091914 S    
C47   H38   1.080854 S    
