data_mof_unit_pretest_330.cif
_audit_creation_date              2012-12-10T18:10:00-0500
_audit_creation_method            fapswitch 2.2
_symmetry_space_group_name_H-M    P1
_symmetry_Int_Tables_number       1
_space_group_crystal_system       triclinic
_cell_length_a                    18.384224
_cell_length_b                    18.384549
_cell_length_c                    59.875162
_cell_angle_alpha                 90.018482
_cell_angle_beta                  90.012892
_cell_angle_gamma                 89.720914
_cell_volume                      20236.7049307

loop_
_atom_site_label
_atom_site_type_symbol
_atom_type_description
_atom_site_fract_x
_atom_site_fract_y
_atom_site_fract_z
_atom_type_partial_charge
C1    C     C_R   0.500017 0.000012 0.810404 0.773872
C2    C     C_R   0.500002 0.999990 0.189596 0.800925
C3    C     C_R   0.000002 0.499956 0.810404 0.798367
C4    C     C_R   0.999992 0.499998 0.189596 0.772515
C5    C     C_R   1.000000 0.500012 0.310411 0.771105
C6    C     C_R   0.000023 0.500006 0.689586 0.797190
C7    C     C_R   0.500007 0.999997 0.310417 0.799693
C8    C     C_R   0.499991 0.999985 0.689588 0.772669
C9    C     C_R   0.492811 0.065498 0.559310 -0.023364
C10   C     C_R   0.499005 0.933860 0.440635 -0.024188
C11   C     C_R   0.934249 0.495753 0.559327 -0.023649
C12   C     C_R   0.065995 0.496548 0.440678 -0.023443
C13   C     C_R   0.507050 0.934141 0.559293 -0.023222
C14   C     C_R   0.501062 0.065916 0.440656 -0.024196
C15   C     C_R   0.065939 0.505162 0.559332 -0.023906
C16   C     C_R   0.934101 0.504000 0.440673 -0.023442
C17   C     C_R   0.972238 0.559848 0.059295 -0.022043
C18   C     C_R   0.024533 0.438287 0.940616 -0.023060
C19   C     C_R   0.438811 0.024758 0.059365 -0.022899
C20   C     C_R   0.559886 0.971608 0.940702 -0.022047
C21   C     C_R   0.027561 0.439753 0.059303 -0.022046
C22   C     C_R   0.975275 0.561003 0.940610 -0.022844
C23   C     C_R   0.561400 0.975176 0.059376 -0.022894
C24   C     C_R   0.440576 0.028636 0.940695 -0.022164
C25   C     C_R   0.485674 0.130835 0.547618 -0.137134
C26   C     C_R   0.497890 0.868185 0.452324 -0.137092
C27   C     C_R   0.868750 0.491045 0.547622 -0.137190
C28   C     C_R   0.131596 0.492837 0.452384 -0.137084
C29   C     C_R   0.514199 0.868816 0.547583 -0.137258
C30   C     C_R   0.502163 0.131577 0.452366 -0.137082
C31   C     C_R   0.131426 0.509890 0.547631 -0.137139
C32   C     C_R   0.868509 0.507780 0.452373 -0.137079
C33   C     C_R   0.944421 0.619470 0.047622 -0.137893
C34   C     C_R   0.048687 0.377107 0.952287 -0.137945
C35   C     C_R   0.377692 0.049098 0.047688 -0.137887
C36   C     C_R   0.619111 0.942920 0.952378 -0.137865
C37   C     C_R   0.055363 0.380092 0.047636 -0.137892
C38   C     C_R   0.951102 0.622206 0.952276 -0.138100
C39   C     C_R   0.622542 0.950862 0.047709 -0.137890
C40   C     C_R   0.381335 0.057311 0.952364 -0.137800
C41   C     C_R   0.499968 0.999918 0.664942 -0.011609
C42   C     C_R   0.500022 0.999978 0.335070 -0.005451
C43   C     C_R   0.000090 0.500081 0.664939 -0.002309
C44   C     C_R   0.000002 0.500047 0.335054 -0.010127
C45   C     C_R   0.999974 0.499976 0.164966 -0.014865
C46   C     C_R   0.999995 0.499800 0.835031 -0.004920
C47   C     C_R   0.500017 0.999970 0.164969 -0.007773
C48   C     C_R   0.500094 0.000044 0.835034 -0.015730
C49   C     C_R   0.973955 0.561870 0.988066 0.044537
C50   C     C_R   0.027234 0.438166 0.011845 0.044593
C51   C     C_R   0.438931 0.028090 0.988147 0.044574
C52   C     C_R   0.562161 0.973716 0.011924 0.044507
C53   C     C_R   0.025814 0.437526 0.988072 0.044524
C54   C     C_R   0.972534 0.561294 0.011838 0.044597
C55   C     C_R   0.561443 0.972049 0.988155 0.044580
C56   C     C_R   0.438158 0.026351 0.011914 0.044510
C57   C     C_R   0.498542 0.067039 0.488107 0.043962
C58   C     C_R   0.504712 0.932802 0.511840 0.044010
C59   C     C_R   0.932886 0.501584 0.488125 0.043991
C60   C     C_R   0.067213 0.502621 0.511880 0.043962
C61   C     C_R   0.501445 0.932679 0.488087 0.043962
C62   C     C_R   0.495228 0.066888 0.511859 0.043997
C63   C     C_R   0.067246 0.499200 0.488130 0.043983
C64   C     C_R   0.932936 0.498246 0.511876 0.043959
C65   C     C_R   0.999888 0.499685 0.976332 0.071586
C66   C     C_R   0.999887 0.499746 0.023579 0.071496
C67   C     C_R   0.500199 0.000084 0.976414 0.071573
C68   C     C_R   0.500146 0.000017 0.023656 0.071680
C69   C     C_R   0.500004 0.999866 0.476353 0.072612
C70   C     C_R   0.499959 0.999838 0.523594 0.072496
C71   C     C_R   0.000061 0.500365 0.476382 0.072567
C72   C     C_R   0.000079 0.500445 0.523623 0.072578
C73   C     C_R   0.950529 0.622858 0.975467 -0.212525
C74   C     C_R   0.055448 0.379225 0.024444 -0.212589
C75   C     C_R   0.380451 0.057301 0.975556 -0.212701
C76   C     C_R   0.623141 0.950224 0.024516 -0.212652
C77   C     C_R   0.049240 0.376506 0.975479 -0.212495
C78   C     C_R   0.944320 0.620268 0.024431 -0.212599
C79   C     C_R   0.619953 0.942880 0.975570 -0.212727
C80   C     C_R   0.377145 0.049800 0.024496 -0.212643
C81   C     C_R   0.501001 0.132295 0.475575 -0.212974
C82   C     C_R   0.513143 0.867999 0.524375 -0.213195
C83   C     C_R   0.867748 0.506665 0.475583 -0.213181
C84   C     C_R   0.132213 0.508715 0.524422 -0.213143
C85   C     C_R   0.499014 0.867438 0.475533 -0.213002
C86   C     C_R   0.486768 0.131677 0.524410 -0.213141
C87   C     C_R   0.132374 0.494069 0.475593 -0.213174
C88   C     C_R   0.867943 0.492198 0.524413 -0.213173
C89   C     C_R   0.640074 0.859934 0.749998 0.877144
C90   C     C_R   0.359648 0.140360 0.250003 0.936799
C91   C     C_R   0.140777 0.639915 0.749834 0.901825
C92   C     C_R   0.859791 0.359800 0.250000 0.896607
C93   C     C_R   0.359926 0.140070 0.750000 0.881369
C94   C     C_R   0.640355 0.859634 0.250002 0.937056
C95   C     C_R   0.860069 0.359236 0.750159 0.901840
C96   C     C_R   0.140208 0.640203 0.250004 0.896706
C97   C     C_R   0.640360 0.140366 0.250004 0.909213
C98   C     C_R   0.359861 0.859687 0.749975 0.893990
C99   C     C_R   0.140058 0.359939 0.249999 0.877211
C100  C     C_R   0.859657 0.640302 0.749992 0.945587
C101  C     C_R   0.359644 0.859629 0.250001 0.909260
C102  C     C_R   0.640299 0.140153 0.750015 0.894094
C103  C     C_R   0.859939 0.640068 0.249999 0.877519
C104  C     C_R   0.140350 0.359656 0.749998 0.941437
C105  C     C_R   0.764707 0.181336 0.740116 0.317487
C106  C     C_R   0.236473 0.815955 0.261045 0.328306
C107  C     C_R   0.790376 0.737550 0.730471 0.298926
C108  C     C_R   0.212403 0.266951 0.269914 0.350500
C109  C     C_R   0.237138 0.816258 0.739293 0.313490
C110  C     C_R   0.763549 0.184064 0.261042 0.328357
C111  C     C_R   0.210106 0.262505 0.730385 0.324985
C112  C     C_R   0.787612 0.733078 0.269915 0.350441
C113  C     C_R   0.739505 0.791760 0.269335 0.327111
C114  C     C_R   0.268725 0.214237 0.729918 0.352279
C115  C     C_R   0.819179 0.234733 0.258972 0.314229
C116  C     C_R   0.187754 0.759761 0.737009 0.334307
C117  C     C_R   0.260509 0.208265 0.269332 0.327130
C118  C     C_R   0.732236 0.786660 0.729983 0.334791
C119  C     C_R   0.180839 0.765279 0.258980 0.314231
C120  C     C_R   0.815549 0.236956 0.738324 0.330768
C121  C     C_R   0.265311 0.680768 0.241065 0.313755
C122  C     C_R   0.740154 0.312309 0.762944 0.334255
C123  C     C_R   0.291760 0.239500 0.230680 0.326916
C124  C     C_R   0.713328 0.767758 0.769981 0.334066
C125  C     C_R   0.734682 0.319207 0.241055 0.313781
C126  C     C_R   0.263155 0.684356 0.761608 0.330758
C127  C     C_R   0.708226 0.760473 0.230678 0.326840
C128  C     C_R   0.285730 0.231264 0.770075 0.351820
C129  C     C_R   0.237493 0.289906 0.769606 0.324774
C130  C     C_R   0.766936 0.712403 0.230093 0.350125
C131  C     C_R   0.318769 0.735203 0.759806 0.316945
C132  C     C_R   0.683999 0.263578 0.238989 0.328342
C133  C     C_R   0.762295 0.709523 0.769480 0.298575
C134  C     C_R   0.233053 0.287576 0.230095 0.350166
C135  C     C_R   0.683660 0.262924 0.760654 0.312869
C136  C     C_R   0.315988 0.736392 0.238991 0.328317
C137  C     C_R   0.804740 0.302236 0.750462 -0.390177
C138  C     C_R   0.196141 0.696107 0.250017 -0.367606
C139  C     C_R   0.695953 0.804064 0.749987 -0.353324
C140  C     C_R   0.303344 0.196677 0.250006 -0.391268
C141  C     C_R   0.197824 0.695197 0.749501 -0.390307
C142  C     C_R   0.803863 0.303888 0.250006 -0.367635
C143  C     C_R   0.304055 0.195939 0.749997 -0.374138
C144  C     C_R   0.696655 0.803319 0.250006 -0.391390
C145  C     C_R   0.804092 0.695914 0.250003 -0.376849
C146  C     C_R   0.196641 0.303374 0.749995 -0.389066
C147  C     C_R   0.696536 0.196570 0.250012 -0.385594
C148  C     C_R   0.304490 0.803161 0.749777 -0.374589
C149  C     C_R   0.195910 0.304093 0.250003 -0.376735
C150  C     C_R   0.803363 0.696533 0.749981 -0.351432
C151  C     C_R   0.303468 0.803425 0.250010 -0.385573
C152  C     C_R   0.696782 0.195566 0.750179 -0.374458
C153  C     C_R   0.492710 0.064265 0.582789 0.504400
C154  C     C_R   0.498777 0.935100 0.417156 0.504833
C155  C     C_R   0.935491 0.495544 0.582807 0.504106
C156  C     C_R   0.064763 0.496292 0.417199 0.504458
C157  C     C_R   0.507127 0.935352 0.582773 0.504136
C158  C     C_R   0.501317 0.064707 0.417177 0.504837
C159  C     C_R   0.064722 0.505320 0.582812 0.504511
C160  C     C_R   0.935313 0.504128 0.417194 0.504451
C161  C     C_R   0.972965 0.558918 0.082763 0.503388
C162  C     C_R   0.024051 0.439348 0.917149 0.503687
C163  C     C_R   0.439849 0.024186 0.082831 0.503629
C164  C     C_R   0.558935 0.972333 0.917235 0.503261
C165  C     C_R   0.026861 0.440757 0.082770 0.503389
C166  C     C_R   0.975794 0.559899 0.917144 0.503436
C167  C     C_R   0.560314 0.975700 0.082842 0.503637
C168  C     C_R   0.441553 0.027932 0.917228 0.503418
C169  C     C_R   0.564643 0.987063 0.629736 -0.111574
C170  C     C_R   0.565282 0.008900 0.370287 -0.112375
C171  C     C_R   0.011071 0.565180 0.629767 -0.110200
C172  C     C_R   0.986020 0.564570 0.370254 -0.112456
C173  C     C_R   0.435222 0.012578 0.629735 -0.112219
C174  C     C_R   0.434795 0.990981 0.370280 -0.112417
C175  C     C_R   0.989193 0.435309 0.629698 -0.110631
C176  C     C_R   0.014014 0.435650 0.370264 -0.112418
C177  C     C_R   0.065842 0.498959 0.129784 -0.109790
C178  C     C_R   0.065864 0.500799 0.870221 -0.108845
C179  C     C_R   0.500169 0.065856 0.129791 -0.108569
C180  C     C_R   0.500218 0.065986 0.870214 -0.110038
C181  C     C_R   0.934052 0.500880 0.129784 -0.109780
C182  C     C_R   0.934078 0.498439 0.870202 -0.108327
C183  C     C_R   0.499926 0.934044 0.129785 -0.108519
C184  C     C_R   0.500208 0.934194 0.870217 -0.109489
C185  C     C_R   0.564785 0.987336 0.653057 -0.221025
C186  C     C_R   0.565394 0.008728 0.346966 -0.214012
C187  C     C_R   0.010831 0.565202 0.653085 -0.220638
C188  C     C_R   0.986248 0.564659 0.346934 -0.220960
C189  C     C_R   0.435123 0.012417 0.653056 -0.220049
C190  C     C_R   0.434661 0.991202 0.346959 -0.214024
C191  C     C_R   0.989409 0.435069 0.653018 -0.215586
C192  C     C_R   0.013764 0.435477 0.346943 -0.220988
C193  C     C_R   0.065930 0.498919 0.153087 -0.223360
C194  C     C_R   0.065966 0.500969 0.846916 -0.217047
C195  C     C_R   0.500204 0.065953 0.153094 -0.217132
C196  C     C_R   0.500062 0.066027 0.846911 -0.221579
C197  C     C_R   0.933999 0.500998 0.153087 -0.223357
C198  C     C_R   0.934015 0.498430 0.846901 -0.221164
C199  C     C_R   0.499851 0.933973 0.153088 -0.217157
C200  C     C_R   0.500225 0.934092 0.846914 -0.222719
C201  C     C_R   0.499924 0.999801 0.617991 0.321034
C202  C     C_R   0.500044 0.999928 0.382003 0.326435
C203  C     C_R   0.000126 0.500299 0.617999 0.323673
C204  C     C_R   0.000023 0.500132 0.381998 0.322855
C205  C     C_R   0.999938 0.499898 0.118017 0.312842
C206  C     C_R   0.999960 0.499606 0.881950 0.317800
C207  C     C_R   0.500057 0.999944 0.118044 0.315989
C208  C     C_R   0.500238 0.000105 0.881982 0.312621
C209  C     C_R   0.499939 0.999826 0.547378 -0.049879
C210  C     C_R   0.500024 0.999881 0.452570 -0.049542
C211  C     C_R   0.000089 0.500456 0.547406 -0.049678
C212  C     C_R   0.000052 0.500305 0.452599 -0.049865
C213  C     C_R   0.999895 0.499782 0.047368 -0.049834
C214  C     C_R   0.999898 0.499658 0.952544 -0.049427
C215  C     C_R   0.500119 0.999983 0.047441 -0.049492
C216  C     C_R   0.500221 0.000110 0.952627 -0.049885
H1    H     H_    0.384439 0.022502 0.661765 0.169745
H2    H     H_    0.383507 0.984178 0.338258 0.155496
H3    H     H_    0.980825 0.384135 0.661696 0.153477
H4    H     H_    0.024807 0.384976 0.338233 0.168434
H5    H     H_    0.615483 0.977286 0.661767 0.169452
H6    H     H_    0.616539 0.015768 0.338270 0.155502
H7    H     H_    0.019463 0.616057 0.661810 0.148501
H8    H     H_    0.975198 0.615130 0.338217 0.168455
H9    H     H_    0.882347 0.501836 0.161779 0.172267
H10   H     H_    0.882372 0.497237 0.838214 0.150421
H11   H     H_    0.499622 0.882306 0.161778 0.158445
H12   H     H_    0.500252 0.882421 0.838224 0.172742
H13   H     H_    0.117595 0.498105 0.161778 0.172266
H14   H     H_    0.117631 0.502093 0.838232 0.156357
H15   H     H_    0.500420 0.117631 0.161788 0.158440
H16   H     H_    0.499993 0.117677 0.838219 0.172725
H17   H     H_    0.384982 0.022404 0.620764 0.141620
H18   H     H_    0.384197 0.984029 0.379265 0.136965
H19   H     H_    0.980746 0.384966 0.620692 0.138708
H20   H     H_    0.024849 0.385642 0.379244 0.140693
H21   H     H_    0.614868 0.977203 0.620766 0.141810
H22   H     H_    0.615888 0.015835 0.379277 0.136967
H23   H     H_    0.019539 0.615606 0.620818 0.137473
H24   H     H_    0.975193 0.614610 0.379226 0.140684
H25   H     H_    0.882849 0.501346 0.120841 0.147347
H26   H     H_    0.882931 0.497269 0.879158 0.141243
H27   H     H_    0.499626 0.882881 0.120820 0.143287
H28   H     H_    0.499953 0.883013 0.879162 0.147463
H29   H     H_    0.117031 0.498463 0.120840 0.147347
H30   H     H_    0.116994 0.501885 0.879194 0.142431
H31   H     H_    0.500484 0.117010 0.120832 0.143271
H32   H     H_    0.500517 0.117190 0.879156 0.147199
H33   H     H_    0.479148 0.182019 0.556384 0.189723
H34   H     H_    0.496121 0.816661 0.443555 0.189655
H35   H     H_    0.817414 0.486404 0.556379 0.189676
H36   H     H_    0.183038 0.488931 0.443628 0.189679
H37   H     H_    0.520708 0.817622 0.556336 0.189674
H38   H     H_    0.503948 0.183111 0.443614 0.189661
H39   H     H_    0.182768 0.514544 0.556392 0.189697
H40   H     H_    0.817060 0.511645 0.443613 0.189681
H41   H     H_    0.922281 0.666143 0.056393 0.189925
H42   H     H_    0.067338 0.328950 0.943514 0.189941
H43   H     H_    0.329550 0.067783 0.056456 0.189926
H44   H     H_    0.665420 0.920034 0.943609 0.189898
H45   H     H_    0.077507 0.333445 0.056412 0.189926
H46   H     H_    0.932455 0.670342 0.943499 0.189870
H47   H     H_    0.670663 0.932149 0.056486 0.189924
H48   H     H_    0.335043 0.080221 0.943590 0.189952
N1    N     N_R   0.499915 0.999804 0.594001 -0.354716
N2    N     N_R   0.500051 0.999911 0.405968 -0.355942
N3    N     N_R   0.000113 0.500404 0.594020 -0.355495
N4    N     N_R   0.000033 0.500179 0.405982 -0.355019
N5    N     N_R   0.999920 0.499857 0.094008 -0.353228
N6    N     N_R   0.999936 0.499615 0.905929 -0.354579
N7    N     N_R   0.500071 0.999936 0.094059 -0.354317
N8    N     N_R   0.500248 0.000133 0.905990 -0.353259
O1    O     O_3   0.500000 0.000000 0.750000 -0.501447
O2    O     O_3   0.500000 1.000000 0.250000 -0.487333
O3    O     O_3   1.000000 0.500000 0.750000 -0.489709
O4    O     O_3   1.000000 0.500000 0.250000 -0.502444
O5    O     O_R   0.500000 0.060550 0.799700 -0.643907
O6    O     O_R   0.500000 0.939450 0.200300 -0.656982
O7    O     O_R   0.939450 0.500000 0.799700 -0.659281
O8    O     O_R   0.060550 0.500000 0.200300 -0.644931
O9    O     O_R   0.500000 0.939450 0.799700 -0.644599
O10   O     O_R   0.500000 0.060550 0.200300 -0.656946
O11   O     O_R   0.060550 0.500000 0.799700 -0.658547
O12   O     O_R   0.939450 0.500000 0.200300 -0.644995
O13   O     O_R   1.000000 0.560550 0.299700 -0.643863
O14   O     O_R   1.000000 0.439450 0.700300 -0.657869
O15   O     O_R   0.439450 0.000000 0.299700 -0.656394
O16   O     O_R   0.560550 0.000000 0.700300 -0.643636
O17   O     O_R   1.000000 0.439450 0.299700 -0.643755
O18   O     O_R   1.000000 0.560550 0.700300 -0.659209
O19   O     O_R   0.560550 0.000000 0.299700 -0.656413
O20   O     O_R   0.439450 0.000000 0.700300 -0.642984
O21   O     O_R   0.585450 0.853690 0.762850 -0.626982
O22   O     O_R   0.414550 0.146310 0.237150 -0.636848
O23   O     O_R   0.146310 0.585450 0.762850 -0.633730
O24   O     O_R   0.853690 0.414550 0.237150 -0.608432
O25   O     O_R   0.414550 0.146310 0.762850 -0.628083
O26   O     O_R   0.585450 0.853690 0.237150 -0.636865
O27   O     O_R   0.853690 0.414550 0.762850 -0.625588
O28   O     O_R   0.146310 0.585450 0.237150 -0.608351
O29   O     O_R   0.585450 0.146310 0.237150 -0.633349
O30   O     O_R   0.414550 0.853690 0.762850 -0.608766
O31   O     O_R   0.146310 0.414550 0.237150 -0.625074
O32   O     O_R   0.853690 0.585450 0.762850 -0.623457
O33   O     O_R   0.414550 0.853690 0.237150 -0.633427
O34   O     O_R   0.585450 0.146310 0.762850 -0.609331
O35   O     O_R   0.853690 0.585450 0.237150 -0.625152
O36   O     O_R   0.146310 0.414550 0.762850 -0.639844
O37   O     O_R   0.085450 0.353690 0.262850 -0.625477
O38   O     O_R   0.914550 0.646310 0.737150 -0.623851
O39   O     O_R   0.646310 0.085450 0.262850 -0.633594
O40   O     O_R   0.353690 0.914550 0.737150 -0.608576
O41   O     O_R   0.914550 0.646310 0.262850 -0.625594
O42   O     O_R   0.085450 0.353690 0.737150 -0.639887
O43   O     O_R   0.353690 0.914550 0.262850 -0.633520
O44   O     O_R   0.646310 0.085450 0.737150 -0.608023
O45   O     O_R   0.085450 0.646310 0.737150 -0.625861
O46   O     O_R   0.914550 0.353690 0.262850 -0.607474
O47   O     O_R   0.646310 0.914550 0.737150 -0.627572
O48   O     O_R   0.353690 0.085450 0.262850 -0.636882
O49   O     O_R   0.914550 0.353690 0.737150 -0.633949
O50   O     O_R   0.085450 0.646310 0.262850 -0.607552
O51   O     O_R   0.353690 0.085450 0.737150 -0.628519
O52   O     O_R   0.646310 0.914550 0.262850 -0.636879
O53   O     O_2   0.486011 0.127013 0.594329 -0.561835
O54   O     O_2   0.497622 0.872094 0.405592 -0.558655
O55   O     O_2   0.872628 0.490981 0.594346 -0.560118
O56   O     O_2   0.127739 0.492691 0.405663 -0.561600
O57   O     O_2   0.513816 0.872595 0.594297 -0.562234
O58   O     O_2   0.502484 0.127728 0.405634 -0.558645
O59   O     O_2   0.127595 0.509868 0.594356 -0.559441
O60   O     O_2   0.872328 0.507670 0.405653 -0.561600
O61   O     O_2   0.947541 0.616871 0.094254 -0.564717
O62   O     O_2   0.046996 0.380447 0.905627 -0.560598
O63   O     O_2   0.380953 0.047168 0.094344 -0.561056
O64   O     O_2   0.616501 0.946064 0.905743 -0.564491
O65   O     O_2   0.052297 0.382842 0.094268 -0.564720
O66   O     O_2   0.952861 0.618779 0.905618 -0.561555
O67   O     O_2   0.619185 0.952695 0.094366 -0.561070
O68   O     O_2   0.383999 0.054210 0.905730 -0.564164
Zn1   Zn    Zn3+2 0.586770 0.000000 0.731050 0.963803
Zn2   Zn    Zn3+2 0.413230 1.000000 0.268950 0.956994
Zn3   Zn    Zn3+2 1.000000 0.586770 0.731050 0.964521
Zn4   Zn    Zn3+2 0.000000 0.413230 0.268950 0.965389
Zn5   Zn    Zn3+2 0.413230 0.000000 0.731050 0.963464
Zn6   Zn    Zn3+2 0.586770 1.000000 0.268950 0.957021
Zn7   Zn    Zn3+2 0.000000 0.413230 0.731050 0.953887
Zn8   Zn    Zn3+2 1.000000 0.586770 0.268950 0.965383
Zn9   Zn    Zn3+2 0.086770 0.500000 0.231050 0.964446
Zn10  Zn    Zn3+2 0.913230 0.500000 0.768950 0.964764
Zn11  Zn    Zn3+2 0.500000 0.086770 0.231050 0.956764
Zn12  Zn    Zn3+2 0.500000 0.913230 0.768950 0.963126
Zn13  Zn    Zn3+2 0.913230 0.500000 0.231050 0.964417
Zn14  Zn    Zn3+2 0.086770 0.500000 0.768950 0.953720
Zn15  Zn    Zn3+2 0.500000 0.913230 0.231050 0.956802
Zn16  Zn    Zn3+2 0.500000 0.086770 0.768950 0.962755
O69   O     O_3   0.780363 0.114324 0.730673 -0.602157
C217  C     C_3   0.817016 0.071095 0.746643 0.138253
H49   H     H_    0.782629 0.063591 0.761806 0.108849
H50   H     H_    0.869549 0.096607 0.751537 0.153811
C218  C     C_3   0.833026 0.996416 0.736475 -0.308365
H51   H     H_    0.781274 0.970919 0.731061 0.263438
H52   H     H_    0.868377 0.002947 0.721553 0.218106
C219  C     C_3   0.870883 0.946357 0.753212 -1.008444
H53   H     H_    0.924124 0.969512 0.758246 0.269610
H54   H     H_    0.880413 0.892288 0.745486 0.256337
H55   H     H_    0.836476 0.938961 0.768264 0.260538
O70   O     O_3   0.221874 0.880421 0.272218 -0.613090
C220  C     C_3   0.243936 0.874230 0.294853 0.164697
H56   H     H_    0.261219 0.929122 0.300412 0.157728
H57   H     H_    0.292053 0.837731 0.297297 0.107785
C221  C     C_3   0.180897 0.849328 0.309701 -0.350748
H58   H     H_    0.131335 0.881823 0.305843 0.248057
H59   H     H_    0.169201 0.791118 0.306413 0.250421
C222  C     C_3   0.199431 0.857792 0.334411 -0.981306
H60   H     H_    0.248178 0.824643 0.338667 0.272987
H61   H     H_    0.152988 0.838929 0.344712 0.280279
H62   H     H_    0.210202 0.915710 0.338465 0.260306
O71   O     O_3   0.828920 0.723482 0.711063 -0.613802
C223  C     C_3   0.878383 0.780866 0.707368 0.160729
H63   H     H_    0.918039 0.784517 0.721407 0.143116
H64   H     H_    0.849585 0.834001 0.705656 0.170027
C224  C     C_3   0.920235 0.766243 0.685804 -0.320773
H65   H     H_    0.953183 0.715794 0.687729 0.230224
H66   H     H_    0.881203 0.758102 0.671851 0.229860
C225  C     C_3   0.970172 0.829651 0.680105 -0.993631
H67   H     H_    0.008120 0.840439 0.694135 0.283746
H68   H     H_    0.937563 0.879510 0.676778 0.271684
H69   H     H_    0.002253 0.816327 0.664933 0.269842
O72   O     O_3   0.178174 0.284300 0.289857 -0.616473
C226  C     C_3   0.210087 0.347009 0.299398 0.125580
H70   H     H_    0.167893 0.373835 0.309878 0.163770
H71   H     H_    0.227148 0.388126 0.286775 0.090745
C227  C     C_3   0.274600 0.326102 0.314313 -0.334184
H72   H     H_    0.257530 0.283375 0.326326 0.248420
H73   H     H_    0.319452 0.304007 0.303848 0.233600
C228  C     C_3   0.302733 0.391687 0.327267 -0.953338
H74   H     H_    0.320618 0.434950 0.315579 0.257127
H75   H     H_    0.349842 0.374978 0.337712 0.279898
H76   H     H_    0.259508 0.413716 0.338368 0.276053
O73   O     O_3   0.220720 0.883076 0.729868 -0.596348
C229  C     C_3   0.181680 0.924729 0.745707 0.139765
H77   H     H_    0.213820 0.931106 0.761392 0.107363
H78   H     H_    0.128685 0.898477 0.749657 0.152663
C230  C     C_3   0.166677 0.000199 0.736036 -0.311937
H79   H     H_    0.219023 0.026425 0.731591 0.258191
H80   H     H_    0.133501 0.994900 0.720601 0.227753
C231  C     C_3   0.126208 0.048358 0.752725 -1.009023
H81   H     H_    0.072273 0.024683 0.756711 0.270225
H82   H     H_    0.117836 0.103235 0.745469 0.265283
H83   H     H_    0.158255 0.054089 0.768335 0.260099
O74   O     O_3   0.778171 0.119617 0.272212 -0.613020
C232  C     C_3   0.756153 0.125846 0.294848 0.164656
H84   H     H_    0.738885 0.070963 0.300406 0.157700
H85   H     H_    0.708038 0.162346 0.297295 0.107770
C233  C     C_3   0.819220 0.150779 0.309694 -0.350698
H86   H     H_    0.868773 0.118272 0.305835 0.248036
H87   H     H_    0.830913 0.208981 0.306404 0.250431
C234  C     C_3   0.800730 0.142374 0.334405 -0.981292
H88   H     H_    0.751994 0.175538 0.338661 0.272984
H89   H     H_    0.847193 0.161257 0.344703 0.280274
H90   H     H_    0.789961 0.084466 0.338460 0.260313
O75   O     O_3   0.172628 0.276222 0.710720 -0.619716
C235  C     C_3   0.110565 0.230853 0.709301 0.186110
H91   H     H_    0.067154 0.262683 0.700786 0.169512
H92   H     H_    0.087979 0.215063 0.725908 0.121473
C236  C     C_3   0.126419 0.162783 0.695344 -0.355285
H93   H     H_    0.151849 0.178721 0.679244 0.245758
H94   H     H_    0.164577 0.126671 0.704489 0.253697
C237  C     C_3   0.056939 0.120342 0.690646 -0.993960
H95   H     H_    0.030148 0.104553 0.706545 0.278482
H96   H     H_    0.070395 0.070195 0.681137 0.274978
H97   H     H_    0.018759 0.153829 0.680559 0.271003
O76   O     O_3   0.821852 0.715748 0.289860 -0.616483
C238  C     C_3   0.789927 0.653062 0.299394 0.125474
H98   H     H_    0.832146 0.626190 0.309854 0.163747
H99   H     H_    0.772761 0.611966 0.286767 0.090885
C239  C     C_3   0.725507 0.674027 0.314333 -0.334029
H100  H     H_    0.742675 0.716740 0.326349 0.248357
H101  H     H_    0.680624 0.696163 0.303887 0.233685
C240  C     C_3   0.697378 0.608470 0.327285 -0.953329
H102  H     H_    0.679389 0.565225 0.315595 0.257078
H103  H     H_    0.650340 0.625225 0.337750 0.279913
H104  H     H_    0.740640 0.586398 0.338366 0.276052
O77   O     O_3   0.728274 0.831504 0.288721 -0.618335
C241  C     C_3   0.774334 0.893221 0.288989 0.187328
H105  H     H_    0.744274 0.937439 0.297692 0.167564
H106  H     H_    0.787474 0.914406 0.271989 0.121201
C242  C     C_3   0.844567 0.877832 0.301958 -0.352684
H107  H     H_    0.831230 0.853367 0.318420 0.246230
H108  H     H_    0.878904 0.839004 0.292459 0.251899
C243  C     C_3   0.888120 0.947280 0.305617 -0.998826
H109  H     H_    0.900662 0.973626 0.289375 0.280050
H110  H     H_    0.940109 0.933947 0.314165 0.275345
H111  H     H_    0.856881 0.985751 0.316248 0.272241
O78   O     O_3   0.288036 0.181910 0.709843 -0.617504
C244  C     C_3   0.351933 0.214372 0.701278 0.122803
H112  H     H_    0.379368 0.173311 0.690524 0.163280
H113  H     H_    0.391979 0.229340 0.714474 0.090805
C245  C     C_3   0.333149 0.281017 0.687003 -0.330904
H114  H     H_    0.292159 0.265783 0.674199 0.248177
H115  H     H_    0.309627 0.324391 0.697760 0.233407
C246  C     C_3   0.400538 0.310869 0.675374 -0.957298
H116  H     H_    0.441962 0.327151 0.687901 0.256833
H117  H     H_    0.385320 0.359361 0.665326 0.279186
H118  H     H_    0.424282 0.269188 0.664048 0.276082
O79   O     O_3   0.887542 0.217699 0.267169 -0.602016
C247  C     C_3   0.927223 0.181238 0.250329 0.136923
H119  H     H_    0.933119 0.216557 0.235303 0.107470
H120  H     H_    0.899808 0.129608 0.245501 0.156824
C248  C     C_3   0.002910 0.162960 0.259293 -0.318766
H121  H     H_    0.030783 0.213981 0.264237 0.254054
H122  H     H_    0.997616 0.127859 0.274313 0.229775
C249  C     C_3   0.049003 0.123488 0.241866 -1.009090
H123  H     H_    0.023542 0.070879 0.237293 0.270553
H124  H     H_    0.103986 0.112522 0.248767 0.265267
H125  H     H_    0.054842 0.157503 0.226671 0.261037
O80   O     O_3   0.127507 0.770758 0.723501 -0.606320
C250  C     C_3   0.140591 0.739739 0.702157 0.154496
H126  H     H_    0.087293 0.722399 0.695315 0.172796
H127  H     H_    0.175191 0.689647 0.702739 0.105232
C251  C     C_3   0.174082 0.795475 0.686197 -0.352974
H128  H     H_    0.141193 0.846334 0.686372 0.246634
H129  H     H_    0.230192 0.808575 0.691704 0.243893
C252  C     C_3   0.177534 0.765990 0.662389 -0.963339
H130  H     H_    0.211753 0.716060 0.661785 0.271489
H131  H     H_    0.201834 0.807506 0.651224 0.278564
H132  H     H_    0.122114 0.753027 0.656216 0.261698
O81   O     O_3   0.271759 0.168554 0.288717 -0.618332
C253  C     C_3   0.225701 0.106838 0.288982 0.187405
H133  H     H_    0.255776 0.062632 0.297682 0.167606
H134  H     H_    0.212534 0.085629 0.271981 0.121144
C254  C     C_3   0.155489 0.122243 0.301953 -0.352697
H135  H     H_    0.168852 0.146743 0.318415 0.246255
H136  H     H_    0.121130 0.161045 0.292455 0.251882
C255  C     C_3   0.111952 0.052796 0.305613 -0.998848
H137  H     H_    0.099395 0.026407 0.289372 0.280003
H138  H     H_    0.059971 0.066141 0.314159 0.275359
H139  H     H_    0.143211 0.014357 0.316246 0.272257
O82   O     O_3   0.714591 0.820602 0.710005 -0.616972
C256  C     C_3   0.651022 0.789335 0.700792 0.132711
H140  H     H_    0.625177 0.831095 0.689928 0.163436
H141  H     H_    0.609608 0.774718 0.713603 0.088389
C257  C     C_3   0.669969 0.722772 0.686482 -0.337871
H142  H     H_    0.712122 0.737727 0.674015 0.247480
H143  H     H_    0.692050 0.678794 0.697287 0.234336
C258  C     C_3   0.603039 0.694145 0.674308 -0.955933
H144  H     H_    0.560535 0.678068 0.686509 0.257329
H145  H     H_    0.618331 0.645737 0.664226 0.279266
H146  H     H_    0.580645 0.736447 0.662946 0.276431
O83   O     O_3   0.112490 0.782320 0.267180 -0.602058
C259  C     C_3   0.072801 0.818822 0.250352 0.136748
H147  H     H_    0.067007 0.783594 0.235293 0.107352
H148  H     H_    0.100150 0.870526 0.245579 0.157127
C260  C     C_3   0.997054 0.836914 0.259296 -0.318840
H149  H     H_    0.969235 0.785809 0.264173 0.254090
H150  H     H_    0.002239 0.871884 0.274356 0.229845
C261  C     C_3   0.950972 0.876479 0.241887 -1.009096
H151  H     H_    0.976280 0.929251 0.237427 0.270635
H152  H     H_    0.895887 0.887135 0.248751 0.265219
H153  H     H_    0.945394 0.842677 0.226631 0.261026
O84   O     O_3   0.879119 0.223355 0.726563 -0.611901
C262  C     C_3   0.871880 0.248465 0.704268 0.166870
H154  H     H_    0.926095 0.268524 0.698944 0.161173
H155  H     H_    0.833511 0.295421 0.702443 0.104350
C263  C     C_3   0.849393 0.186582 0.688625 -0.351968
H156  H     H_    0.884045 0.137962 0.691796 0.245838
H157  H     H_    0.791802 0.171993 0.691812 0.252441
C264  C     C_3   0.856741 0.208871 0.664179 -0.979786
H158  H     H_    0.821640 0.256825 0.660597 0.273286
H159  H     H_    0.839581 0.163191 0.653279 0.280145
H160  H     H_    0.914130 0.222476 0.660241 0.259424
O85   O     O_3   0.282353 0.612382 0.232886 -0.602613
C265  C     C_3   0.318806 0.572754 0.249737 0.137346
H161  H     H_    0.283485 0.566912 0.264766 0.108151
H162  H     H_    0.370441 0.600180 0.254555 0.157068
C266  C     C_3   0.337081 0.497036 0.240793 -0.319728
H163  H     H_    0.286059 0.469150 0.235853 0.253966
H164  H     H_    0.372192 0.502282 0.225774 0.229820
C267  C     C_3   0.376537 0.450996 0.258234 -1.008326
H165  H     H_    0.429046 0.476574 0.262849 0.270680
H166  H     H_    0.387694 0.396062 0.251325 0.265239
H167  H     H_    0.342421 0.445035 0.273403 0.261145
O86   O     O_3   0.729150 0.372549 0.776454 -0.606677
C268  C     C_3   0.759880 0.359323 0.797828 0.155775
H168  H     H_    0.777163 0.412568 0.804719 0.173317
H169  H     H_    0.809963 0.324704 0.797283 0.104659
C269  C     C_3   0.703914 0.325777 0.813705 -0.350505
H170  H     H_    0.653009 0.358590 0.813445 0.246873
H171  H     H_    0.690996 0.269636 0.808187 0.242739
C270  C     C_3   0.732978 0.322396 0.837561 -0.972374
H172  H     H_    0.782966 0.288278 0.838247 0.270201
H173  H     H_    0.691311 0.298015 0.848656 0.277118
H174  H     H_    0.745709 0.377847 0.843754 0.263282
O87   O     O_3   0.331481 0.228246 0.211295 -0.618341
C271  C     C_3   0.393170 0.274339 0.211027 0.186594
H175  H     H_    0.437367 0.244317 0.202304 0.167048
H176  H     H_    0.414416 0.287463 0.228026 0.121470
C272  C     C_3   0.377687 0.344585 0.198084 -0.351618
H177  H     H_    0.353159 0.331262 0.181623 0.247491
H178  H     H_    0.338881 0.378884 0.207604 0.251672
C273  C     C_3   0.447097 0.388181 0.194423 -0.998582
H179  H     H_    0.473516 0.400698 0.210662 0.279757
H180  H     H_    0.433697 0.440182 0.185898 0.275561
H181  H     H_    0.485533 0.356986 0.183769 0.272404
O88   O     O_3   0.679515 0.785508 0.789972 -0.615888
C274  C     C_3   0.711066 0.848956 0.799173 0.133212
H182  H     H_    0.669521 0.874857 0.810103 0.166539
H183  H     H_    0.725592 0.890386 0.786357 0.087287
C275  C     C_3   0.777792 0.829803 0.813386 -0.334606
H184  H     H_    0.762895 0.787699 0.825874 0.249705
H185  H     H_    0.821546 0.807587 0.802520 0.233107
C276  C     C_3   0.806818 0.896642 0.825518 -0.956403
H186  H     H_    0.822853 0.939085 0.813292 0.256262
H187  H     H_    0.855329 0.881197 0.835531 0.279369
H188  H     H_    0.764761 0.919179 0.836940 0.276887
O89   O     O_3   0.717636 0.387570 0.232871 -0.602653
C277  C     C_3   0.681196 0.427249 0.249716 0.137219
H189  H     H_    0.716481 0.433037 0.264761 0.108029
H190  H     H_    0.629509 0.399898 0.254506 0.157278
C278  C     C_3   0.663070 0.502996 0.240781 -0.319721
H191  H     H_    0.714157 0.530810 0.235883 0.254041
H192  H     H_    0.628033 0.497812 0.225737 0.229854
C279  C     C_3   0.623584 0.549085 0.258208 -1.008220
H193  H     H_    0.570837 0.523772 0.262696 0.270765
H194  H     H_    0.612886 0.604162 0.251347 0.265119
H195  H     H_    0.657460 0.554678 0.273448 0.261082
O90   O     O_3   0.276798 0.620750 0.773343 -0.612024
C280  C     C_3   0.251957 0.627995 0.795667 0.167945
H196  H     H_    0.231895 0.573798 0.801006 0.161438
H197  H     H_    0.205066 0.666415 0.797548 0.103872
C281  C     C_3   0.314052 0.650390 0.811245 -0.351047
H198  H     H_    0.362594 0.615682 0.808014 0.246024
H199  H     H_    0.328672 0.707966 0.808051 0.251487
C282  C     C_3   0.292045 0.643058 0.835715 -0.985039
H200  H     H_    0.244211 0.678260 0.839357 0.271665
H201  H     H_    0.337895 0.660111 0.846563 0.279288
H202  H     H_    0.278366 0.585697 0.839662 0.260852
O91   O     O_3   0.668487 0.771699 0.211292 -0.618348
C283  C     C_3   0.606797 0.725605 0.211019 0.186483
H203  H     H_    0.562591 0.755612 0.202295 0.167006
H204  H     H_    0.585568 0.712508 0.228016 0.121531
C284  C     C_3   0.622269 0.655339 0.198073 -0.351595
H205  H     H_    0.646750 0.668641 0.181610 0.247434
H206  H     H_    0.661112 0.621071 0.207587 0.251714
C285  C     C_3   0.552864 0.611714 0.194418 -0.998519
H207  H     H_    0.526500 0.599209 0.210660 0.279809
H208  H     H_    0.566258 0.559706 0.185888 0.275540
H209  H     H_    0.514386 0.642880 0.183772 0.272383
O92   O     O_3   0.317932 0.211860 0.790159 -0.616751
C286  C     C_3   0.285285 0.148020 0.798697 0.123434
H210  H     H_    0.326175 0.120570 0.809505 0.166134
H211  H     H_    0.270467 0.107961 0.785489 0.089752
C287  C     C_3   0.218459 0.166890 0.812888 -0.327687
H212  H     H_    0.233547 0.207919 0.825697 0.250422
H213  H     H_    0.175233 0.190391 0.802072 0.232382
C288  C     C_3   0.188414 0.099563 0.824501 -0.958164
H214  H     H_    0.172282 0.058098 0.811968 0.255850
H215  H     H_    0.139793 0.114844 0.834483 0.279306
H216  H     H_    0.229928 0.075843 0.835887 0.276312
O93   O     O_3   0.223759 0.327379 0.789272 -0.619582
C289  C     C_3   0.269170 0.389407 0.790703 0.185100
H217  H     H_    0.237393 0.432797 0.799250 0.168705
H218  H     H_    0.284909 0.412054 0.774099 0.121846
C290  C     C_3   0.337285 0.373454 0.804627 -0.353877
H219  H     H_    0.321391 0.347993 0.820726 0.247233
H220  H     H_    0.373327 0.335293 0.795454 0.253545
C291  C     C_3   0.379811 0.442879 0.809327 -0.993596
H221  H     H_    0.395555 0.469703 0.793429 0.278192
H222  H     H_    0.429989 0.429350 0.818810 0.275299
H223  H     H_    0.346402 0.481057 0.819441 0.271118
O94   O     O_3   0.784366 0.678274 0.210138 -0.615859
C292  C     C_3   0.846987 0.710396 0.200624 0.125799
H224  H     H_    0.873868 0.668348 0.190101 0.167032
H225  H     H_    0.888104 0.727415 0.213263 0.089836
C293  C     C_3   0.825926 0.775008 0.185776 -0.330756
H226  H     H_    0.783165 0.757984 0.173758 0.250589
H227  H     H_    0.803822 0.819746 0.196288 0.232540
C294  C     C_3   0.891409 0.803346 0.172830 -0.953376
H228  H     H_    0.934708 0.821183 0.184523 0.255715
H229  H     H_    0.874585 0.850525 0.162439 0.280007
H230  H     H_    0.913442 0.760253 0.161679 0.277018
O95   O     O_3   0.385858 0.719489 0.769187 -0.602736
C295  C     C_3   0.428966 0.682978 0.753154 0.138870
H231  H     H_    0.436374 0.717509 0.738018 0.109277
H232  H     H_    0.403402 0.630501 0.748228 0.153932
C296  C     C_3   0.503715 0.666844 0.763253 -0.309557
H233  H     H_    0.529286 0.718536 0.768688 0.263181
H234  H     H_    0.497283 0.631375 0.778153 0.218221
C297  C     C_3   0.553616 0.629093 0.746447 -1.008276
H235  H     H_    0.530409 0.575889 0.741399 0.269848
H236  H     H_    0.607757 0.619511 0.754116 0.256187
H237  H     H_    0.560872 0.663596 0.731411 0.260680
O96   O     O_3   0.619519 0.278187 0.227825 -0.613210
C298  C     C_3   0.625734 0.256277 0.205176 0.165767
H238  H     H_    0.570859 0.238977 0.199608 0.158025
H239  H     H_    0.662280 0.208210 0.202703 0.107236
C299  C     C_3   0.650577 0.319436 0.190367 -0.350115
H240  H     H_    0.618054 0.368950 0.194264 0.248254
H241  H     H_    0.708786 0.331144 0.193653 0.249409
C300  C     C_3   0.642104 0.301079 0.165645 -0.986390
H242  H     H_    0.675303 0.252401 0.161351 0.271518
H243  H     H_    0.660910 0.347617 0.155377 0.279357
H244  H     H_    0.584193 0.290279 0.161591 0.261711
O97   O     O_3   0.775982 0.670701 0.788857 -0.613300
C301  C     C_3   0.718339 0.621419 0.792408 0.161397
H245  H     H_    0.714738 0.581978 0.778309 0.142591
H246  H     H_    0.665294 0.650407 0.794093 0.170091
C302  C     C_3   0.732477 0.579192 0.813925 -0.321034
H247  H     H_    0.782807 0.546091 0.811996 0.228317
H248  H     H_    0.740591 0.617961 0.827949 0.231511
C303  C     C_3   0.668807 0.529395 0.819462 -0.991347
H249  H     H_    0.658174 0.491619 0.805375 0.283702
H250  H     H_    0.618983 0.562119 0.822735 0.271789
H251  H     H_    0.681748 0.497119 0.834624 0.269990
O98   O     O_3   0.215620 0.321685 0.210141 -0.615854
C304  C     C_3   0.152978 0.289578 0.200621 0.125897
H252  H     H_    0.126139 0.331606 0.190084 0.167041
H253  H     H_    0.111841 0.272651 0.213255 0.089725
C305  C     C_3   0.173986 0.224886 0.185788 -0.330905
H254  H     H_    0.216749 0.241830 0.173768 0.250612
H255  H     H_    0.196072 0.180181 0.196311 0.232503
C306  C     C_3   0.108474 0.196531 0.172845 -0.953364
H256  H     H_    0.065179 0.178762 0.184540 0.255749
H257  H     H_    0.125262 0.149300 0.162463 0.279998
H258  H     H_    0.086451 0.239589 0.161686 0.277023
O99   O     O_3   0.616820 0.279343 0.770068 -0.597132
C307  C     C_3   0.575185 0.318350 0.754219 0.139967
H259  H     H_    0.568819 0.286174 0.738541 0.108037
H260  H     H_    0.601446 0.371333 0.750261 0.152793
C308  C     C_3   0.499709 0.333381 0.763885 -0.312836
H261  H     H_    0.473474 0.281048 0.768338 0.258153
H262  H     H_    0.505005 0.366588 0.779315 0.227752
C309  C     C_3   0.451560 0.373822 0.747189 -1.008283
H263  H     H_    0.475269 0.427724 0.743183 0.270344
H264  H     H_    0.396695 0.382260 0.754450 0.265198
H265  H     H_    0.445791 0.341720 0.731590 0.260149
O100  O     O_3   0.380456 0.721756 0.227831 -0.613193
C310  C     C_3   0.374213 0.743604 0.205180 0.165709
H266  H     H_    0.429082 0.760884 0.199612 0.157990
H267  H     H_    0.337667 0.791666 0.202704 0.107232
C311  C     C_3   0.349347 0.680404 0.190375 -0.350062
H268  H     H_    0.381880 0.630903 0.194273 0.248228
H269  H     H_    0.291144 0.668701 0.193663 0.249415
C312  C     C_3   0.357772 0.698698 0.165652 -0.986369
H270  H     H_    0.324559 0.747361 0.161356 0.271512
H271  H     H_    0.338952 0.652130 0.155386 0.279348
H272  H     H_    0.415674 0.709494 0.161595 0.261716
H273  H     H_    0.931883 0.672807 0.982918 0.141760
H274  H     H_    0.078907 0.331327 0.016995 0.141624
H275  H     H_    0.332998 0.081601 0.983022 0.141712
H276  H     H_    0.673076 0.931604 0.017052 0.141867
H277  H     H_    0.067876 0.326574 0.982935 0.141768
H278  H     H_    0.920853 0.668142 0.016976 0.141614
H279  H     H_    0.667398 0.918575 0.983041 0.141694
H280  H     H_    0.327224 0.068432 0.017022 0.141875
H281  H     H_    0.503515 0.185305 0.483162 0.142736
H282  H     H_    0.520533 0.815396 0.516790 0.142736
H283  H     H_    0.814854 0.511348 0.483165 0.142745
H284  H     H_    0.184981 0.514163 0.516838 0.142808
H285  H     H_    0.496492 0.814419 0.483103 0.142716
H286  H     H_    0.479384 0.184287 0.516839 0.142760
H287  H     H_    0.185274 0.489426 0.483181 0.142757
H288  H     H_    0.815166 0.486756 0.516826 0.142816

loop_
_geom_bond_atom_site_label_1
_geom_bond_atom_site_label_2
_ccdc_geom_bond_type
C298  C299  S    
O4    Zn9   S    
O35   Zn13  S    
O69   C217  S    
C158  N2    A    
C226  C227  S    
C104  O42   A    
C244  H112  S    
C194  H14   S    
O91   C283  S    
C10   C154  A    
C95   O49   A    
C179  C195  A    
C280  H196  S    
C162  O62   S    
C266  C267  S    
C306  H257  S    
O2    Zn2   S    
C177  C193  A    
C124  C133  A    
C14   C158  A    
C18   C162  A    
C47   C195  A    
O93   C289  S    
C58   C82   A    
O38   Zn3   S    
C131  O95   S    
C33   C78   A    
C46   C198  A    
C57   C62   A    
C60   C72   A    
C275  H185  S    
C22   C38   A    
C35   C80   A    
C268  C269  S    
C221  H58   S    
C62   C70   A    
C217  C218  S    
C173  C201  A    
O82   C256  S    
C7    C42   S    
C130  O94   S    
C289  H217  S    
C241  C242  S    
C101  O43   A    
C107  C150  A    
C25   H33   S    
C217  H49   S    
C307  C308  S    
C102  O44   A    
C245  H114  S    
C242  H108  S    
C119  O83   S    
C311  H269  S    
C29   H37   S    
C301  H246  S    
C180  C196  A    
C22   C214  A    
C125  O89   S    
C220  C221  S    
C58   C61   A    
C305  H255  S    
C170  H22   S    
C232  H85   S    
O15   Zn2   S    
C185  H5    S    
C93   O25   A    
C201  N1    S    
C174  H18   S    
O70   C220  S    
C271  H176  S    
C270  H174  S    
C205  N5    S    
C204  N4    S    
C132  O96   S    
C158  O58   S    
C218  C219  S    
C179  C207  A    
C50   C53   A    
C110  O74   S    
C123  C134  A    
C246  H116  S    
O2    Zn6   S    
C303  H251  S    
O71   C223  S    
C234  H90   S    
C301  C302  S    
C2    O10   A    
C76   H276  S    
O5    Zn16  S    
C58   C70   A    
C240  H104  S    
C23   C215  A    
C285  H209  S    
C100  C150  S    
C101  C151  S    
C255  H139  S    
C90   O22   A    
C309  H265  S    
C135  O99   S    
C100  O32   A    
C276  H188  S    
C225  H68   S    
C278  H191  S    
C1    O5    A    
C13   C209  A    
C284  H206  S    
C258  H145  S    
C99   C149  S    
C84   H284  S    
C3    O7    A    
C11   C27   A    
O44   Zn1   S    
C259  H147  S    
C273  H179  S    
C224  H65   S    
C285  H208  S    
C292  H224  S    
C61   C85   A    
C302  H247  S    
C23   C167  A    
C180  H32   S    
C243  H110  S    
C286  H211  S    
C121  O85   S    
C302  C303  S    
C251  H129  S    
C254  H136  S    
C4    O8    A    
C244  C245  S    
C133  O97   S    
C300  H244  S    
C225  H69   S    
C253  H133  S    
O95   C295  S    
C82   H282  S    
C257  H142  S    
C81   H281  S    
C299  H240  S    
C280  C281  S    
C5    O17   A    
C296  H234  S    
C32   C83   A    
C267  H165  S    
C241  H106  S    
C126  C141  A    
C159  O59   S    
C78   H278  S    
C122  C137  A    
O14   Zn7   S    
C77   H277  S    
C90   C140  S    
C222  H60   S    
C113  C144  A    
C1    C48   S    
C124  O88   S    
C261  H151  S    
C75   H275  S    
C2    C47   S    
C252  H132  S    
C251  C252  S    
C288  H214  S    
C3    C46   S    
C221  C222  S    
C41   C189  A    
C94   C144  S    
C233  H86   S    
C66   C213  A    
C38   H46   S    
C29   C82   A    
C19   C35   A    
C300  H242  S    
C114  C143  A    
C1    O9    A    
C249  H123  S    
C94   O52   A    
C178  C206  A    
C269  H171  S    
C19   C215  A    
O77   C241  S    
C98   O30   A    
C237  H96   S    
C170  C202  A    
C153  O53   S    
C297  H235  S    
C308  H261  S    
C8    O16   A    
O19   Zn6   S    
C310  H266  S    
C282  H202  S    
C283  H203  S    
C12   C28   A    
O9    Zn12  S    
C295  H232  S    
C274  C275  S    
C33   H41   S    
C265  H161  S    
C203  N3    S    
C230  H79   S    
C44   C192  A    
C6    O18   A    
C223  H63   S    
C290  H220  S    
C277  H190  S    
O11   Zn14  S    
C108  O72   S    
C304  H252  S    
C259  H148  S    
C16   C160  A    
C183  C207  A    
C124  C139  A    
C234  H88   S    
C260  C261  S    
C181  C197  A    
C128  C129  A    
C261  H153  S    
C294  H229  S    
O73   C229  S    
O4    Zn8   S    
C55   C79   A    
O32   Zn10  S    
C27   C88   A    
C287  C288  S    
C163  O63   S    
O74   C232  S    
C50   C74   A    
C96   C138  S    
C262  C263  S    
C277  C278  S    
C101  O33   A    
C45   C197  A    
C135  C152  A    
C259  C260  S    
O51   Zn5   S    
C291  H221  S    
C276  H187  S    
C91   O23   A    
C68   C215  A    
C292  C293  S    
C27   H35   S    
O28   Zn9   S    
C126  O90   S    
C309  H263  S    
C10   C210  A    
C123  O87   S    
O4    Zn13  S    
C196  H16   S    
C118  O82   S    
O78   C244  S    
C312  H271  S    
C265  C266  S    
C112  C145  A    
C231  H83   S    
C105  C120  A    
C113  O77   S    
C107  C118  A    
C311  C312  S    
C257  C258  S    
C11   C155  A    
O18   Zn3   S    
C228  H75   S    
C307  H260  S    
C9    C153  A    
C178  H30   S    
C256  H140  S    
O47   Zn1   S    
C97   C147  S    
C47   C199  A    
C67   C216  A    
C18   C214  A    
C183  H27   S    
C12   C156  A    
C279  H195  S    
C13   C157  A    
O1    Zn16  S    
O3    Zn14  S    
C181  H25   S    
C46   C194  A    
C272  C273  S    
C4    C45   S    
C184  H28   S    
C288  H216  S    
C109  O73   S    
C95   C137  S    
C292  H225  S    
C195  H15   S    
C253  H134  S    
C233  C234  S    
C104  C146  S    
O3    Zn7   S    
C8    C41   S    
C227  H72   S    
C230  C231  S    
O23   Zn14  S    
C51   C67   A    
C56   C68   A    
C134  C149  A    
O46   Zn4   S    
C166  O66   S    
C31   C84   A    
O21   Zn12  S    
C163  N7    A    
C182  C206  A    
C303  H250  S    
C278  C279  S    
C217  H50   S    
C252  H130  S    
C18   C34   A    
C273  H180  S    
C282  H200  S    
C156  N4    A    
C283  C284  S    
C298  H239  S    
C28   C87   A    
C96   O50   A    
C264  H158  S    
O31   Zn9   S    
O25   Zn16  S    
C106  O70   S    
C94   O26   A    
C287  H213  S    
C202  N2    S    
C289  H218  S    
C93   O51   A    
C17   C161  A    
C223  C224  S    
C172  H24   S    
C235  H91   S    
C160  N4    A    
C304  C305  S    
C263  H157  S    
C260  H149  S    
C103  C145  S    
C293  H227  S    
C229  H77   S    
C222  H62   S    
O10   Zn11  S    
C226  H71   S    
C122  O86   S    
O88   C274  S    
C132  C147  A    
C108  C117  A    
O24   Zn13  S    
C133  C150  A    
C86   H286  S    
C243  H109  S    
C52   C76   A    
C85   H285  S    
C92   O46   A    
C2    O6    A    
C262  H154  S    
C15   C31   A    
C54   C66   A    
C115  O79   S    
C16   C32   A    
C56   C80   A    
C272  H177  S    
C31   H39   S    
C308  C309  S    
C256  H141  S    
O43   Zn2   S    
O7    Zn10  S    
C228  H74   S    
C24   C216  A    
C80   H280  S    
C187  H7    S    
C275  C276  S    
C26   C85   A    
C4    O12   A    
C221  H59   S    
O37   Zn4   S    
C21   C213  A    
C36   H44   S    
O80   C250  S    
C309  H264  S    
C7    O15   A    
O84   C262  S    
C198  H10   S    
O30   Zn12  S    
C247  H119  S    
C242  H107  S    
C88   H288  S    
C256  C257  S    
C224  C225  S    
C69   C210  A    
C238  H99   S    
C254  H135  S    
O83   C259  S    
C102  C152  S    
C308  H262  S    
O20   Zn5   S    
C160  O60   S    
C37   C74   A    
C232  H84   S    
O41   Zn8   S    
C106  C119  A    
C36   C79   A    
C244  H113  S    
C176  C204  A    
C250  H126  S    
C193  H13   S    
O76   C238  S    
C250  C251  S    
C9    C25   A    
C296  H233  S    
C270  H173  S    
C218  H52   S    
C161  O61   S    
C311  H268  S    
C165  N5    A    
C270  H172  S    
O1    Zn1   S    
C20   C216  A    
C13   C29   A    
O98   C304  S    
C234  H89   S    
O17   Zn4   S    
C59   C83   A    
O39   Zn6   S    
O3    Zn3   S    
C281  C282  S    
C34   C77   A    
C8    O20   A    
C240  H103  S    
C72   C211  A    
C111  O75   S    
C298  H238  S    
C20   C164  A    
C174  C202  A    
C264  H160  S    
C21   C165  A    
C55   C67   A    
C34   H42   S    
O49   Zn7   S    
C200  H12   S    
C172  C204  A    
C239  H100  S    
C310  C311  S    
C83   H283  S    
C26   H34   S    
C109  C116  A    
C7    O19   A    
C235  C236  S    
C177  H29   S    
C74   H274  S    
C189  H1    S    
C136  C151  A    
C73   H273  S    
O22   Zn11  S    
C246  H118  S    
O52   Zn6   S    
C30   H38   S    
O42   Zn7   S    
C168  O68   S    
C52   C55   A    
C111  C146  A    
C63   C87   A    
C186  H6    S    
C115  C142  A    
C302  H248  S    
C169  H21   S    
O85   C265  S    
C130  C145  A    
C116  O80   S    
C119  C138  A    
C17   C33   A    
O92   C286  S    
C243  H111  S    
C190  H2    S    
C257  H143  S    
C255  H138  S    
C299  H241  S    
C280  H197  S    
C45   C193  A    
C102  O34   A    
C306  H258  S    
C220  H57   S    
C273  H181  S    
C157  O57   S    
C258  H144  S    
C71   C212  A    
O1    Zn5   S    
C279  H194  S    
C228  H76   S    
C281  H198  S    
C258  H146  S    
O50   Zn8   S    
C161  N5    A    
C275  H184  S    
C19   C163  A    
C105  O69   S    
C253  C254  S    
C233  H87   S    
C53   C77   A    
C248  H121  S    
C28   H36   S    
C15   C159  A    
O33   Zn15  S    
C299  C300  S    
C236  H94   S    
C249  H124  S    
O99   C307  S    
C177  C205  A    
C247  C248  S    
C242  C243  S    
C53   C65   A    
C170  C186  A    
O1    Zn12  S    
C237  H97   S    
C129  C146  A    
C231  H82   S    
O3    Zn10  S    
C227  H73   S    
C174  C190  A    
O40   Zn5   S    
C282  H201  S    
C5    C44   S    
C283  H204  S    
C232  C233  S    
C178  C194  A    
C6    C43   S    
C274  H183  S    
C265  H162  S    
C117  C140  A    
C266  H164  S    
C118  C139  A    
C279  H193  S    
O86   C268  S    
C271  H175  S    
C249  H125  S    
C223  H64   S    
C290  H219  S    
C105  C152  A    
C24   C40   A    
C79   H279  S    
C106  C151  A    
C24   C168  A    
C267  H167  S    
C51   C75   A    
C260  H150  S    
C227  C228  S    
C103  O41   A    
C261  H152  S    
C219  H55   S    
O72   C226  S    
C157  N1    A    
C92   O24   A    
O34   Zn16  S    
C184  C208  A    
C40   C75   A    
C30   C81   A    
C248  H122  S    
C225  H67   S    
C89   O47   A    
C175  C203  A    
C65   C214  A    
C90   O48   A    
C284  C285  S    
C184  C200  A    
C91   O45   A    
C89   O21   A    
C98   C148  S    
C297  H237  S    
O36   Zn14  S    
C219  H54   S    
C111  C114  A    
C127  C144  A    
C121  C136  A    
C171  C203  A    
C285  H207  S    
C154  O54   S    
C128  C143  A    
C37   H45   S    
C122  C135  A    
C294  H230  S    
C120  O84   S    
C169  C201  A    
C116  C141  A    
C20   C36   A    
C286  C287  S    
C21   C37   A    
C231  H81   S    
C312  H270  S    
C254  C255  S    
O96   C298  S    
C114  O78   S    
C120  C137  A    
C300  H243  S    
C129  O93   S    
O100  C310  S    
O26   Zn15  S    
C199  H11   S    
C110  C115  A    
C239  C240  S    
C54   C78   A    
C197  H9    S    
O12   Zn13  S    
C296  C297  S    
C306  H256  S    
C241  H105  S    
C291  H223  S    
C40   H48   S    
C153  N1    A    
C182  C198  A    
C117  O81   S    
O87   C271  S    
C156  O56   S    
C167  O67   S    
C226  H70   S    
C272  H178  S    
C219  H53   S    
C288  H215  S    
C127  O91   S    
C59   C64   A    
C104  O36   A    
C49   C65   A    
C60   C63   A    
C128  O92   S    
C269  H170  S    
C6    O14   A    
C167  N7    A    
C168  N8    A    
C175  C191  A    
C176  C192  A    
C230  H80   S    
C159  N3    A    
C49   C54   A    
O27   Zn10  S    
C100  O38   A    
C112  O76   S    
C51   C56   A    
C96   O28   A    
C173  C189  A    
C278  H192  S    
C42   C190  A    
C237  H95   S    
C25   C86   A    
C15   C211  A    
O45   Zn3   S    
C268  H169  S    
O75   C235  S    
C305  C306  S    
C134  O98   S    
C295  H231  S    
C89   C139  S    
C22   C166  A    
C107  O71   S    
C92   C142  S    
O81   C253  S    
C5    O13   A    
C52   C68   A    
C271  C272  S    
C290  C291  S    
C11   C211  A    
C10   C26   A    
C235  H92   S    
C277  H189  S    
C164  N8    A    
C43   C191  A    
C304  H253  S    
C48   C196  A    
O2    Zn11  S    
C166  N6    A    
C263  C264  S    
C32   H40   S    
C276  H186  S    
C14   C30   A    
C17   C213  A    
C182  H26   S    
O48   Zn2   S    
C112  C113  A    
C229  H78   S    
C222  H61   S    
C236  C237  S    
C207  N7    S    
C14   C210  A    
O79   C247  S    
C35   H43   S    
C16   C212  A    
O90   C280  S    
C12   C212  A    
C281  H199  S    
C248  C249  S    
C191  H3    S    
C284  H205  S    
C236  H93   S    
C208  N8    S    
C266  H163  S    
C123  C140  A    
C251  H128  S    
C183  C199  A    
C108  C149  A    
C121  C138  A    
C181  C205  A    
C224  H66   S    
C229  C230  S    
C286  H210  S    
C245  C246  S    
C125  C142  A    
C312  H272  S    
C268  H168  S    
C301  H245  S    
C41   C185  A    
C131  C148  A    
C39   C76   A    
C50   C66   A    
C289  C290  S    
C165  O65   S    
C297  H236  S    
C44   C188  A    
C188  H8    S    
C307  H259  S    
C247  H120  S    
C97   O39   A    
C87   H287  S    
C103  O35   A    
C293  C294  S    
C98   O40   A    
C57   C81   A    
C99   O37   A    
C109  C148  A    
C97   O29   A    
O2    Zn15  S    
C192  H4    S    
C110  C147  A    
O29   Zn11  S    
C245  H115  S    
C99   O31   A    
O94   C292  S    
C62   C86   A    
C220  H56   S    
C164  O64   S    
C61   C69   A    
C206  N6    S    
C305  H254  S    
C64   C88   A    
O6    Zn15  S    
C136  O100  S    
C95   O27   A    
C269  C270  S    
C63   C71   A    
C154  N2    A    
C274  H182  S    
C93   C143  S    
C43   C187  A    
C179  H31   S    
C250  H127  S    
C162  N6    A    
C218  H51   S    
C175  H19   S    
C291  H222  S    
C171  C187  A    
C57   C69   A    
C303  H249  S    
C238  C239  S    
C267  H166  S    
C127  C130  A    
C169  C185  A    
C252  H131  S    
C39   H47   S    
O8    Zn9   S    
C60   C84   A    
C125  C132  A    
C42   C186  A    
C240  H102  S    
C176  H20   S    
C171  H23   S    
C126  C131  A    
C172  C188  A    
C295  C296  S    
C23   C39   A    
O16   Zn1   S    
O4    Zn4   S    
C3    O11   A    
C255  H137  S    
C264  H159  S    
C49   C73   A    
C64   C72   A    
C287  H212  S    
C239  H101  S    
C310  H267  S    
C262  H155  S    
C238  H98   S    
C155  O55   S    
C48   C200  A    
O89   C277  S    
C9    C209  A    
C246  H117  S    
C70   C209  A    
C263  H156  S    
C173  H17   S    
C91   C141  S    
O97   C301  S    
C180  C208  A    
O13   Zn8   S    
C155  N3    A    
C294  H228  S    
C59   C71   A    
C293  H226  S    
C38   C73   A    
