data_mof_unit_pretest_524.cif
_audit_creation_date              2012-12-10T20:53:10-0500
_audit_creation_method            fapswitch 2.2
_symmetry_space_group_name_H-M    P1
_symmetry_Int_Tables_number       1
_space_group_crystal_system       triclinic
_cell_length_a                    18.34541
_cell_length_b                    18.32196
_cell_length_c                    18.319751
_cell_angle_alpha                 60.082032
_cell_angle_beta                  60.016603
_cell_angle_gamma                 59.977384
_cell_volume                      4356.64907165

loop_
_atom_site_label
_atom_site_type_symbol
_atom_type_description
_atom_site_fract_x
_atom_site_fract_y
_atom_site_fract_z
_atom_type_partial_charge
C1    C     C_R   0.389836 0.109991 0.110360 0.790771
C2    C     C_R   0.340084 0.825022 0.841635 -0.189209
C3    C     C_R   0.032239 0.558507 0.913305 0.068738
C4    C     C_R   0.462916 0.960744 0.093590 0.072981
C5    C     C_R   0.537084 0.039256 0.906410 0.072981
C6    C     C_R   0.945882 0.946093 0.554143 -0.175065
C7    C     C_R   0.054118 0.053907 0.445857 -0.175066
C8    C     C_R   0.946037 0.553925 0.945914 -0.172096
C9    C     C_R   0.053963 0.446075 0.054086 -0.172096
C10   C     C_R   0.553932 0.946076 0.945796 -0.161125
C11   C     C_R   0.446068 0.053923 0.054204 -0.161126
C12   C     C_3   0.149806 0.724651 0.024631 -0.947029
C13   C     C_R   0.174197 0.157826 0.659381 -0.191296
C14   C     C_3   0.850194 0.275349 0.975369 -0.947029
C15   C     C_3   0.725171 0.024161 0.142082 -0.933912
C16   C     C_3   0.274829 0.975839 0.857918 -0.933912
C17   C     C_3   0.023102 0.145321 0.718924 -0.945619
C18   C     C_3   0.976897 0.854678 0.281077 -0.945619
C19   C     C_3   0.988431 0.665730 0.112916 -0.905958
C20   C     C_3   0.011569 0.334270 0.887084 -0.905958
C21   C     C_3   0.671352 0.113642 0.980477 -0.897614
C22   C     C_3   0.328648 0.886357 0.019523 -0.897615
C23   C     C_3   0.116299 0.981800 0.661597 -0.909793
C24   C     C_R   0.825803 0.842173 0.340620 -0.191295
C25   C     C_3   0.883701 0.018200 0.338402 -0.909792
C26   C     C_R   0.132409 0.617910 0.269083 -0.207722
C27   C     C_R   0.867591 0.382090 0.730917 -0.207722
C28   C     C_R   0.616450 0.267176 0.130950 -0.200514
C29   C     C_R   0.383550 0.732823 0.869050 -0.200514
C30   C     C_R   0.266628 0.129540 0.617761 -0.201904
C31   C     C_R   0.733372 0.870460 0.382239 -0.201903
C32   C     C_R   0.057682 0.591370 0.309717 0.106579
C33   C     C_R   0.610164 0.890009 0.889640 0.790770
C34   C     C_R   0.942318 0.408629 0.690283 0.106578
C35   C     C_R   0.591279 0.309556 0.055000 0.105688
C36   C     C_R   0.408721 0.690444 0.945000 0.105688
C37   C     C_R   0.309461 0.054226 0.591370 0.104786
C38   C     C_R   0.690539 0.945774 0.408630 0.104787
C39   C     C_R   0.011160 0.609374 0.257687 -0.192068
C40   C     C_R   0.988840 0.390626 0.742313 -0.192068
C41   C     C_R   0.610578 0.259209 0.005983 -0.188231
C42   C     C_R   0.389422 0.740791 0.994017 -0.188230
C43   C     C_R   0.259264 0.006473 0.608114 -0.197870
C44   C     C_R   0.110357 0.109882 0.389846 0.779855
C45   C     C_R   0.740736 0.993527 0.391886 -0.197871
C46   C     C_R   0.040079 0.651633 0.164733 0.257621
C47   C     C_R   0.959921 0.348367 0.835267 0.257621
C48   C     C_R   0.653605 0.166191 0.033310 0.248541
C49   C     C_R   0.346395 0.833809 0.966691 0.248541
C50   C     C_R   0.166007 0.034807 0.648809 0.261457
C51   C     C_R   0.833993 0.965193 0.351191 0.261457
C52   C     C_R   0.116028 0.678312 0.123761 0.277700
C53   C     C_R   0.883972 0.321687 0.876239 0.277699
C54   C     C_R   0.678748 0.123577 0.110383 0.269621
C55   C     C_R   0.889642 0.890118 0.610154 0.779854
C56   C     C_R   0.321252 0.876423 0.889618 0.269622
C57   C     C_R   0.122775 0.111589 0.674987 0.279328
C58   C     C_R   0.877225 0.888411 0.325013 0.279329
C59   C     C_R   0.976557 0.592950 0.463020 -0.277126
C60   C     C_R   0.023443 0.407050 0.536980 -0.277126
C61   C     C_R   0.592995 0.462759 0.975093 -0.276331
C62   C     C_R   0.407005 0.537240 0.024907 -0.276331
C63   C     C_R   0.462806 0.974794 0.593052 -0.272109
C64   C     C_R   0.537193 0.025206 0.406948 -0.272109
C65   C     C_R   0.946601 0.551950 0.555597 -0.056144
C66   C     C_R   0.110103 0.389887 0.110162 0.784307
C67   C     C_R   0.053399 0.448050 0.444403 -0.056144
C68   C     C_R   0.552020 0.555487 0.946518 -0.057946
C69   C     C_R   0.447980 0.444513 0.053482 -0.057945
C70   C     C_R   0.555525 0.946638 0.551977 -0.057278
C71   C     C_R   0.444475 0.053362 0.448023 -0.057278
C72   C     C_R   0.970650 0.457547 0.593202 0.020033
C73   C     C_R   0.029350 0.542453 0.406798 0.020033
C74   C     C_R   0.457582 0.593275 0.972005 0.019577
C75   C     C_R   0.542418 0.406725 0.027995 0.019577
C76   C     C_R   0.593307 0.972464 0.457470 0.019616
C77   C     C_R   0.889897 0.610113 0.889838 0.784308
C78   C     C_R   0.406693 0.027536 0.542530 0.019616
C79   C     C_R   0.109841 0.390541 0.389617 0.791239
C80   C     C_R   0.890159 0.609459 0.610383 0.791238
C81   C     C_R   0.390527 0.389679 0.109827 0.789762
C82   C     C_R   0.609473 0.610321 0.890173 0.789762
C83   C     C_R   0.389647 0.109797 0.390544 0.794137
C84   C     C_R   0.610353 0.890203 0.609456 0.794138
C85   C     C_R   0.168496 0.937963 0.375537 -0.148454
C86   C     C_R   0.831503 0.062037 0.624463 -0.148454
C87   C     C_R   0.933392 0.385318 0.173921 -0.148159
C88   C     C_R   0.161184 0.661182 0.177002 -0.192255
C89   C     C_R   0.066608 0.614682 0.826079 -0.148159
C90   C     C_R   0.427653 0.920193 0.187011 -0.150430
C91   C     C_R   0.572347 0.079807 0.812989 -0.150430
C92   C     C_R   0.196584 0.855764 0.366879 -0.149433
C93   C     C_R   0.803416 0.144236 0.633121 -0.149433
C94   C     C_R   0.848364 0.381626 0.205192 -0.144919
C95   C     C_R   0.151636 0.618374 0.794808 -0.144919
C96   C     C_R   0.445690 0.828070 0.224911 -0.160467
C97   C     C_R   0.554310 0.171929 0.775089 -0.160467
C98   C     C_R   0.143232 0.802265 0.420780 -0.165850
C99   C     C_R   0.838817 0.338818 0.822998 -0.192255
C100  C     C_R   0.856768 0.197735 0.579220 -0.165849
C101  C     C_R   0.795098 0.434648 0.151414 -0.159024
C102  C     C_R   0.204902 0.565351 0.848585 -0.159024
C103  C     C_R   0.498181 0.774692 0.170954 -0.156036
C104  C     C_R   0.501819 0.225308 0.829046 -0.156036
C105  C     C_R   0.061308 0.830893 0.483318 -0.154795
C106  C     C_R   0.938692 0.169107 0.516682 -0.154795
C107  C     C_R   0.826514 0.491780 0.066200 -0.149824
C108  C     C_R   0.173486 0.508220 0.933800 -0.149824
C109  C     C_R   0.533763 0.813028 0.078878 -0.151946
C110  C     C_R   0.659916 0.174978 0.158365 -0.189209
C111  C     C_R   0.466237 0.186972 0.921122 -0.151946
C112  C     C_R   0.029502 0.915769 0.491378 0.075091
C113  C     C_R   0.970498 0.084230 0.508622 0.075091
C114  C     C_R   0.913441 0.495693 0.032108 0.075350
C115  C     C_R   0.086559 0.504307 0.967892 0.075350
C116  C     C_R   0.517073 0.906387 0.038862 0.070600
C117  C     C_R   0.482927 0.093613 0.961138 0.070600
C118  C     C_R   0.084005 0.970106 0.436751 0.069204
C119  C     C_R   0.915995 0.029894 0.563249 0.069204
C120  C     C_R   0.967761 0.441493 0.086695 0.068738
H1    H     H_    0.834145 0.262241 0.585106 0.131720
H2    H     H_    0.334863 0.566815 0.043830 0.184968
H3    H     H_    0.433293 0.955616 0.665235 0.183328
H4    H     H_    0.566707 0.044384 0.334765 0.183328
H5    H     H_    0.214394 0.975067 0.334076 0.138288
H6    H     H_    0.785606 0.024933 0.665924 0.138288
H7    H     H_    0.971070 0.344257 0.219422 0.134208
H8    H     H_    0.028930 0.655743 0.780578 0.134208
H9    H     H_    0.386450 0.958990 0.231696 0.110348
H10   H     H_    0.613550 0.041010 0.768304 0.110348
H11   H     H_    0.260482 0.832985 0.318807 0.139748
H12   H     H_    0.165855 0.737759 0.414894 0.131720
H13   H     H_    0.739518 0.167014 0.681193 0.139748
H14   H     H_    0.823407 0.338030 0.271811 0.133908
H15   H     H_    0.176593 0.661970 0.728189 0.133908
H16   H     H_    0.418905 0.797956 0.296508 0.127378
H17   H     H_    0.581095 0.202044 0.703492 0.127378
H18   H     H_    0.024244 0.784955 0.525455 0.140891
H19   H     H_    0.975756 0.215045 0.474545 0.140891
H20   H     H_    0.781307 0.533200 0.028214 0.134992
H21   H     H_    0.218693 0.466799 0.971786 0.134992
H22   H     H_    0.574626 0.768723 0.039676 0.119554
H23   H     H_    0.271291 0.567718 0.823837 0.129047
H24   H     H_    0.425374 0.231277 0.960324 0.119554
H25   H     H_    0.219363 0.680869 0.147175 0.147020
H26   H     H_    0.780637 0.319131 0.852825 0.147019
H27   H     H_    0.678554 0.143655 0.217499 0.144408
H28   H     H_    0.321446 0.856345 0.782501 0.144408
H29   H     H_    0.142647 0.216630 0.678748 0.145426
H30   H     H_    0.857353 0.783370 0.321253 0.145426
H31   H     H_    0.168747 0.604487 0.308704 0.139562
H32   H     H_    0.831253 0.395513 0.691296 0.139563
H33   H     H_    0.601818 0.305539 0.169248 0.138412
H34   H     H_    0.728709 0.432282 0.176163 0.129048
H35   H     H_    0.398182 0.694461 0.830752 0.138412
H36   H     H_    0.304770 0.166973 0.605100 0.142608
H37   H     H_    0.695230 0.833026 0.394901 0.142608
H38   H     H_    0.953357 0.588520 0.289526 0.133662
H39   H     H_    0.046643 0.411480 0.710474 0.133662
H40   H     H_    0.590561 0.292591 0.947406 0.126557
H41   H     H_    0.409439 0.707409 0.052594 0.126557
H42   H     H_    0.292765 0.948302 0.587264 0.132704
H43   H     H_    0.707234 0.051698 0.412736 0.132705
H44   H     H_    0.170955 0.680008 0.988196 0.252135
H45   H     H_    0.488228 0.296801 0.799420 0.129247
H46   H     H_    0.096565 0.787436 0.003870 0.249675
H47   H     H_    0.208008 0.742557 0.005312 0.246122
H48   H     H_    0.829045 0.319993 0.011804 0.252135
H49   H     H_    0.791992 0.257443 0.994688 0.246122
H50   H     H_    0.903435 0.212564 0.996130 0.249676
H51   H     H_    0.741038 0.002511 0.202397 0.243965
H52   H     H_    0.681587 0.988537 0.159126 0.250635
H53   H     H_    0.788858 0.004642 0.088997 0.248441
H54   H     H_    0.258962 0.997489 0.797604 0.243965
H55   H     H_    0.211142 0.995358 0.911004 0.248441
H56   H     H_    0.511772 0.703199 0.200580 0.129247
H57   H     H_    0.318412 0.011463 0.840874 0.250634
H58   H     H_    0.001741 0.204695 0.736248 0.244822
H59   H     H_    0.988997 0.164816 0.672900 0.254514
H60   H     H_    0.001569 0.092571 0.781728 0.249013
H61   H     H_    0.998259 0.795304 0.263753 0.244822
H62   H     H_    0.998431 0.907429 0.218273 0.249013
H63   H     H_    0.011003 0.835184 0.327101 0.254514
H64   H     H_    0.016669 0.697030 0.039907 0.257384
H65   H     H_    0.987870 0.600344 0.124755 0.253146
H66   H     H_    0.918502 0.709303 0.136188 0.231842
H67   H     H_    0.958747 0.665070 0.433689 0.183656
H68   H     H_    0.983331 0.302970 0.960093 0.257384
H69   H     H_    0.081498 0.290697 0.863812 0.231842
H70   H     H_    0.012130 0.399656 0.875245 0.253145
H71   H     H_    0.636327 0.063747 0.023593 0.259518
H72   H     H_    0.647385 0.157484 0.922346 0.239306
H73   H     H_    0.744173 0.078748 0.954825 0.240867
H74   H     H_    0.363673 0.936253 0.976407 0.259518
H75   H     H_    0.255826 0.921252 0.045175 0.240867
H76   H     H_    0.352615 0.842515 0.077654 0.239306
H77   H     H_    0.042967 0.009697 0.691531 0.259949
H78   H     H_    0.041253 0.334930 0.566311 0.183656
H79   H     H_    0.130388 0.980125 0.595929 0.250871
H80   H     H_    0.139355 0.912238 0.705837 0.230020
H81   H     H_    0.957032 0.990304 0.308468 0.259949
H82   H     H_    0.860645 0.087763 0.294162 0.230020
H83   H     H_    0.869611 0.019876 0.404070 0.250872
H84   H     H_    0.665136 0.433185 0.956170 0.184968
O1    O     O_3   0.250000 0.250000 0.250000 -0.483329
O2    O     O_R   0.865800 0.694910 0.573470 -0.646538
O3    O     O_R   0.305090 0.426530 0.134200 -0.645719
O4    O     O_R   0.694910 0.573470 0.865800 -0.645718
O5    O     O_R   0.426530 0.134200 0.305090 -0.643868
O6    O     O_R   0.573470 0.865800 0.694910 -0.643869
O7    O     O_R   0.134190 0.426530 0.134200 -0.644717
O8    O     O_R   0.865810 0.573470 0.865800 -0.644717
O9    O     O_R   0.426530 0.134200 0.134190 -0.639220
O10   O     O_R   0.573470 0.865800 0.865810 -0.639220
O11   O     O_R   0.134200 0.134190 0.426530 -0.643482
O12   O     O_3   0.750000 0.750000 0.750000 -0.483329
O13   O     O_R   0.865800 0.865810 0.573470 -0.643481
O14   O     O_R   0.426530 0.305080 0.134210 -0.632383
O15   O     O_R   0.573470 0.694920 0.865790 -0.632383
O16   O     O_R   0.305080 0.134210 0.426530 -0.632044
O17   O     O_R   0.694920 0.865790 0.573470 -0.632044
O18   O     O_R   0.134210 0.426530 0.305080 -0.632258
O19   O     O_R   0.865790 0.573470 0.694920 -0.632259
O20   O     O_R   0.305080 0.134200 0.134200 -0.637059
O21   O     O_R   0.694920 0.865800 0.865800 -0.637059
O22   O     O_R   0.134200 0.134200 0.305080 -0.642020
O23   O     O_R   0.865800 0.865800 0.694920 -0.642020
O24   O     O_R   0.134200 0.305080 0.134200 -0.635420
O25   O     O_R   0.865800 0.694920 0.865800 -0.635420
O26   O     O_R   0.134200 0.305090 0.426530 -0.646538
Zn1   Zn    Zn3+2 0.206620 0.206630 0.380140 0.958509
Zn2   Zn    Zn3+2 0.793380 0.793370 0.619860 0.958509
Zn3   Zn    Zn3+2 0.206630 0.380140 0.206620 0.959110
Zn4   Zn    Zn3+2 0.793370 0.619860 0.793380 0.959110
Zn5   Zn    Zn3+2 0.380140 0.206620 0.206630 0.963004
Zn6   Zn    Zn3+2 0.619860 0.793380 0.793370 0.963004
Zn7   Zn    Zn3+2 0.206620 0.206620 0.206620 0.956535
Zn8   Zn    Zn3+2 0.793380 0.793380 0.793380 0.956536

loop_
_geom_bond_atom_site_label_1
_geom_bond_atom_site_label_2
_ccdc_geom_bond_type
C17   H58   S    
C101  C107  A    
C40   C47   A    
C80   O2    A    
O18   Zn3   S    
C26   C32   A    
C27   H32   S    
C23   H79   S    
C86   H6    S    
C44   O11   A    
O12   Zn4   S    
C40   H39   S    
C85   H5    S    
C1    C11   S    
C6    C55   S    
C14   H50   S    
C12   H47   S    
C87   H7    S    
C19   C46   S    
C92   C98   A    
C55   O13   A    
C91   H10   S    
C38   C76   S    
C53   C99   A    
C48   C54   A    
C29   C36   A    
C35   C75   S    
C98   C105  A    
C2    C29   A    
O11   Zn1   S    
C101  H34   S    
C108  C115  A    
C26   H31   S    
O19   Zn4   S    
O14   Zn5   S    
C93   H13   S    
C84   O17   A    
C5    C10   A    
C61   H84   S    
C12   H46   S    
C84   O6    A    
C64   C71   A    
C13   C57   A    
C45   C51   A    
C68   C74   A    
C87   C94   A    
C46   C52   A    
C54   C110  A    
C30   C37   A    
C100  H1    S    
C32   C39   A    
C55   O23   A    
C107  H20   S    
C9    C66   S    
C38   C45   A    
C109  C116  A    
O12   Zn2   S    
C104  H45   S    
C113  C119  A    
C90   H9    S    
C36   C42   A    
C18   C58   S    
C82   O15   A    
C112  C118  A    
C60   C67   A    
C88   H25   S    
C102  C108  A    
C109  H22   S    
C67   C73   A    
O6    Zn6   S    
C25   H81   S    
C70   C84   S    
O20   Zn7   S    
C59   C73   A    
C71   C83   S    
C77   O8    A    
C95   C102  A    
C60   H78   S    
C47   C53   A    
C21   C48   S    
C17   H59   S    
C30   H36   S    
C103  C109  A    
C105  H18   S    
C65   C80   S    
O21   Zn8   S    
C7    C118  A    
C22   H76   S    
C85   C118  A    
C2    H28   S    
C14   H49   S    
C35   C41   A    
C29   H35   S    
C86   C119  A    
C97   H17   S    
C108  H21   S    
C12   C52   S    
C85   C92   A    
C4    C116  A    
C4    C90   A    
C27   C34   A    
C25   H83   S    
C42   H41   S    
C66   O7    A    
C15   H53   S    
C106  C113  A    
O2    Zn2   S    
C9    C115  A    
C15   C54   S    
C13   C30   A    
O1    Zn5   S    
C92   H11   S    
C67   C79   S    
C94   C101  A    
C96   H16   S    
C3    C8    A    
C20   H69   S    
C23   C50   S    
C18   H61   S    
C28   C110  A    
C64   H4    S    
O23   Zn8   S    
C23   H80   S    
C61   C75   A    
O7    Zn3   S    
C62   C69   A    
C5    C117  A    
C89   C95   A    
O1    Zn7   S    
C16   C56   S    
C107  C114  A    
C81   O3    A    
C86   C93   A    
C12   H44   S    
C41   H40   S    
O8    Zn4   S    
C63   C70   A    
C52   C88   A    
C22   H74   S    
C27   C99   A    
C95   H15   S    
C64   C76   A    
C15   H51   S    
C51   C58   A    
C31   H37   S    
C7    C44   S    
C91   C97   A    
C4    C11   A    
C59   H67   S    
C93   C100  A    
C83   O5    A    
C24   H30   S    
C111  H24   S    
C39   C46   A    
C89   H8    S    
C16   H55   S    
C24   C58   A    
C99   H26   S    
C25   H82   S    
C22   C49   S    
C39   H38   S    
C1    O9    A    
C8    C77   S    
O12   Zn6   S    
C34   C40   A    
C37   C43   A    
O1    Zn1   S    
C102  H23   S    
C70   C76   A    
C14   H48   S    
C110  H27   S    
C11   C117  A    
C34   C72   S    
C6    C119  A    
C62   H2    S    
C10   C116  A    
C16   H57   S    
C17   H60   S    
C79   O18   A    
C33   O21   A    
C16   H54   S    
C20   H68   S    
C28   C35   A    
C36   C74   S    
O16   Zn1   S    
C59   C65   A    
C50   C57   A    
C6    C112  A    
O15   Zn6   S    
C105  C112  A    
O10   Zn6   S    
C82   O4    A    
C21   H72   S    
C66   O24   A    
C19   H64   S    
C104  C111  A    
C63   H3    S    
C33   O10   A    
C43   C50   A    
C90   C96   A    
C8    C114  A    
C100  C106  A    
C65   C72   A    
C37   C78   S    
C23   H77   S    
C77   O25   A    
C25   C51   S    
C31   C38   A    
C3    C89   A    
C97   C104  A    
C111  C117  A    
O12   Zn8   S    
C7    C113  A    
O1    Zn3   S    
C45   H43   S    
C24   C31   A    
C68   C82   S    
C87   C120  A    
O13   Zn2   S    
C49   C56   A    
C3    C115  A    
C19   H65   S    
C80   O19   A    
C20   H70   S    
C83   O16   A    
C61   C68   A    
C106  H19   S    
C28   H33   S    
C79   O26   A    
O5    Zn5   S    
C18   H63   S    
C18   H62   S    
C19   H66   S    
C81   O14   A    
O17   Zn2   S    
C103  H56   S    
C94   H14   S    
C41   C48   A    
C15   H52   S    
C69   C75   A    
C10   C33   S    
C1    O20   A    
O3    Zn3   S    
O26   Zn1   S    
C22   H75   S    
C20   C47   S    
C69   C81   S    
C42   C49   A    
C13   H29   S    
C43   H42   S    
O24   Zn7   S    
C14   C53   S    
C5    C91   A    
C26   C88   A    
C96   C103  A    
C98   H12   S    
O22   Zn7   S    
C9    C120  A    
C60   C72   A    
C62   C74   A    
C2    C56   A    
C21   H71   S    
C21   H73   S    
O25   Zn8   S    
O9    Zn5   S    
O4    Zn4   S    
C44   O22   A    
C32   C73   S    
C71   C78   A    
C114  C120  A    
C17   C57   S    
C63   C78   A    
