data_mof_unit_pretest_184.cif
_audit_creation_date              2012-12-10T17:22:08-0500
_audit_creation_method            fapswitch 2.2
_symmetry_space_group_name_H-M    P1
_symmetry_Int_Tables_number       1
_space_group_crystal_system       triclinic
_cell_length_a                    15.92294
_cell_length_b                    10.862804
_cell_length_c                    9.674092
_cell_angle_alpha                 91.56683
_cell_angle_beta                  89.840861
_cell_angle_gamma                 94.488246
_cell_volume                      1667.55078247

loop_
_atom_site_label
_atom_site_type_symbol
_atom_type_description
_atom_site_fract_x
_atom_site_fract_y
_atom_site_fract_z
_atom_type_partial_charge
C1    C     C_R   0.486844 0.262923 0.499059 0.793885
C2    C     C_3   0.944514 0.356141 0.507819 -0.172875
C3    C     C_3   0.917031 0.491918 0.500466 0.161997
C4    C     C_3   0.957480 0.573326 0.625530 -0.025902
C5    C     C_3   0.055332 0.580738 0.611652 -0.456931
C6    C     C_1   0.824245 0.493974 0.499829 -0.051875
C7    C     C_1   0.175464 0.489983 0.500134 -0.057812
C8    C     C_1   0.250950 0.493267 0.500567 -0.160663
C9    C     C_R   0.435502 0.125027 0.749013 -0.174584
C10   C     C_R   0.452799 0.080481 0.876626 -0.144789
C11   C     C_R   0.494507 0.973368 0.885713 0.202497
C12   C     C_R   0.340554 0.497864 0.500195 0.815161
C13   C     C_R   0.511470 0.905655 0.764850 -0.189159
C14   C     C_R   0.489729 0.946658 0.633542 0.068045
C15   C     C_R   0.464453 0.067634 0.628246 0.100171
C16   C     C_R   0.466282 0.127296 0.501653 -0.171256
C17   C     C_R   0.450899 0.053785 0.382568 -0.012539
C18   C     C_R   0.461728 0.927203 0.386871 -0.247411
C19   C     C_R   0.489155 0.873789 0.508183 -0.120638
C20   C     C_R   0.620494 0.654511 0.147573 -0.167564
C21   C     C_R   0.682839 0.729170 0.080263 0.095738
C22   C     C_R   0.682429 0.727900 0.935581 -0.079618
C23   C     C_R   0.499292 0.738766 0.502535 0.773813
C24   C     C_R   0.622421 0.651787 0.862202 -0.263089
C25   C     C_R   0.560922 0.573213 0.927863 0.197985
C26   C     C_R   0.560341 0.574159 0.076416 0.157324
C27   C     C_R   0.441136 0.431957 0.071862 -0.048660
C28   C     C_R   0.440646 0.433012 0.924692 -0.050654
C29   C     C_R   0.659435 0.499384 0.499711 0.820465
C30   C     C_3   0.041448 0.358885 0.528408 -0.413299
C31   C     C_3   0.052734 0.532183 0.354826 -0.218976
C32   C     C_3   0.954396 0.546483 0.359923 -0.092393
C33   C     C_1   0.748877 0.496402 0.499115 -0.170726
C34   C     C_3   0.083228 0.489415 0.497720 0.203335
Cu1   Cu    Cu3+1 0.499990 0.499990 0.640660 0.939642
Cu2   Cu    Cu3+1 0.500010 0.500010 0.359340 0.947510
H1    H     H_    0.929208 0.306993 0.407673 0.149148
H2    H     H_    0.057218 0.335071 0.636102 0.181071
H3    H     H_    0.937886 0.668969 0.617013 0.172157
H4    H     H_    0.399220 0.204632 0.744558 0.145467
H5    H     H_    0.435921 0.132036 0.967532 0.168155
H6    H     H_    0.543828 0.825184 0.776282 0.160436
H7    H     H_    0.444914 0.868487 0.297986 0.169157
H8    H     H_    0.392302 0.376847 0.124773 0.161788
H9    H     H_    0.067396 0.287793 0.458951 0.178166
H10   H     H_    0.618034 0.665309 0.255807 0.222615
H11   H     H_    0.621675 0.664913 0.753676 0.204501
H12   H     H_    0.390592 0.380206 0.869554 0.124857
H13   H     H_    0.087296 0.623228 0.334534 0.135706
H14   H     H_    0.085776 0.561102 0.711408 0.182248
H15   H     H_    0.078835 0.676665 0.585965 0.170894
N1    N     N_R   0.500800 0.501210 0.147910 -0.195444
N2    N     N_R   0.500820 0.501290 0.852040 -0.186811
O1    O     O_R   0.499990 0.319640 0.618810 -0.571926
O2    O     O_R   0.500000 0.319660 0.381240 -0.563545
O3    O     O_R   0.379430 0.499990 0.618840 -0.582405
O4    O     O_R   0.379440 0.500020 0.381260 -0.572369
O5    O     O_R   0.500000 0.680340 0.618760 -0.603115
O6    O     O_R   0.500010 0.680360 0.381190 -0.601696
O7    O     O_R   0.620560 0.499980 0.618740 -0.582739
O8    O     O_R   0.620570 0.500010 0.381160 -0.584874
C35   C     C_1   0.899153 0.280019 0.612503 0.256096
N3    N     N_1   0.863589 0.219754 0.694075 -0.253904
C36   C     C_1   0.402843 0.100051 0.272352 0.237647
N4    N     N_1   0.361559 0.137221 0.187240 -0.334321
C37   C     C_3   0.515995 0.929186 0.025003 -0.426235
C38   C     C_3   0.584549 0.015924 0.093748 -0.773369
H16   H     H_    0.641525 0.023680 0.027182 0.257931
H17   H     H_    0.562368 0.109419 0.111764 0.255491
H18   H     H_    0.601285 0.979425 0.194974 0.248978
H19   H     H_    0.457792 0.924876 0.087312 0.201255
H20   H     H_    0.536677 0.834638 0.017922 0.208698
C39   C     C_3   0.748610 0.813336 0.159374 -0.356208
C40   C     C_3   0.737232 0.823121 0.316562 -0.820770
H21   H     H_    0.674160 0.853418 0.343787 0.232609
H22   H     H_    0.746026 0.733197 0.364042 0.248585
H23   H     H_    0.784992 0.893058 0.360740 0.273563
H24   H     H_    0.811651 0.780350 0.137021 0.227598
H25   H     H_    0.748754 0.908342 0.120010 0.213458
C41   C     C_1   0.738986 0.812045 0.859440 0.190782
N5    N     N_1   0.784107 0.879413 0.798406 -0.263479
C42   C     C_1   0.079237 0.448796 0.241278 0.252144
N6    N     N_1   0.099990 0.383904 0.152868 -0.275715
C43   C     C_1   0.909443 0.485689 0.238726 0.230812
N7    N     N_1   0.874285 0.437565 0.145054 -0.280507
C44   C     C_1   0.941172 0.679404 0.350988 0.183076
N8    N     N_1   0.932414 0.783806 0.344512 -0.292823
C45   C     C_3   0.931943 0.534954 0.774839 -0.374010
C46   C     C_3   0.838151 0.538180 0.807351 -0.744184
H26   H     H_    0.811794 0.615915 0.755078 0.245181
H27   H     H_    0.803033 0.450148 0.774498 0.268382
H28   H     H_    0.828781 0.551123 0.920279 0.256485
H29   H     H_    0.953447 0.443433 0.799346 0.232519
H30   H     H_    0.965794 0.602206 0.848101 0.206643

loop_
_geom_bond_atom_site_label_1
_geom_bond_atom_site_label_2
_ccdc_geom_bond_type
C23   O5    A    
C29   C33   S    
Cu1   N2    S    
C39   C40   S    
C30   H9    S    
Cu1   Cu2   S    
C3    C6    S    
C7    C8    T    
C23   O6    A    
C31   C42   S    
C40   H22   S    
Cu1   O5    S    
C25   N2    A    
C17   C36   S    
C15   C16   A    
C21   C39   S    
C30   H2    S    
C18   C19   A    
C27   H8    S    
C37   H20   S    
C31   C32   S    
C16   C17   A    
C40   H23   S    
C39   H24   S    
C4    H3    S    
C46   H27   S    
C9    C10   A    
Cu2   N1    S    
C11   C37   S    
C45   C46   S    
Cu2   O6    S    
C37   C38   S    
C13   C14   A    
Cu1   O1    S    
C31   H13   S    
C13   H6    S    
C29   O8    A    
C32   C43   S    
C45   H30   S    
C40   H21   S    
C30   C34   S    
C38   H16   S    
C43   N7    T    
Cu2   O4    S    
C44   N8    T    
C4    C5    S    
C25   C26   A    
C9    H4    S    
Cu1   O7    S    
C38   H17   S    
C19   C23   S    
C1    O1    A    
C35   N3    T    
C26   N1    A    
C37   H19   S    
C29   O7    A    
C8    C12   S    
C32   C44   S    
C5    C34   S    
C17   C18   A    
C39   H25   S    
C31   C34   S    
C1    C16   S    
C24   C25   A    
C46   H28   S    
C12   O3    A    
C12   O4    A    
C7    C34   S    
C22   C24   A    
C5    H14   S    
C3    C4    S    
C27   N1    A    
C45   H29   S    
C28   H12   S    
Cu1   O3    S    
C24   H11   S    
C14   C19   A    
C41   N5    T    
C28   N2    A    
C4    C45   S    
C6    C33   T    
C2    C30   S    
C38   H18   S    
C36   N4    T    
C2    C3    S    
C1    O2    A    
C22   C41   S    
Cu2   O2    S    
C18   H7    S    
C11   C13   A    
C2    H1    S    
C20   C26   A    
C9    C15   A    
C3    C32   S    
C10   C11   A    
C2    C35   S    
C20   C21   A    
C42   N6    T    
C27   C28   A    
C14   C15   A    
C5    H15   S    
C46   H26   S    
C21   C22   A    
C20   H10   S    
Cu2   O8    S    
C10   H5    S    
