data_mof_unit_pretest_1862.cif
_audit_creation_date              2012-12-11T15:44:43-0500
_audit_creation_method            fapswitch 2.2
_symmetry_space_group_name_H-M    P1
_symmetry_Int_Tables_number       1
_space_group_crystal_system       triclinic
_cell_length_a                    22.650618
_cell_length_b                    30.578692
_cell_length_c                    19.048944
_cell_angle_alpha                 90.000044
_cell_angle_beta                  123.878137
_cell_angle_gamma                 89.999877
_cell_volume                      10953.8224793

loop_
_atom_site_label
_atom_site_type_symbol
_atom_type_description
_atom_site_fract_x
_atom_site_fract_y
_atom_site_fract_z
_atom_type_partial_charge
C1    C     C_R   0.111786 0.380771 0.063969 -0.097216
C2    C     C_R   0.941299 0.389170 0.073548 0.746456
C3    C     C_R   0.742523 0.999996 0.203371 0.047392
C4    C     C_R   0.023253 0.463752 0.228631 0.696775
C5    C     C_R   0.023253 0.536248 0.228631 0.696769
C6    C     C_R   0.523254 0.963752 0.228632 0.696771
C7    C     C_R   0.523254 0.036248 0.228631 0.696777
C8    C     C_R   0.806887 0.535573 0.771122 0.041487
C9    C     C_R   0.806888 0.464426 0.771124 0.041530
C10   C     C_R   0.306887 0.035573 0.771121 0.041465
C11   C     C_R   0.306888 0.964425 0.771125 0.041547
C12   C     C_R   0.441300 0.110830 0.073547 0.746450
C13   C     C_R   0.441299 0.889170 0.073548 0.746447
C14   C     C_R   0.021703 0.500000 0.270928 -0.378072
C15   C     C_R   0.521705 0.000000 0.270930 -0.378072
C16   C     C_R   0.768672 0.499999 0.723873 -0.010061
C17   C     C_R   0.268672 0.999998 0.723873 -0.010062
C18   C     C_R   0.880236 0.369812 0.004896 -0.130184
C19   C     C_R   0.880236 0.630188 0.004895 -0.130184
C20   C     C_R   0.380236 0.869812 0.004896 -0.130178
C21   C     C_R   0.111786 0.619229 0.063969 -0.097203
C22   C     C_R   0.380236 0.130188 0.004895 -0.130190
C23   C     C_3   0.469593 0.459566 0.422095 -0.388986
C24   C     C_3   0.471236 0.542257 0.418009 -0.389345
C25   C     C_3   0.968955 0.960378 0.423687 -0.388850
C26   C     C_3   0.971917 0.042912 0.416318 -0.389491
C27   C     C_3   0.548469 0.541641 0.495635 -0.440411
C28   C     C_3   0.546795 0.460307 0.499639 -0.440443
C29   C     C_3   0.049165 0.042346 0.493973 -0.440378
C30   C     C_3   0.046146 0.961167 0.501193 -0.440437
C31   C     C_1   0.711001 0.499993 0.638548 -0.041846
C32   C     C_R   0.611785 0.880771 0.063969 -0.097211
C33   C     C_1   0.211002 0.999988 0.638548 -0.041840
C34   C     C_3   0.454868 0.499951 0.365510 0.390139
C35   C     C_3   0.954867 0.999913 0.365513 0.390129
C36   C     C_3   0.586875 0.499946 0.494090 0.369152
C37   C     C_3   0.086875 0.999903 0.494091 0.369132
C38   C     C_R   0.053708 0.612824 0.926787 0.701907
C39   C     C_R   0.053708 0.387176 0.926787 0.701914
C40   C     C_R   0.553708 0.112824 0.926787 0.701909
C41   C     C_R   0.553708 0.887176 0.926786 0.701911
C42   C     C_3   0.584259 0.497939 0.409565 0.108438
C43   C     C_R   0.611786 0.119229 0.063969 -0.097206
C44   C     C_3   0.084210 0.996285 0.409677 0.108435
C45   C     C_3   0.503897 0.497991 0.332649 -0.506450
C46   C     C_3   0.003851 0.996379 0.332760 -0.506431
C47   C     C_1   0.657875 0.499976 0.569762 -0.087260
C48   C     C_1   0.157875 0.999957 0.569762 -0.087263
C49   C     C_1   0.380394 0.499976 0.298504 -0.111911
C50   C     C_1   0.880394 0.999957 0.298506 -0.111910
C51   C     C_1   0.317486 0.499992 0.251951 0.005469
C52   C     C_1   0.817485 0.999986 0.251951 0.005473
C53   C     C_1   0.139961 0.676904 0.991707 0.072893
C54   C     C_R   0.868731 0.388616 0.932257 -0.228767
C55   C     C_1   0.139961 0.323097 0.991706 0.072904
C56   C     C_1   0.639961 0.176904 0.991706 0.072904
C57   C     C_1   0.639961 0.823096 0.991706 0.072895
C58   C     C_1   0.174118 0.707897 0.993270 0.001415
C59   C     C_1   0.174118 0.292103 0.993270 0.001424
C60   C     C_1   0.674117 0.207897 0.993269 0.001432
C61   C     C_1   0.674117 0.792103 0.993269 0.001408
C62   C     C_1   0.217501 0.742838 0.997258 0.007104
C63   C     C_1   0.217502 0.257162 0.997258 0.007107
C64   C     C_1   0.717500 0.242838 0.997257 0.007122
C65   C     C_R   0.868731 0.611384 0.932257 -0.228759
C66   C     C_1   0.717501 0.757162 0.997257 0.007089
C67   C     C_1   0.755732 0.271886 0.001172 0.006139
C68   C     C_1   0.755734 0.728115 0.001172 0.006102
C69   C     C_1   0.255733 0.771885 0.001173 0.006121
C70   C     C_1   0.255734 0.228115 0.001172 0.006120
C71   C     C_1   0.800860 0.305650 0.005155 0.006157
C72   C     C_1   0.800862 0.694351 0.005155 0.006122
C73   C     C_1   0.300861 0.805650 0.005156 0.006142
C74   C     C_1   0.300862 0.194351 0.005155 0.006138
C75   C     C_R   0.978770 0.463380 0.774204 -0.096510
C76   C     C_R   0.368731 0.888616 0.932258 -0.228769
C77   C     C_R   0.978770 0.536620 0.774204 -0.096532
C78   C     C_R   0.478771 0.963380 0.774204 -0.096509
C79   C     C_R   0.478771 0.036620 0.774204 -0.096537
C80   C     C_1   0.838261 0.334577 0.006743 0.082135
C81   C     C_1   0.838262 0.665423 0.006743 0.082107
C82   C     C_1   0.338262 0.834577 0.006744 0.082123
C83   C     C_1   0.338262 0.165423 0.006743 0.082120
C84   C     C_1   0.022483 0.500000 0.347224 0.197566
C85   C     C_1   0.522486 1.000000 0.347226 0.197567
C86   C     C_1   0.019066 0.500000 0.408346 0.011332
C87   C     C_R   0.368731 0.111384 0.932257 -0.228757
C88   C     C_1   0.519069 1.000000 0.408348 0.011332
C89   C     C_1   0.011902 0.500000 0.477696 0.005859
C90   C     C_1   0.511905 1.000000 0.477699 0.005860
C91   C     C_1   0.004443 0.500000 0.535802 0.015854
C92   C     C_1   0.504447 1.000000 0.535805 0.015855
C93   C     C_1   0.995367 0.500000 0.603684 0.016842
C94   C     C_1   0.495369 1.000000 0.603685 0.016842
C95   C     C_1   0.988569 0.500000 0.662301 -0.011158
C96   C     C_1   0.488571 1.000000 0.662303 -0.011160
C97   C     C_R   0.200630 0.535500 0.188144 0.026663
C98   C     C_R   0.941300 0.610830 0.073547 0.746442
C99   C     C_R   0.200628 0.464498 0.188144 0.026687
C100  C     C_R   0.700631 0.035499 0.188143 0.026652
C101  C     C_R   0.700627 0.964497 0.188143 0.026701
C102  C     C_R   0.104656 0.362200 0.993731 -0.096711
C103  C     C_R   0.104656 0.637800 0.993731 -0.096712
C104  C     C_R   0.604655 0.862200 0.993731 -0.096711
C105  C     C_R   0.604655 0.137800 0.993731 -0.096712
C106  C     C_R   0.982926 0.500000 0.734101 0.014343
C107  C     C_R   0.482927 1.000000 0.734102 0.014343
C108  C     C_R   0.242524 0.499998 0.203372 0.047395
F1    F     F_    0.015147 0.626893 0.845751 -0.724805
F2    F     F_    0.977816 0.372131 0.152267 -0.649253
F3    F     F_    0.477817 0.127869 0.152267 -0.649278
F4    F     F_    0.477816 0.872132 0.152268 -0.649266
F5    F     F_    0.015147 0.373107 0.845751 -0.724791
F6    F     F_    0.515146 0.126893 0.845751 -0.724801
F7    F     F_    0.515146 0.873107 0.845750 -0.724794
F8    F     F_    0.045834 0.423938 0.264954 -0.625148
F9    F     F_    0.045833 0.576062 0.264954 -0.625170
F10   F     F_    0.545836 0.923938 0.264955 -0.625157
F11   F     F_    0.545834 0.076062 0.264954 -0.625161
F12   F     F_    0.977817 0.627869 0.152267 -0.649290
H1    H     H_    0.432876 0.459256 0.443656 0.171504
H2    H     H_    0.573676 0.428875 0.505083 0.162748
H3    H     H_    0.077793 0.072128 0.495113 0.162952
H4    H     H_    0.072509 0.929340 0.507910 0.162697
H5    H     H_    0.491085 0.468261 0.292921 0.159706
H6    H     H_    0.492267 0.526314 0.290093 0.159636
H7    H     H_    0.990548 0.966137 0.294206 0.159733
H8    H     H_    0.992679 0.024082 0.289107 0.159608
H9    H     H_    0.971584 0.430297 0.751490 0.193875
H10   H     H_    0.971584 0.569703 0.751490 0.193864
H11   H     H_    0.471585 0.930297 0.751490 0.193876
H12   H     H_    0.434598 0.545328 0.439418 0.171404
H13   H     H_    0.471586 0.069703 0.751491 0.193864
H14   H     H_    0.829361 0.378873 0.868075 0.164718
H15   H     H_    0.829361 0.621127 0.868075 0.164723
H16   H     H_    0.329361 0.878873 0.868076 0.164713
H17   H     H_    0.329361 0.121126 0.868074 0.164726
H18   H     H_    0.546551 0.462737 0.557853 0.173578
H19   H     H_    0.548228 0.542079 0.553974 0.173396
H20   H     H_    0.045937 0.964748 0.559278 0.173642
H21   H     H_    0.048959 0.043935 0.552283 0.173319
H22   H     H_    0.172987 0.344458 0.170671 0.108148
H23   H     H_    0.932237 0.961181 0.445234 0.171532
H24   H     H_    0.103419 0.370917 0.163930 0.186043
H25   H     H_    0.172990 0.655540 0.170672 0.108148
H26   H     H_    0.103424 0.629081 0.163934 0.186031
H27   H     H_    0.672985 0.844457 0.170671 0.108130
H28   H     H_    0.603417 0.870916 0.163929 0.186041
H29   H     H_    0.672992 0.155540 0.170673 0.108164
H30   H     H_    0.603426 0.129081 0.163935 0.186033
H31   H     H_    0.589781 0.430316 0.400288 0.109294
H32   H     H_    0.623241 0.458574 0.355694 0.108976
H33   H     H_    0.624792 0.532663 0.352057 0.108765
H34   H     H_    0.935341 0.047089 0.437589 0.171355
H35   H     H_    0.592568 0.564612 0.393666 0.109234
H36   H     H_    0.122516 0.955128 0.357395 0.109070
H37   H     H_    0.088602 0.928409 0.403085 0.109304
H38   H     H_    0.093629 0.062448 0.391146 0.109205
H39   H     H_    0.125310 0.029073 0.350835 0.108696
H40   H     H_    0.238657 0.596379 0.198762 0.106783
H41   H     H_    0.195838 0.588093 0.249944 0.133593
H42   H     H_    0.195829 0.411907 0.249943 0.133607
H43   H     H_    0.238655 0.403618 0.198768 0.106744
H44   H     H_    0.738658 0.096378 0.198759 0.106799
H45   H     H_    0.462837 0.571422 0.378450 0.162558
H46   H     H_    0.695841 0.088092 0.249945 0.133594
H47   H     H_    0.695827 0.911907 0.249943 0.133606
H48   H     H_    0.738653 0.903617 0.198770 0.106726
H49   H     H_    0.807939 0.576162 0.688602 0.124007
H50   H     H_    0.749715 0.589723 0.713671 0.101327
H51   H     H_    0.807939 0.423835 0.688606 0.124217
H52   H     H_    0.749717 0.410275 0.713678 0.101379
H53   H     H_    0.307938 0.076161 0.688601 0.123929
H54   H     H_    0.249714 0.089722 0.713669 0.101311
H55   H     H_    0.307940 0.923834 0.688608 0.124299
H56   H     H_    0.460038 0.428969 0.385510 0.162708
H57   H     H_    0.249719 0.910274 0.713681 0.101402
H58   H     H_    0.963968 0.071447 0.375605 0.162510
H59   H     H_    0.958916 0.929261 0.388337 0.162774
H60   H     H_    0.576605 0.571939 0.497984 0.162888
N1    N     N_R   0.075400 0.419050 0.040930 -0.094425
N2    N     N_R   0.976800 0.523070 0.840160 -0.052240
N3    N     N_R   0.476800 0.976930 0.840160 -0.052248
N4    N     N_R   0.476800 0.023070 0.840160 -0.052238
N5    N     N_R   0.134210 0.520980 0.157560 -0.065208
N6    N     N_R   0.134210 0.479020 0.157560 -0.065213
N7    N     N_R   0.634210 0.020980 0.157560 -0.065207
N8    N     N_R   0.634210 0.979020 0.157560 -0.065215
N9    N     N_R   0.020160 0.476910 0.158980 -0.167554
N10   N     N_R   0.020160 0.523090 0.158980 -0.167549
N11   N     N_R   0.520160 0.976910 0.158980 -0.167552
N12   N     N_R   0.075400 0.580950 0.040930 -0.094423
N13   N     N_R   0.520160 0.023090 0.158980 -0.167551
N14   N     N_R   0.864590 0.520950 0.843300 -0.053990
N15   N     N_R   0.864590 0.479050 0.843300 -0.054004
N16   N     N_R   0.364590 0.020950 0.843300 -0.053984
N17   N     N_R   0.364590 0.979050 0.843300 -0.054009
N18   N     N_R   0.919150 0.419020 0.955970 -0.075670
N19   N     N_R   0.919150 0.580980 0.955970 -0.075669
N20   N     N_R   0.419150 0.919020 0.955970 -0.075670
N21   N     N_R   0.419150 0.080980 0.955970 -0.075669
N22   N     N_R   0.965610 0.578840 0.046310 -0.127704
N23   N     N_R   0.575400 0.919050 0.040930 -0.094425
N24   N     N_R   0.965610 0.421160 0.046310 -0.127710
N25   N     N_R   0.465610 0.078840 0.046310 -0.127706
N26   N     N_R   0.465610 0.921160 0.046310 -0.127707
N27   N     N_3   0.119877 0.353793 0.130296 -0.184480
N28   N     N_3   0.119880 0.646205 0.130299 -0.184505
N29   N     N_3   0.619876 0.853793 0.130295 -0.184488
N30   N     N_3   0.619881 0.146205 0.130300 -0.184498
N31   N     N_3   0.620140 0.457941 0.408458 -0.209970
N32   N     N_3   0.621764 0.536022 0.404617 -0.209882
N33   N     N_3   0.119416 0.955593 0.410164 -0.210015
N34   N     N_R   0.575400 0.080950 0.040930 -0.094423
N35   N     N_3   0.122345 0.033524 0.403239 -0.209852
N36   N     N_3   0.229842 0.575048 0.234699 -0.212760
N37   N     N_3   0.229837 0.424950 0.234701 -0.212745
N38   N     N_3   0.729844 0.075047 0.234697 -0.212764
N39   N     N_3   0.729835 0.924950 0.234701 -0.212744
N40   N     N_3   0.801405 0.578567 0.738640 -0.204680
N41   N     N_3   0.801407 0.421431 0.738645 -0.204673
N42   N     N_3   0.301404 0.078567 0.738638 -0.204679
N43   N     N_3   0.301408 0.921430 0.738647 -0.204671
N44   N     N_R   0.035610 0.578860 0.956800 -0.114840
N45   N     N_R   0.035610 0.421140 0.956800 -0.114842
N46   N     N_R   0.535610 0.078860 0.956800 -0.114840
N47   N     N_R   0.535610 0.921140 0.956800 -0.114842
N48   N     N_R   0.976800 0.476930 0.840160 -0.052247
Ni1   Ni    Ni4+2 0.047340 0.448440 0.099050 0.230735
Ni2   Ni    Ni4+2 0.047340 0.551560 0.099050 0.230734
Ni3   Ni    Ni4+2 0.547340 0.948440 0.099050 0.230732
Ni4   Ni    Ni4+2 0.547340 0.051560 0.099050 0.230738
Ni5   Ni    Ni4+2 0.950540 0.549450 0.900950 0.237226
Ni6   Ni    Ni4+2 0.950540 0.450550 0.900950 0.237225
Ni7   Ni    Ni4+2 0.450540 0.049450 0.900950 0.237230
Ni8   Ni    Ni4+2 0.450540 0.950550 0.900950 0.237222

loop_
_geom_bond_atom_site_label_1
_geom_bond_atom_site_label_2
_ccdc_geom_bond_type
C58   C62   S    
C66   C68   T    
C41   N47   A    
H25   N28   S    
C20   C82   S    
C2    C18   A    
C44   N35   S    
C36   C42   S    
H54   N42   S    
C24   C27   S    
C14   C84   S    
C74   C83   T    
N3    N4    A    
N34   Ni4   S    
N23   N47   A    
C76   H16   S    
C25   H59   S    
C23   H1    S    
N6    Ni1   S    
C16   C31   S    
C97   N5    A    
N5    Ni2   S    
C55   C102  S    
H31   N31   S    
C8    N40   S    
N45   Ni6   S    
H30   N30   S    
C21   N28   S    
C46   H8    S    
H35   N32   S    
N23   Ni3   S    
C9    C16   A    
C41   F7    S    
C5    N10   A    
C13   F4    S    
C55   C59   T    
N19   Ni5   S    
C3    C52   S    
C28   H2    S    
N21   Ni7   S    
C10   C17   A    
H40   N36   S    
C12   C22   A    
C79   N4    A    
C20   C76   A    
C36   C47   S    
C78   N3    A    
C43   C105  A    
C38   N44   A    
N24   Ni1   S    
C43   N30   S    
C24   H12   S    
C94   C96   T    
H52   N41   S    
N2    Ni5   S    
C6    C15   A    
C65   N19   A    
C97   C108  A    
C3    C100  A    
N17   Ni8   S    
C11   C17   A    
C75   C106  A    
C99   N37   S    
N1    Ni1   S    
C51   C108  S    
C39   F5    S    
C97   N36   S    
C75   N48   A    
C6    N11   A    
C70   C74   S    
N19   N22   A    
C50   C52   T    
C32   C104  A    
N15   Ni6   S    
C8    N14   A    
C7    N13   A    
N8    Ni3   S    
H46   N38   S    
N48   Ni6   S    
C72   C81   T    
N3    Ni8   S    
N22   Ni2   S    
H24   N27   S    
C3    C101  A    
C7    C15   A    
N14   N15   A    
H42   N37   S    
C100  N38   S    
C98   F12   S    
C8    C16   A    
C31   C47   T    
C4    C14   A    
C4    F8    S    
C25   H23   S    
C17   C33   S    
C87   H17   S    
C1    N27   S    
H53   N42   S    
C61   C66   S    
H47   N39   S    
C71   C80   T    
H51   N41   S    
C19   C98   A    
C44   C46   S    
H50   N40   S    
C26   H58   S    
C45   H5    S    
C79   H13   S    
C40   F6    S    
H39   N35   S    
C79   C107  A    
C44   N33   S    
C64   C67   T    
C7    F11   S    
C46   H7    S    
C100  N7    A    
C2    N24   A    
C27   H60   S    
N12   N44   A    
H26   N28   S    
C76   N20   A    
C11   N43   S    
C1    N1    A    
C54   H14   S    
C21   N12   A    
C23   H56   S    
C49   C51   T    
H38   N35   S    
C22   C87   A    
C86   C89   S    
C27   H19   S    
N46   Ni7   S    
C56   C60   T    
C62   C69   T    
C5    F9    S    
C78   C107  A    
N10   Ni2   S    
C42   C45   S    
N9    Ni1   S    
N44   Ni5   S    
N11   N13   A    
N4    Ni7   S    
C38   C103  A    
N47   Ni8   S    
C95   C106  S    
C10   N16   A    
C91   C93   S    
C101  N39   S    
C90   C92   T    
C63   C70   T    
C45   H6    S    
C68   C72   S    
C23   C34   S    
C29   H21   S    
C35   C50   S    
C92   C94   S    
C77   N2    A    
C28   H18   S    
C34   C45   S    
C65   H15   S    
H22   N27   S    
H29   N30   S    
C38   F1    S    
C69   C73   S    
C5    C14   A    
N12   Ni2   S    
C25   C35   S    
N7    Ni4   S    
H43   N37   S    
N11   Ni3   S    
C96   C107  S    
C88   C90   S    
N18   N24   A    
C26   H34   S    
C23   C28   S    
N14   Ni5   S    
C101  N8    A    
C73   C82   T    
C42   N32   S    
C39   C102  A    
H55   N43   S    
C85   C88   T    
H44   N38   S    
C25   C30   S    
C57   C104  S    
C77   C106  A    
C34   C49   S    
N20   N26   A    
C13   C20   A    
N26   Ni3   S    
H37   N33   S    
C4    N9    A    
H41   N36   S    
C78   H11   S    
N20   Ni8   S    
C30   H4    S    
N16   N17   A    
H57   N43   S    
C30   H20   S    
H33   N32   S    
C53   C58   T    
C9    N15   A    
C57   C61   T    
N16   Ni7   S    
C27   C36   S    
C59   C63   S    
C54   N18   A    
C41   C104  A    
C15   C85   S    
C18   C54   A    
C60   C64   S    
N1    N45   A    
C22   C83   S    
C32   N23   A    
C24   H45   S    
N7    N8    A    
C30   C37   S    
H28   N29   S    
C12   N25   A    
C37   C48   S    
C32   N29   S    
C35   C46   S    
N2    N48   A    
N5    N6    A    
C93   C95   T    
H27   N29   S    
C53   C103  S    
H32   N31   S    
C98   N22   A    
C29   H3    S    
C87   N21   A    
C99   C108  A    
C19   C65   A    
C67   C71   S    
C77   H10   S    
C12   F3    S    
H48   N39   S    
C40   N46   A    
N9    N10   A    
N34   N46   A    
C24   C34   S    
C56   C105  S    
C39   N45   A    
C10   N42   S    
C11   N17   A    
C21   C103  A    
C37   C44   S    
C9    N41   S    
C26   C35   S    
H49   N40   S    
N18   Ni6   S    
C28   C36   S    
C26   C29   S    
C18   C80   S    
C89   C91   T    
C29   C37   S    
H36   N33   S    
C33   C48   T    
N21   N25   A    
C13   N26   A    
C84   C86   T    
N25   Ni4   S    
N13   Ni4   S    
C19   C81   S    
C43   N34   A    
C1    C102  A    
C6    F10   S    
C99   N6    A    
C42   N31   S    
C75   H9    S    
C40   C105  A    
C2    F2    S    
