data_mof_unit_pretest_1006.cif
_audit_creation_date              2013-03-05T15:48:13-0500
_audit_creation_method            fapswitch 2.2
_symmetry_space_group_name_H-M    P1
_symmetry_Int_Tables_number       1
_space_group_crystal_system       triclinic
_cell_length_a                    15.664529
_cell_length_b                    15.741851
_cell_length_c                    34.65328
_cell_angle_alpha                 89.973168
_cell_angle_beta                  90.232482
_cell_angle_gamma                 120.116871
_cell_volume                      7391.47595586

loop_
_atom_site_label
_atom_site_type_symbol
_atom_site_description
_atom_site_fract_x
_atom_site_fract_y
_atom_site_fract_z
_atom_type_partial_charge
O1    O     O_R   0.498680 0.159540 0.541860 -0.476527
O2    O     O_R   0.840460 0.339140 0.541860 -0.481136
O3    O     O_R   0.660860 0.501320 0.541860 -0.479053
O4    O     O_R   0.159540 0.498680 0.041860 -0.480352
O5    O     O_R   0.339140 0.840460 0.041860 -0.500842
O6    O     O_R   0.501320 0.660860 0.041860 -0.483258
O7    O     O_R   0.532760 0.358060 0.540030 -0.518643
O8    O     O_R   0.641940 0.174700 0.540030 -0.514789
O9    O     O_R   0.825300 0.467240 0.540030 -0.516800
O10   O     O_R   0.358060 0.532760 0.040030 -0.516651
O11   O     O_R   0.174700 0.641940 0.040030 -0.519534
O12   O     O_R   0.467240 0.825300 0.040030 -0.512274
C1    C     C_R   0.579078 0.440461 0.555568 0.556401
C2    C     C_R   0.559459 0.138452 0.555510 0.563961
C3    C     C_R   0.861935 0.421107 0.555423 0.554602
C4    C     C_R   0.441616 0.578391 0.055050 0.556825
C5    C     C_R   0.138016 0.559230 0.055332 0.554324
C6    C     C_R   0.422410 0.863825 0.054802 0.545120
O13   O     O_R   0.498590 0.161190 0.456930 -0.531880
O14   O     O_R   0.838810 0.337400 0.456930 -0.531530
O15   O     O_R   0.662600 0.501410 0.456930 -0.528682
O16   O     O_R   0.161190 0.498590 0.956930 -0.528563
O17   O     O_R   0.337400 0.838810 0.956930 -0.528069
O18   O     O_R   0.501410 0.662600 0.956930 -0.532738
O19   O     O_R   0.532680 0.359580 0.461300 -0.522062
O20   O     O_R   0.640420 0.173100 0.461300 -0.504494
O21   O     O_R   0.826900 0.467320 0.461300 -0.511966
O22   O     O_R   0.359580 0.532680 0.961300 -0.506263
O23   O     O_R   0.173100 0.640420 0.961300 -0.507289
O24   O     O_R   0.467320 0.826900 0.961300 -0.509714
C7    C     C_R   0.577589 0.442033 0.445410 0.528067
C8    C     C_R   0.580805 0.187161 0.440419 0.554171
C9    C     C_R   0.864790 0.422380 0.445709 0.529799
C10   C     C_R   0.442735 0.577491 0.945810 0.540925
C11   C     C_R   0.134496 0.557186 0.945854 0.540676
C12   C     C_R   0.422688 0.865415 0.945887 0.541317
Cr1   Cr    Cr6+3 0.522350 0.263930 0.500020 1.004657
Cr2   Cr    Cr6+3 0.736070 0.258420 0.500020 1.004010
Cr3   Cr    Cr6+3 0.741580 0.477650 0.500020 0.997994
Cr4   Cr    Cr6+3 0.263930 0.522350 0.000020 1.009793
Cr5   Cr    Cr6+3 0.258420 0.736070 0.000020 1.004465
Cr6   Cr    Cr6+3 0.477650 0.741580 0.000020 1.005599
O25   O     O_3   0.666667 0.333333 0.499990 -0.260553
O26   O     O_3   0.333333 0.666667 0.999990 -0.234546
N1    N     N_R   0.930041 0.415627 0.776349 -0.234293
N2    N     N_R   0.586751 0.514026 0.777390 -0.236252
N3    N     N_R   0.478646 0.066871 0.776841 -0.232996
N4    N     N_R   0.532819 0.995760 0.268887 -0.245080
N5    N     N_R   0.514925 0.569187 0.272532 -0.240500
N6    N     N_R   0.066379 0.488392 0.275462 -0.241933
N7    N     N_R   0.917273 0.407799 0.738282 -0.235781
N8    N     N_R   0.595336 0.508243 0.739436 -0.233723
N9    N     N_R   0.484091 0.080889 0.738847 -0.234314
N10   N     N_R   0.523891 0.971988 0.231745 -0.247139
N11   N     N_R   0.511234 0.574471 0.234332 -0.250783
N12   N     N_R   0.079815 0.494499 0.237467 -0.252367
C13   C     C_R   0.906605 0.451762 0.594158 0.026883
C14   C     C_R   0.549818 0.453186 0.594680 0.027541
C15   C     C_R   0.546749 0.096525 0.594602 0.026214
C16   C     C_R   0.462285 0.924532 0.089956 0.006719
C17   C     C_R   0.460240 0.543229 0.091956 0.026595
C18   C     C_R   0.091429 0.544744 0.093597 0.027853
C19   C     C_R   0.942119 0.398612 0.614984 0.122235
C20   C     C_R   0.604039 0.541306 0.615799 0.123503
C21   C     C_R   0.456191 0.056174 0.614483 0.122470
C22   C     C_R   0.424715 0.983323 0.104514 0.132512
C23   C     C_R   0.548443 0.598751 0.113136 0.123114
C24   C     C_R   0.057146 0.456854 0.114668 0.125885
C25   C     C_R   0.957489 0.413640 0.654802 -0.133759
C26   C     C_R   0.590134 0.540608 0.655725 -0.131776
C27   C     C_R   0.455056 0.042286 0.654459 -0.133019
C28   C     C_R   0.454396 0.024172 0.141732 -0.108748
C29   C     C_R   0.550980 0.577061 0.152112 -0.127191
C30   C     C_R   0.039071 0.456606 0.154179 -0.131421
C31   C     C_R   0.938630 0.480718 0.674145 0.018669
C32   C     C_R   0.523144 0.454165 0.674967 0.018840
C33   C     C_R   0.542077 0.066895 0.674830 0.018520
C34   C     C_R   0.521205 0.009151 0.163579 0.010098
C35   C     C_R   0.468541 0.499773 0.170189 0.021779
C36   C     C_R   0.054261 0.541890 0.173080 0.021120
C37   C     C_R   0.907149 0.537107 0.653154 -0.013013
C38   C     C_R   0.466479 0.366557 0.653753 -0.013677
C39   C     C_R   0.632286 0.104259 0.654816 -0.013987
C40   C     C_R   0.565282 0.958325 0.147378 -0.013381
C41   C     C_R   0.383372 0.437737 0.148040 -0.013649
C42   C     C_R   0.083929 0.628907 0.151750 -0.014067
C43   C     C_R   0.894648 0.523885 0.613297 -0.154968
C44   C     C_R   0.478453 0.368324 0.613804 -0.155298
C45   C     C_R   0.632613 0.115756 0.614874 -0.156262
C46   C     C_R   0.535004 0.916596 0.110827 -0.155027
C47   C     C_R   0.381213 0.460090 0.109080 -0.156186
C48   C     C_R   0.099206 0.627901 0.112100 -0.155702
N13   N     N_R   0.000046 0.578889 0.733138 -0.237955
N14   N     N_R   0.423673 0.414841 0.733652 -0.238308
N15   N     N_R   0.581974 0.008065 0.733758 -0.238287
N16   N     N_R   0.556011 0.129343 0.215276 -0.226119
N17   N     N_R   0.437316 0.403898 0.230015 -0.232991
N18   N     N_R   0.988386 0.574066 0.231847 -0.234994
N19   N     N_R   0.012587 0.586651 0.771155 -0.236002
N20   N     N_R   0.415150 0.420492 0.771556 -0.235349
N21   N     N_R   0.576615 0.994212 0.771675 -0.237855
N22   N     N_R   0.565481 0.153352 0.252528 -0.219587
N23   N     N_R   0.440678 0.398520 0.268240 -0.230936
N24   N     N_R   0.975147 0.568182 0.269801 -0.236162
C49   C     C_R   0.977599 0.505265 0.793541 0.348147
C50   C     C_R   0.496433 0.469993 0.794215 0.347224
C51   C     C_R   0.525233 0.023629 0.794022 0.348071
C52   C     C_R   0.553934 0.086861 0.280026 0.337733
C53   C     C_R   0.479288 0.481033 0.290266 0.345697
C54   C     C_R   0.013943 0.525388 0.292387 0.345941
C55   C     C_R   0.951865 0.489388 0.716080 0.337974
C56   C     C_R   0.513857 0.458315 0.716941 0.338218
C57   C     C_R   0.536216 0.051992 0.716710 0.337651
C58   C     C_R   0.535848 0.038374 0.204312 0.319725
C59   C     C_R   0.472384 0.491976 0.212373 0.336525
C60   C     C_R   0.041159 0.537617 0.215036 0.337288
C61   C     C_R   0.976521 0.431837 0.857544 -0.110840
C62   C     C_R   0.568913 0.543780 0.858399 -0.109862
C63   C     C_R   0.454766 0.024626 0.858584 -0.110742
C64   C     C_R   0.520304 0.036193 0.348857 -0.114987
C65   C     C_R   0.552787 0.560276 0.353550 -0.112171
C66   C     C_R   0.019121 0.455391 0.356578 -0.110792
C67   C     C_R   0.012604 0.441469 0.895416 -0.010612
C68   C     C_R   0.558725 0.572633 0.895635 0.006053
C69   C     C_R   0.429469 0.988535 0.896422 -0.010308
C70   C     C_R   0.524316 0.057571 0.388275 0.001256
C71   C     C_R   0.578389 0.554108 0.391934 -0.010315
C72   C     C_R   0.985171 0.429706 0.394650 -0.007989
C73   C     C_R   0.088465 0.619239 0.889134 -0.148166
C74   C     C_R   0.380173 0.470409 0.888678 -0.148846
C75   C     C_R   0.528863 0.910121 0.888749 -0.147613
C76   C     C_R   0.615057 0.232221 0.372547 -0.158461
C77   C     C_R   0.468495 0.376526 0.388669 -0.154289
C78   C     C_R   0.902117 0.524996 0.387904 -0.153600
C79   C     C_R   0.051671 0.608135 0.851921 -0.131826
C80   C     C_R   0.391708 0.444097 0.851704 -0.130942
C81   C     C_R   0.553777 0.947155 0.851656 -0.131042
C82   C     C_R   0.608714 0.209731 0.333431 -0.117382
C83   C     C_R   0.445034 0.384194 0.350669 -0.132298
C84   C     C_R   0.936688 0.549897 0.350513 -0.134671
C85   C     C_R   0.999683 0.514831 0.835130 0.020917
C86   C     C_R   0.485852 0.483947 0.835585 0.016811
C87   C     C_R   0.513062 0.000501 0.835531 0.021109
C88   C     C_R   0.561527 0.111568 0.321295 0.016906
C89   C     C_R   0.490268 0.475443 0.332263 0.020406
C90   C     C_R   0.991850 0.511976 0.333929 0.020048
C91   C     C_R   0.074535 0.537438 0.910545 0.029442
C92   C     C_R   0.462289 0.538093 0.910412 0.023395
C93   C     C_R   0.462579 0.925269 0.910756 0.030732
C94   C     C_R   0.573148 0.157242 0.400089 0.041105
C95   C     C_R   0.538975 0.459648 0.409136 0.024806
C96   C     C_R   0.921407 0.461242 0.409787 0.031143
H1    H     H_    0.866914 0.564926 0.597753 0.145883
H2    H     H_    0.437037 0.299801 0.598110 0.144896
H3    H     H_    0.702928 0.148021 0.600110 0.147400
H4    H     H_    0.566631 0.874608 0.099183 0.144237
H5    H     H_    0.313915 0.416049 0.092737 0.136262
H6    H     H_    0.125875 0.695845 0.096213 0.141682
H7    H     H_    0.983294 0.371724 0.670898 0.117424
H8    H     H_    0.632597 0.608100 0.671948 0.118917
H9    H     H_    0.385717 0.012371 0.669806 0.118108
H10   H     H_    0.423690 0.065424 0.154675 0.125148
H11   H     H_    0.617479 0.622353 0.168709 0.118359
H12   H     H_    0.014361 0.389483 0.170450 0.119323
H13   H     H_    0.932972 0.359297 0.845039 0.129350
H14   H     H_    0.642170 0.571071 0.846745 0.134278
H15   H     H_    0.426344 0.069211 0.846658 0.129106
H16   H     H_    0.483057 0.960083 0.339666 0.131556
H17   H     H_    0.585936 0.631315 0.339577 0.127820
H18   H     H_    0.064585 0.428619 0.344174 0.128275
H19   H     H_    0.133638 0.693225 0.900154 0.135439
H20   H     H_    0.305767 0.441979 0.899304 0.135007
H21   H     H_    0.556865 0.863908 0.899221 0.125583
H22   H     H_    0.652141 0.308641 0.381394 0.104883
H23   H     H_    0.436154 0.303719 0.401082 0.135668
H24   H     H_    0.854808 0.551334 0.398803 0.132748
H25   H     H_    0.068683 0.673493 0.835655 0.138682
H26   H     H_    0.326158 0.395967 0.835142 0.139497
H27   H     H_    0.600882 0.929181 0.834948 0.137594
H28   H     H_    0.641369 0.269157 0.312739 0.150630
H29   H     H_    0.394817 0.317717 0.335178 0.138727
H30   H     H_    0.916052 0.595364 0.334043 0.138515
N25   N     N_2   0.958414 0.327108 0.596625 -0.496352
H31   H     H_    0.951930 0.272084 0.614699 0.235651
C97   C     C_3   0.047153 0.368010 0.573651 -0.296531
H32   H     H_    0.052010 0.307654 0.559211 0.133771
H33   H     H_    0.113299 0.409549 0.592338 0.131599
H34   H     H_    0.046077 0.417560 0.551065 0.156231
N26   N     N_2   0.675580 0.629666 0.597631 -0.496136
H35   H     H_    0.731279 0.677949 0.615772 0.234377
C98   C     C_3   0.634236 0.677699 0.575039 -0.297004
H36   H     H_    0.694853 0.743906 0.561077 0.132990
H37   H     H_    0.592260 0.700749 0.593928 0.131987
H38   H     H_    0.584669 0.627929 0.552094 0.155507
N27   N     N_2   0.366884 0.032831 0.594917 -0.496651
H39   H     H_    0.314030 0.033809 0.612286 0.235273
C99   C     C_3   0.326928 0.945272 0.571289 -0.292795
H40   H     H_    0.260417 0.935320 0.555720 0.136725
H41   H     H_    0.305613 0.879801 0.589680 0.130749
H42   H     H_    0.381678 0.951485 0.549543 0.153704
N28   N     N_2   0.358284 0.999923 0.081441 -0.498795
H43   H     H_    0.377504 0.013759 0.052747 0.257802
C100  C     C_3   0.315763 0.055985 0.096712 -0.323074
H44   H     H_    0.263225 0.056757 0.075295 0.133830
H45   H     H_    0.374506 0.133017 0.102354 0.140870
H46   H     H_    0.273992 0.021386 0.123493 0.146156
N29   N     N_2   0.633040 0.679373 0.096215 -0.496306
H47   H     H_    0.678433 0.733041 0.115609 0.235711
C101  C     C_3   0.687752 0.651131 0.070859 -0.291745
H48   H     H_    0.748820 0.717708 0.057254 0.131612
H49   H     H_    0.639351 0.601798 0.047565 0.155009
H50   H     H_    0.719580 0.613166 0.087526 0.132917
N30   N     N_2   0.044929 0.369850 0.096949 -0.493755
H51   H     H_    0.053432 0.323411 0.115565 0.236238
C102  C     C_3   0.956713 0.318399 0.073568 -0.297237
H52   H     H_    0.955156 0.254274 0.059521 0.132558
H53   H     H_    0.955579 0.367238 0.050674 0.156950
H54   H     H_    0.889987 0.291741 0.091866 0.133888
C103  C     C_3   0.983260 0.348395 0.918151 -0.244898
C104  C     C_3   0.918178 0.339109 0.952709 -0.288216
C105  C     C_3   0.881897 0.241525 0.973509 -0.460178
H55   H     H_    0.837412 0.179168 0.953628 0.152118
H56   H     H_    0.945544 0.235896 0.984553 0.151525
H57   H     H_    0.834768 0.236633 0.998227 0.133865
H58   H     H_    0.960080 0.399854 0.973538 0.167369
H59   H     H_    0.853108 0.343528 0.942520 0.160382
H60   H     H_    0.940824 0.282786 0.899425 0.128356
H61   H     H_    0.049340 0.345278 0.927560 0.170482
C106  C     C_3   0.651780 0.636785 0.918752 -0.235645
C107  C     C_3   0.696397 0.747002 0.910216 -0.277217
C108  C     C_3   0.743927 0.776434 0.870398 -0.441176
H62   H     H_    0.797353 0.750443 0.866192 0.152322
H63   H     H_    0.686726 0.745852 0.847400 0.169363
H64   H     H_    0.784021 0.857700 0.867817 0.134955
H65   H     H_    0.639435 0.768829 0.912596 0.186496
H66   H     H_    0.754097 0.789160 0.932290 0.137549
H67   H     H_    0.636402 0.623892 0.950111 0.136001
H68   H     H_    0.707652 0.614569 0.912944 0.125236
C109  C     C_3   0.367490 0.018691 0.920028 -0.245381
C110  C     C_3   0.424677 0.080496 0.955276 -0.288374
C111  C     C_3   0.362529 0.111839 0.978531 -0.460081
H69   H     H_    0.341463 0.156755 0.960438 0.151741
H70   H     H_    0.294741 0.046268 0.989264 0.153419
H71   H     H_    0.405821 0.156588 0.003701 0.139316
H72   H     H_    0.446591 0.038151 0.974485 0.166453
H73   H     H_    0.492870 0.147264 0.945503 0.160606
H74   H     H_    0.345519 0.063375 0.902155 0.128360
H75   H     H_    0.297362 0.953215 0.928856 0.170759
C112  C     C_3   0.474205 0.972708 0.416291 -0.243648
C113  C     C_3   0.544900 0.938447 0.430199 -0.290999
C114  C     C_3   0.495435 0.857510 0.460320 -0.462126
H76   H     H_    0.471664 0.884214 0.485465 0.151437
H77   H     H_    0.430338 0.792285 0.447611 0.149373
H78   H     H_    0.548490 0.835488 0.470617 0.141758
H79   H     H_    0.567859 0.910007 0.405338 0.158976
H80   H     H_    0.612053 0.000801 0.443179 0.190446
H81   H     H_    0.443825 0.992344 0.441329 0.183453
H82   H     H_    0.409494 0.910126 0.401981 0.128051
C115  C     C_3   0.650712 0.648845 0.412351 -0.240229
C116  C     C_3   0.604496 0.668764 0.447682 -0.283146
C117  C     C_3   0.681492 0.758608 0.469884 -0.456505
H83   H     H_    0.742149 0.746873 0.480050 0.160716
H84   H     H_    0.712431 0.824893 0.451270 0.147648
H85   H     H_    0.646734 0.771068 0.495436 0.125432
H86   H     H_    0.544104 0.681594 0.438056 0.153740
H87   H     H_    0.572390 0.605015 0.467583 0.173429
H88   H     H_    0.718572 0.647349 0.420336 0.170615
H89   H     H_    0.675932 0.712521 0.392512 0.123438
C118  C     C_3   0.018684 0.369573 0.417679 -0.243916
C119  C     C_3   0.084619 0.428488 0.451808 -0.289697
C120  C     C_3   0.124169 0.370429 0.473116 -0.459514
H90   H     H_    0.062138 0.300865 0.484499 0.153366
H91   H     H_    0.169382 0.353307 0.453457 0.153837
H92   H     H_    0.171335 0.414633 0.497657 0.132486
H93   H     H_    0.148081 0.498118 0.441095 0.159267
H94   H     H_    0.042498 0.447121 0.472487 0.167931
H95   H     H_    0.954369 0.300021 0.427652 0.174688
H96   H     H_    0.061717 0.347271 0.399003 0.128991
C121  C     C_3   0.875551 0.603705 0.672127 -0.237828
C122  C     C_3   0.955147 0.711909 0.667766 -0.293821
C123  C     C_3   0.924169 0.779069 0.687281 -0.446790
H97   H     H_    0.854683 0.768722 0.674224 0.142158
H98   H     H_    0.912915 0.762971 0.718660 0.173274
H99   H     H_    0.982829 0.856868 0.683463 0.138871
H100  H     H_    0.025448 0.724670 0.680932 0.192771
H101  H     H_    0.968296 0.731185 0.636646 0.151760
H102  H     H_    0.805916 0.591375 0.658408 0.143391
H103  H     H_    0.857296 0.585372 0.703014 0.181780
C124  C     C_3   0.401137 0.267630 0.672523 -0.237181
C125  C     C_3   0.291778 0.236061 0.668066 -0.293449
C126  C     C_3   0.226021 0.136596 0.686998 -0.445428
H104  H     H_    0.237981 0.079410 0.673507 0.143057
H105  H     H_    0.242425 0.140569 0.718378 0.174986
H106  H     H_    0.147346 0.115329 0.683168 0.137352
H107  H     H_    0.277368 0.291605 0.681612 0.192230
H108  H     H_    0.272215 0.230620 0.636934 0.152112
H109  H     H_    0.414916 0.211891 0.658684 0.146599
H110  H     H_    0.419949 0.267834 0.703428 0.182433
C127  C     C_3   0.731126 0.142757 0.674940 -0.236687
C128  C     C_3   0.769198 0.070552 0.670844 -0.295243
C129  C     C_3   0.867439 0.108019 0.691899 -0.444072
H111  H     H_    0.923898 0.179922 0.679924 0.143340
H112  H     H_    0.858533 0.116445 0.723208 0.176382
H113  H     H_    0.893541 0.054689 0.688230 0.137661
H114  H     H_    0.714506 0.998037 0.682988 0.192284
H115  H     H_    0.779597 0.060394 0.639812 0.151406
H116  H     H_    0.785282 0.214357 0.661930 0.146966
H117  H     H_    0.727401 0.158902 0.705842 0.183444
C130  C     C_3   0.646086 0.948863 0.167585 -0.246703
C131  C     C_3   0.607582 0.844322 0.182781 -0.283426
C132  C     C_3   0.689002 0.836295 0.203817 -0.446509
H118  H     H_    0.750462 0.852526 0.183753 0.136218
H119  H     H_    0.717627 0.888415 0.228497 0.167197
H120  H     H_    0.659230 0.760771 0.215128 0.177904
H121  H     H_    0.545440 0.824096 0.203000 0.205686
H122  H     H_    0.579911 0.791085 0.158441 0.164252
H123  H     H_    0.707018 0.967718 0.146829 0.128018
H124  H     H_    0.679021 0.002347 0.191670 0.168077
C133  C     C_3   0.290759 0.352573 0.165017 -0.249767
C134  C     C_3   0.232597 0.388469 0.188876 -0.278248
C135  C     C_3   0.138708 0.302115 0.205142 -0.448345
H125  H     H_    0.089602 0.256038 0.181337 0.133042
H126  H     H_    0.157284 0.256462 0.223954 0.164421
H127  H     H_    0.098556 0.329828 0.222609 0.179383
H128  H     H_    0.278009 0.435182 0.213257 0.197905
H129  H     H_    0.212276 0.433260 0.170309 0.173867
H130  H     H_    0.241718 0.304641 0.141483 0.124092
H131  H     H_    0.309210 0.304685 0.182324 0.173969
C136  C     C_3   0.110522 0.726531 0.170346 -0.249423
C137  C     C_3   0.210284 0.770848 0.191404 -0.283025
C138  C     C_3   0.239020 0.870528 0.209030 -0.438368
H132  H     H_    0.245902 0.922988 0.186152 0.145176
H133  H     H_    0.182692 0.862910 0.230272 0.160393
H134  H     H_    0.311166 0.900488 0.224082 0.177824
H135  H     H_    0.207028 0.721098 0.214802 0.187504
H136  H     H_    0.268524 0.780417 0.170686 0.175881
H137  H     H_    0.115922 0.779679 0.147951 0.133077
H138  H     H_    0.051498 0.718566 0.190072 0.173860

loop_
_geom_bond_atom_site_label_1
_geom_bond_atom_site_label_2
_geom_bond_distance
_ccdc_geom_bond_type
N21   C51   1.356981 A    
N16   N22   1.331881 A    
C63   C87   1.403752 A    
C126  H104  1.111026 S    
C77   C95   1.406728 A    
C35   C41   1.416906 A    
C131  H122  1.111191 S    
C129  H111  1.110641 S    
C123  H99   1.110509 S    
C2    C15   1.476435 S    
C100  H45   1.111036 S    
C78   H24   1.083733 S    
C45   H3    1.084371 S    
O22   Cr4   1.960443 S    
C120  H90   1.110773 S    
N6    C54   1.357251 A    
C76   C94   1.400507 A    
O10   Cr4   1.965824 S    
C99   H41   1.111585 S    
C122  H100  1.111406 S    
C40   C130  1.515458 S    
O12   Cr6   1.976109 S    
O13   Cr1   2.092269 S    
C22   N28   1.434001 S    
C10   C92   1.475654 S    
C22   C28   1.410304 A    
C36   C60   1.465911 S    
C66   H18   1.083235 S    
C64   C88   1.404319 A    
C43   H1    1.084305 S    
C107  H66   1.111493 S    
C134  H129  1.111588 S    
N17   C59   1.354818 A    
C83   H29   1.083087 S    
O1    Cr1   2.081050 S    
N3    N9    1.330865 A    
O3    Cr3   2.080395 S    
C14   C20   1.412376 A    
N16   C58   1.356634 A    
O8    Cr2   1.974365 S    
C33   C57   1.465894 S    
O13   C8    1.276900 A    
N9    C57   1.356555 A    
C50   C86   1.472987 S    
N30   C102  1.445799 S    
C19   N25   1.423806 S    
C137  C138  1.525717 S    
C98   H36   1.109994 S    
C79   H25   1.082978 S    
O20   Cr2   1.953225 S    
O5    C6    1.245712 A    
O18   C10   1.245040 A    
C109  H75   1.108548 S    
N25   H31   1.031790 S    
C106  C107  1.539668 S    
C119  H94   1.110461 S    
C81   H27   1.082992 S    
N12   C60   1.356384 A    
C62   C68   1.404165 A    
C24   N30   1.423474 S    
N17   N23   1.329813 A    
C69   C93   1.422463 A    
O14   C9    1.249334 A    
C77   C83   1.387119 A    
C110  H72   1.110237 S    
C75   C93   1.404130 A    
C106  H67   1.110384 S    
C63   H15   1.083260 S    
C52   C88   1.470822 S    
C128  C129  1.526069 S    
C64   H16   1.083818 S    
C129  H113  1.110445 S    
C27   H9    1.084203 S    
C37   C121  1.516708 S    
C53   C89   1.472520 S    
C29   C35   1.403368 A    
C14   C44   1.407128 A    
C16   C46   1.404373 A    
O23   C11   1.253728 A    
N20   C50   1.357120 A    
O17   Cr5   2.093025 S    
O24   C12   1.250476 A    
C124  H109  1.112552 S    
O9    C3    1.247645 A    
C98   H38   1.110854 S    
Cr2   O25   1.964489 S    
C29   H11   1.083719 S    
O10   C4    1.245519 A    
N24   C54   1.357296 A    
C127  H116  1.111931 S    
N10   C58   1.354645 A    
C75   H21   1.082590 S    
C108  H64   1.110438 S    
C66   C90   1.403721 A    
C84   H30   1.082968 S    
C73   C91   1.405259 A    
O6    C4    1.246364 A    
N27   H39   1.031907 S    
O7    C1    1.245762 A    
C8    C94   1.460139 S    
C135  H125  1.110776 S    
O6    Cr6   2.078708 S    
C121  H102  1.112177 S    
C128  H114  1.111396 S    
O19   C7    1.252578 A    
C30   H12   1.083981 S    
O20   C8    1.283140 A    
C35   C59   1.470422 S    
O9    Cr3   1.967164 S    
C112  H82   1.112729 S    
O21   C9    1.252586 A    
O15   C7    1.246304 A    
C112  C113  1.531095 S    
C70   C112  1.515251 S    
C125  H108  1.111814 S    
C48   H6    1.083741 S    
C126  H105  1.110918 S    
C117  H83   1.111039 S    
C97   H33   1.111547 S    
N8    C56   1.356536 A    
C24   C30   1.398894 A    
C111  H69   1.110841 S    
C15   C45   1.406464 A    
N26   C98   1.445966 S    
O2    Cr2   2.070769 S    
C28   C34   1.402146 A    
C115  H89   1.112506 S    
C71   C95   1.424246 A    
C73   C79   1.385181 A    
C72   C96   1.421729 A    
C19   C25   1.399409 A    
C36   C42   1.414824 A    
C103  H61   1.108318 S    
N28   C100  1.447673 S    
C107  C108  1.527902 S    
C40   C46   1.394283 A    
C136  H137  1.112779 S    
C104  C105  1.525932 S    
N1    C49   1.357684 A    
C124  C125  1.532645 S    
C113  H80   1.110289 S    
C39   C45   1.395514 A    
C118  H95   1.108472 S    
C122  C123  1.525998 S    
C102  H54   1.111586 S    
C32   C38   1.413306 A    
C114  H78   1.106704 S    
N5    N11   1.329173 A    
N6    N12   1.330012 A    
C13   C43   1.406783 A    
C44   H2    1.084270 S    
C105  H55   1.110894 S    
C38   C124  1.516821 S    
C41   C133  1.517385 S    
C7    C95   1.478065 S    
C130  H124  1.110339 S    
C17   C23   1.411418 A    
N14   N20   1.328339 A    
C135  H127  1.109487 S    
C101  H48   1.110346 S    
O7    Cr1   1.975395 S    
C104  H59   1.112050 S    
C76   H22   1.084545 S    
C77   H23   1.083454 S    
C133  H130  1.112820 S    
O17   C12   1.244684 A    
C137  H135  1.110434 S    
C132  H119  1.110860 S    
C71   C115  1.518920 S    
C4    C17   1.478364 S    
C46   H4    1.084250 S    
C27   C33   1.403240 A    
C67   C103  1.518105 S    
O23   Cr5   1.954890 S    
C119  H93   1.112036 S    
C13   C19   1.411952 A    
C116  C117  1.525952 S    
O3    C1    1.247997 A    
C117  H85   1.109145 S    
C123  H98   1.110929 S    
N28   H43   1.031122 S    
C111  H71   1.110514 S    
C116  H86   1.111806 S    
C82   C88   1.401052 A    
C15   C21   1.411969 A    
C70   C94   1.417082 A    
C38   C44   1.396153 A    
N2    C50   1.358034 A    
N14   C56   1.354784 A    
C110  C111  1.526217 S    
C25   H7    1.084154 S    
C26   H8    1.084246 S    
C18   C24   1.411511 A    
C99   H40   1.110339 S    
C138  H134  1.110086 S    
C122  H101  1.111850 S    
O22   C10   1.251271 A    
Cr4   O26   1.965835 S    
N29   C101  1.446720 S    
C28   H10   1.081522 S    
O1    C2    1.246492 A    
C54   C90   1.472087 S    
N15   N21   1.327892 A    
N27   C99   1.446762 S    
C39   C127  1.516841 S    
C120  H92   1.110320 S    
O18   Cr6   2.093940 S    
C109  C110  1.535787 S    
C132  H118  1.110843 S    
C20   N26   1.423949 S    
C114  H76   1.111155 S    
N30   H51   1.031926 S    
C68   C92   1.421833 A    
Cr6   O26   1.955984 S    
C65   C71   1.405050 A    
C105  H57   1.110257 S    
C64   C70   1.400567 A    
C76   C82   1.391639 A    
C101  H50   1.111608 S    
C109  H74   1.112482 S    
C125  C126  1.526113 S    
C72   C118  1.517579 S    
C80   C86   1.399403 A    
C61   H13   1.083256 S    
N7    C55   1.356156 A    
C121  C122  1.532578 S    
C23   C29   1.398264 A    
N13   N19   1.327807 A    
C68   C106  1.516714 S    
C16   C22   1.416618 A    
C30   C36   1.402499 A    
C118  C119  1.534761 S    
C110  H73   1.111936 S    
C34   C58   1.465832 S    
C131  H121  1.110926 S    
C129  H112  1.110921 S    
C100  H46   1.110363 S    
N29   H47   1.031910 S    
C84   C90   1.398301 A    
C103  C104  1.534600 S    
C113  C114  1.525727 S    
Cr1   O25   1.955925 S    
C99   H42   1.110859 S    
C61   C85   1.402664 A    
C127  C128  1.532620 S    
C98   H37   1.111564 S    
C75   C81   1.385445 A    
C5    C18   1.477649 S    
C78   C96   1.405480 A    
C107  H65   1.108753 S    
C108  H63   1.109711 S    
C134  H128  1.109680 S    
O2    C3    1.250058 A    
C37   C43   1.395172 A    
N13   C55   1.354286 A    
O4    C5    1.250734 A    
C63   C69   1.405935 A    
Cr5   O26   1.964003 S    
C128  H115  1.111829 S    
C131  C132  1.525809 S    
O11   C5    1.248048 A    
C112  H81   1.107293 S    
C31   C55   1.463807 S    
N23   C53   1.358073 A    
C102  H53   1.110777 S    
C134  C135  1.525891 S    
C49   C85   1.470828 S    
C97   H32   1.110068 S    
N4    C52   1.355919 A    
N11   C59   1.356418 A    
C25   C31   1.402450 A    
C102  H52   1.110062 S    
C66   C72   1.405841 A    
N26   H35   1.031826 S    
C12   C93   1.474655 S    
C47   H5    1.083892 S    
C115  H88   1.108957 S    
C133  C134  1.534975 S    
C74   H20   1.083617 S    
N1    N7    1.329889 A    
C119  C120  1.525849 S    
O24   Cr6   1.960891 S    
C103  H60   1.112566 S    
C106  H68   1.112407 S    
C21   N27   1.424242 S    
C65   H17   1.083256 S    
C100  H44   1.110556 S    
C80   H26   1.082907 S    
C136  C137  1.535728 S    
C138  H132  1.110354 S    
C82   H28   1.083082 S    
C41   C47   1.399575 A    
C130  C131  1.534602 S    
N4    N10   1.327635 A    
O16   C11   1.248373 A    
C124  H110  1.109166 S    
N25   C97   1.445987 S    
C78   C84   1.384913 A    
C127  H117  1.109202 S    
C114  H77   1.110894 S    
C33   C39   1.413236 A    
N2    N8    1.330441 A    
O19   Cr1   1.961899 S    
C130  H123  1.112442 S    
O21   Cr3   1.961091 S    
C135  H126  1.110852 S    
C18   C48   1.407017 A    
C104  H58   1.110491 S    
N22   C52   1.358964 A    
C20   C26   1.400643 A    
C69   C109  1.518695 S    
C81   C87   1.399416 A    
C137  H136  1.112529 S    
C3    C13   1.475949 S    
C42   C136  1.518815 S    
N19   C49   1.356980 A    
C74   C92   1.405188 A    
C125  H107  1.111368 S    
O4    Cr4   2.079007 S    
C126  H106  1.110491 S    
C117  H84   1.110934 S    
C31   C37   1.412819 A    
C97   H34   1.110775 S    
Cr3   O25   1.965410 S    
C1    C14   1.478064 S    
C123  H97   1.110933 S    
C21   C27   1.401135 A    
C62   H14   1.083222 S    
C111  H70   1.110979 S    
O14   Cr2   2.091721 S    
N18   C60   1.353588 A    
O15   Cr3   2.085436 S    
C79   C85   1.398462 A    
C32   C56   1.467143 S    
O16   Cr4   2.082449 S    
C11   C91   1.474450 S    
C138  H133  1.110753 S    
C6    C16   1.477600 S    
C67   C91   1.422716 A    
N3    C51   1.358311 A    
C26   C32   1.403329 A    
C116  H87   1.109632 S    
C65   C89   1.403289 A    
C115  C116  1.535175 S    
C136  H138  1.107515 S    
C23   N29   1.424247 S    
N5    C53   1.356328 A    
C113  H79   1.111955 S    
C120  H91   1.110880 S    
O5    Cr5   2.074510 S    
C83   C89   1.397735 A    
O8    C2    1.244261 A    
C73   H19   1.083602 S    
C74   C80   1.386838 A    
C62   C86   1.402690 A    
C9    C96   1.474511 S    
C121  H103  1.109102 S    
C61   C67   1.404637 A    
C105  H56   1.110783 S    
C42   C48   1.397097 A    
N15   C57   1.354443 A    
N18   N24   1.328240 A    
C101  H49   1.110978 S    
C118  H96   1.112539 S    
O11   Cr5   1.974986 S    
C34   C40   1.410681 A    
C133  H131  1.108302 S    
C132  H120  1.108695 S    
O12   C6    1.246420 A    
C108  H62   1.110711 S    
C51   C87   1.473093 S    
C17   C47   1.405979 A    
