data_mof_unit_pretest_1778.cif
_audit_creation_date              2012-10-26T18:04:35-0400
_audit_creation_method            fapswitch 2.2
_symmetry_space_group_name_H-M    P1
_symmetry_Int_Tables_number       1
_space_group_crystal_system       triclinic
_cell_length_a                    32.268239
_cell_length_b                    32.267941
_cell_length_c                    32.267607
_cell_angle_alpha                 90.000933
_cell_angle_beta                  89.998174
_cell_angle_gamma                 90.002197
_cell_volume                      33597.9885232

loop_
_atom_site_label
_atom_site_type_symbol
_atom_type_description
_atom_site_fract_x
_atom_site_fract_y
_atom_site_fract_z
_atom_type_partial_charge
C1    C     C_R   0.000001 0.579533 0.500000 0.551922
C2    C     C_R   0.500003 0.579535 0.000001 0.551885
C3    C     C_1   0.000025 0.838545 0.499974 -0.067399
C4    C     C_1   0.161454 0.000029 0.499989 -0.066569
C5    C     C_1   0.499998 0.000034 0.838537 -0.012333
C6    C     C_1   0.838550 0.999997 0.500007 -0.072568
C7    C     C_1   0.500000 0.000008 0.161457 -0.061296
C8    C     C_1   0.500009 0.838537 0.000036 -0.012623
C9    C     C_1   0.838537 0.500008 0.999970 -0.012136
C10   C     C_1   0.500020 0.161453 0.999981 -0.066752
C11   C     C_1   0.161453 0.500016 0.000022 -0.065609
C12   C     C_1   0.500039 0.999997 0.661464 -0.012399
C13   C     C_R   0.579535 0.500002 0.999999 0.551867
C14   C     C_1   0.499980 0.661464 0.999992 -0.012424
C15   C     C_1   0.500008 0.000002 0.338530 0.034434
C16   C     C_1   0.500046 0.338539 0.999968 -0.018358
C17   C     C_1   0.661465 0.499981 0.000010 -0.012413
C18   C     C_1   0.000007 0.500002 0.338551 -0.071751
C19   C     C_1   0.338539 0.500034 0.000037 -0.018434
C20   C     C_1   0.000003 0.499998 0.661461 -0.060270
C21   C     C_1   0.999986 0.338542 0.499934 -0.018019
C22   C     C_1   0.338540 0.000038 0.499976 -0.017328
C23   C     C_1   0.000023 0.661458 0.499935 -0.018263
C24   C     C_R   0.500001 0.420466 1.000000 0.551380
C25   C     C_1   0.661449 0.999998 0.500012 -0.071490
C26   C     C_1   0.000003 0.500000 0.375952 -0.023291
C27   C     C_1   0.999998 0.375946 0.499976 -0.008344
C28   C     C_1   1.000000 0.499999 0.624057 -0.021706
C29   C     C_1   0.000005 0.624054 0.499977 -0.008563
C30   C     C_1   0.375944 0.000003 0.499995 -0.005776
C31   C     C_1   0.500015 0.000003 0.624059 -0.008255
C32   C     C_1   0.624049 0.000001 0.500008 -0.022295
C33   C     C_1   0.500006 0.000000 0.375938 0.005976
C34   C     C_1   0.499998 0.624059 0.000003 -0.007921
C35   C     C_R   0.500001 0.079532 0.000002 0.551825
C36   C     C_1   0.624059 0.499998 0.999997 -0.007839
C37   C     C_1   0.500018 0.375944 0.999997 -0.007693
C38   C     C_1   0.375943 0.500013 0.000005 -0.007680
C39   C     C_1   0.500004 0.000012 0.875942 -0.008105
C40   C     C_1   0.499997 0.875942 0.000013 -0.008449
C41   C     C_1   0.499999 0.000006 0.124054 -0.025824
C42   C     C_1   0.500006 0.124051 0.999994 -0.024968
C43   C     C_1   0.875942 0.499998 0.999992 -0.007601
C44   C     C_1   0.000009 0.500002 0.124049 -0.021400
C45   C     C_1   0.124051 0.500005 0.000008 -0.022459
C46   C     C_R   0.500001 0.000000 0.920465 0.553270
C47   C     C_1   0.000005 0.499999 0.875940 0.005041
C48   C     C_1   0.000002 0.124053 0.499993 -0.024382
C49   C     C_1   0.124052 0.000013 0.499996 -0.024477
C50   C     C_1   0.000013 0.875947 0.499993 -0.024790
C51   C     C_1   0.875951 0.999999 0.500003 -0.023569
C52   C     C_R   0.499999 0.920466 0.000001 0.553135
C53   C     C_R   0.499999 0.000002 0.079533 0.551346
C54   C     C_R   0.000002 0.500000 0.920466 0.549875
C55   C     C_R   0.920465 0.499999 0.000002 0.552827
C56   C     C_R   0.000003 0.500000 0.079532 0.554685
C57   C     C_R   0.000001 0.500000 0.420469 0.551939
C58   C     C_R   0.079532 0.500001 0.999999 0.553669
C59   C     C_R   0.920468 1.000000 0.500001 0.554640
C60   C     C_R   0.000002 0.079533 0.499999 0.554072
C61   C     C_R   0.079532 0.000000 0.499999 0.553589
C62   C     C_R   0.000003 0.920467 0.499999 0.553928
C63   C     C_R   0.975120 0.528511 0.228241 0.135486
C64   C     C_R   0.982989 0.228208 0.466088 0.135827
C65   C     C_R   0.965104 0.485584 0.771930 0.117194
C66   C     C_R   0.982743 0.771708 0.533583 0.092602
C67   C     C_R   0.034912 0.514405 0.771927 0.117281
C68   C     C_R   1.000000 0.420467 0.500000 0.551995
C69   C     C_R   0.016977 0.228294 0.533733 0.092853
C70   C     C_R   0.024914 0.471502 0.228240 0.135631
C71   C     C_R   0.017348 0.771790 0.466250 0.135624
C72   C     C_R   0.228214 0.033226 0.481696 0.136005
C73   C     C_R   0.473005 0.026599 0.771684 0.078477
C74   C     C_R   0.771760 0.020904 0.531560 0.134976
C75   C     C_R   0.516582 0.034040 0.228255 0.094277
C76   C     C_R   0.771758 0.979084 0.468464 0.134847
C77   C     C_R   0.526926 0.973586 0.771985 0.132972
C78   C     C_R   0.228283 0.966921 0.518230 0.092877
C79   C     C_R   1.000000 0.500000 0.579534 0.557108
C80   C     C_R   0.483424 0.965973 0.228255 0.094109
C81   C     C_R   0.474045 0.771984 0.972646 0.132809
C82   C     C_R   0.771687 0.523966 0.970632 0.078391
C83   C     C_R   0.517855 0.228209 0.966532 0.136005
C84   C     C_R   0.228285 0.485531 0.965108 0.092691
C85   C     C_R   0.482267 0.228285 0.033351 0.092912
C86   C     C_R   0.771983 0.476128 0.029194 0.132786
C87   C     C_R   0.526056 0.771685 0.027533 0.078299
C88   C     C_R   0.228208 0.514563 0.035025 0.136140
C89   C     C_R   0.473134 0.026467 0.728017 0.132963
C90   C     C_R   0.500002 1.000000 0.420465 0.548368
C91   C     C_R   0.473917 0.728317 0.972513 0.078118
C92   C     C_R   0.483463 0.966059 0.271923 0.116767
C93   C     C_R   0.482333 0.271951 0.033228 0.131934
C94   C     C_R   0.516550 0.033950 0.271923 0.116821
C95   C     C_R   0.525936 0.728018 0.027393 0.132723
C96   C     C_R   0.527064 0.973463 0.728317 0.078439
C97   C     C_R   0.517888 0.271729 0.966500 0.120199
C98   C     C_R   0.728020 0.523856 0.970779 0.132828
C99   C     C_R   0.975123 0.528515 0.271762 0.135646
C100  C     C_R   0.271729 0.514588 0.035061 0.120330
C101  C     C_R   0.420467 0.999999 0.500003 0.553480
C102  C     C_R   0.034996 0.514447 0.728259 0.093753
C103  C     C_R   0.271951 0.485583 0.965236 0.131990
C104  C     C_R   0.024906 0.471496 0.271760 0.135766
C105  C     C_R   0.728316 0.476010 0.029334 0.078320
C106  C     C_R   0.965018 0.485543 0.728263 0.093710
C107  C     C_R   0.982974 0.271729 0.466041 0.121209
C108  C     C_R   0.271734 0.033259 0.481670 0.120305
C109  C     C_R   0.017358 0.728269 0.466202 0.121000
C110  C     C_R   0.728238 0.979088 0.468463 0.135140
C111  C     C_R   0.982805 0.728042 0.533456 0.132350
C112  C     C_R   0.500001 0.000001 0.579535 0.551445
C113  C     C_R   0.271949 0.967042 0.518165 0.132160
C114  C     C_R   0.016911 0.271961 0.533605 0.132585
C115  C     C_R   0.728240 0.020899 0.531565 0.135247
C116  C     C_R   0.000017 0.500006 0.206331 -0.019867
C117  C     C_R   0.999989 0.206339 0.499933 -0.004762
C118  C     C_R   0.000008 0.499995 0.793670 0.058959
C119  C     C_R   0.000039 0.793661 0.499938 -0.004973
C120  C     C_R   0.206337 0.000057 0.499973 -0.004178
C121  C     C_R   0.499959 0.000091 0.793661 0.034502
C122  C     C_R   0.793669 0.999995 0.500010 -0.020375
C123  C     C_R   0.579531 0.000001 0.500003 0.552433
C124  C     C_R   0.500001 0.000008 0.206343 0.011644
C125  C     C_R   0.500052 0.793661 0.000091 0.034398
C126  C     C_R   0.793661 0.500049 0.999912 0.034600
C127  C     C_R   0.500045 0.206336 0.999957 -0.004198
C128  C     C_R   0.206336 0.500036 0.000049 -0.004116
C129  C     C_R   0.500098 0.999959 0.706340 0.034498
C130  C     C_R   0.499927 0.706341 0.999948 0.034283
C131  C     C_R   0.500008 0.000004 0.293665 0.058091
C132  C     C_R   0.500102 0.293666 0.999881 0.018133
C133  C     C_R   0.706341 0.499933 0.000060 0.034284
C134  C     C_R   0.420466 0.500001 0.000000 0.551397
C135  C     C_R   0.000012 0.500004 0.293671 -0.019742
C136  C     C_R   0.293666 0.500078 0.000131 0.018101
C137  C     C_R   0.000006 0.499996 0.706348 0.010849
C138  C     C_R   0.999948 0.293669 0.499839 0.019156
C139  C     C_R   0.293667 0.000132 0.499926 0.018388
C140  C     C_R   0.000071 0.706330 0.499844 0.018971
C141  C     C_R   0.706330 0.999995 0.500014 -0.019841
C142  C     C_1   0.000014 0.500004 0.161450 -0.071132
C143  C     C_1   0.999999 0.161455 0.499972 -0.067028
C144  C     C_1   0.000008 0.499997 0.838534 0.034087
Cu1   Cu    Cu3+1 0.041050 0.500000 0.500000 0.970049
Cu2   Cu    Cu3+1 0.000000 0.541050 0.000000 0.969118
Cu3   Cu    Cu3+1 0.000000 0.000000 0.541050 0.961094
Cu4   Cu    Cu3+1 0.000000 0.000000 0.458950 0.965396
Cu5   Cu    Cu3+1 0.958950 0.500000 0.500000 0.969530
Cu6   Cu    Cu3+1 0.500000 0.958950 0.500000 0.976816
Cu7   Cu    Cu3+1 0.500000 0.041050 0.500000 0.976913
Cu8   Cu    Cu3+1 0.500000 0.500000 0.041050 0.976396
Cu9   Cu    Cu3+1 0.500000 0.500000 0.958950 0.976039
Cu10  Cu    Cu3+1 0.541050 0.000000 0.000000 0.969295
Cu11  Cu    Cu3+1 0.458950 0.000000 0.000000 0.967681
Cu12  Cu    Cu3+1 0.000000 0.458950 0.000000 0.975459
H1    H     H_    0.968524 0.576029 0.312200 0.233438
H2    H     H_    0.062015 0.554042 0.687766 0.241391
H3    H     H_    0.018244 0.285881 0.594725 0.253909
H4    H     H_    0.065145 0.285884 0.571163 0.255547
H5    H     H_    0.071076 0.458528 0.312211 0.236079
H6    H     H_    0.031502 0.423979 0.312195 0.233336
H7    H     H_    0.012330 0.687856 0.418479 0.230687
H8    H     H_    0.059054 0.687842 0.442479 0.232163
H9    H     H_    0.312164 0.081092 0.485286 0.233708
H10   H     H_    0.312154 0.055736 0.439282 0.231911
H11   H     H_    0.415370 0.046452 0.714055 0.254856
H12   H     H_    0.928948 0.541483 0.312210 0.235594
H13   H     H_    0.452169 0.083879 0.714042 0.256266
H14   H     H_    0.687800 0.021163 0.579535 0.231986
H15   H     H_    0.687795 0.064956 0.550523 0.235731
H16   H     H_    0.517163 0.095087 0.285801 0.256861
H17   H     H_    0.564340 0.072086 0.285794 0.256148
H18   H     H_    0.687790 0.935030 0.449512 0.235342
H19   H     H_    0.687800 0.978820 0.420495 0.234147
H20   H     H_    0.574116 0.964075 0.687883 0.237854
H21   H     H_    0.537301 0.926595 0.687873 0.240162
H22   H     H_    0.285856 0.906018 0.521841 0.255438
H23   H     H_    0.988434 0.312142 0.418367 0.230742
H24   H     H_    0.285857 0.931360 0.567806 0.254413
H25   H     H_    0.482852 0.904921 0.285793 0.256899
H26   H     H_    0.435676 0.927922 0.285799 0.256066
H27   H     H_    0.465358 0.687878 0.925307 0.240634
H28   H     H_    0.427232 0.687879 0.961455 0.237806
H29   H     H_    0.714053 0.538471 0.911430 0.255660
H30   H     H_    0.714058 0.579110 0.944648 0.255148
H31   H     H_    0.513606 0.312156 0.918720 0.233703
H32   H     H_    0.559959 0.312145 0.943428 0.230904
H33   H     H_    0.285863 0.488630 0.904178 0.254955
H34   H     H_    0.941492 0.312150 0.441940 0.232152
H35   H     H_    0.285864 0.440162 0.924318 0.254810
H36   H     H_    0.479523 0.285863 0.094298 0.255277
H37   H     H_    0.433205 0.285866 0.069612 0.254866
H38   H     H_    0.687875 0.470943 0.077040 0.241083
H39   H     H_    0.687879 0.430263 0.043793 0.237997
H40   H     H_    0.544871 0.714048 0.085506 0.255776
H41   H     H_    0.582960 0.714057 0.049393 0.255281
H42   H     H_    0.312153 0.505748 0.082212 0.234235
H43   H     H_    0.312146 0.554254 0.062055 0.231055
H44   H     H_    0.462808 0.073483 0.812119 0.237972
H45   H     H_    0.917936 0.494507 0.687763 0.242747
H46   H     H_    0.425967 0.036027 0.812127 0.240063
H47   H     H_    0.417028 0.785949 0.950628 0.255402
H48   H     H_    0.455128 0.785950 0.914526 0.255126
H49   H     H_    0.489487 0.918424 0.187758 0.238973
H50   H     H_    0.442252 0.941433 0.187756 0.241531
H51   H     H_    0.440217 0.187824 0.056427 0.242004
H52   H     H_    0.486593 0.187826 0.081122 0.239731
H53   H     H_    0.510512 0.081593 0.187765 0.239123
H54   H     H_    0.557747 0.058585 0.187750 0.241503
H55   H     H_    0.572728 0.812131 0.038617 0.240394
H56   H     H_    0.937998 0.445947 0.687771 0.241673
H57   H     H_    0.534588 0.812117 0.074751 0.237104
H58   H     H_    0.547896 0.916172 0.785943 0.255018
H59   H     H_    0.584687 0.953608 0.785964 0.255984
H60   H     H_    0.513497 0.187753 0.918775 0.231602
H61   H     H_    0.559858 0.187705 0.943478 0.234471
H62   H     H_    0.812132 0.569698 0.956150 0.240249
H63   H     H_    0.812120 0.529008 0.922916 0.239271
H64   H     H_    0.968493 0.576011 0.187794 0.236246
H65   H     H_    0.928929 0.541451 0.187805 0.234542
H66   H     H_    0.187733 0.505673 0.082134 0.232596
H67   H     H_    0.980916 0.714123 0.594561 0.253671
H68   H     H_    0.187722 0.554188 0.061988 0.234092
H69   H     H_    0.095969 0.511213 0.785801 0.255731
H70   H     H_    0.075948 0.559729 0.785804 0.256240
H71   H     H_    0.187823 0.445884 0.938116 0.242502
H72   H     H_    0.187829 0.494409 0.917969 0.242010
H73   H     H_    0.071109 0.458569 0.187803 0.233567
H74   H     H_    0.031550 0.424004 0.187790 0.236308
H75   H     H_    0.785948 0.420884 0.055345 0.256081
H76   H     H_    0.785947 0.461534 0.088548 0.255226
H77   H     H_    0.904048 0.488772 0.785809 0.255405
H78   H     H_    0.934230 0.714125 0.570577 0.255245
H79   H     H_    0.924072 0.440257 0.785810 0.256750
H80   H     H_    0.988453 0.187717 0.418475 0.235938
H81   H     H_    0.941513 0.187726 0.442062 0.233347
H82   H     H_    0.187741 0.081025 0.485359 0.231947
H83   H     H_    0.187733 0.055675 0.439347 0.234785
H84   H     H_    0.012329 0.812281 0.418590 0.235887
H85   H     H_    0.059049 0.812267 0.442605 0.232780
H86   H     H_    0.812195 0.935011 0.449527 0.233482
H87   H     H_    0.812205 0.978796 0.420501 0.236172
H88   H     H_    0.941032 0.812164 0.557268 0.241266
H89   H     H_    0.082074 0.505481 0.687753 0.242868
H90   H     H_    0.987761 0.812166 0.581287 0.242509
H91   H     H_    0.187818 0.944451 0.560601 0.241828
H92   H     H_    0.187822 0.919095 0.514581 0.240274
H93   H     H_    0.058474 0.187843 0.557791 0.241331
H94   H     H_    0.011530 0.187838 0.581389 0.242802
H95   H     H_    0.812207 0.021191 0.579519 0.235374
H96   H     H_    0.812200 0.064977 0.550495 0.233746
N1    N     N_3   0.949537 0.557834 0.293269 -0.568881
N2    N     N_3   0.445837 0.053298 0.705401 -0.605617
N3    N     N_3   0.706734 0.042387 0.564009 -0.570118
N4    N     N_3   0.533341 0.068387 0.294476 -0.613617
N5    N     N_3   0.706731 0.957597 0.436022 -0.569365
N6    N     N_3   0.554830 0.946193 0.706809 -0.638034
N7    N     N_3   0.294524 0.933502 0.536656 -0.603836
N8    N     N_3   0.466675 0.931620 0.294475 -0.613346
N9    N     N_3   0.447140 0.706809 0.944271 -0.638070
N10   N     N_3   0.705406 0.548081 0.941143 -0.605382
N11   N     N_3   0.536202 0.293212 0.932153 -0.572235
N12   N     N_3   0.965511 0.293208 0.431252 -0.572282
N13   N     N_3   0.294529 0.470888 0.929868 -0.604013
N14   N     N_3   0.464321 0.294530 0.067028 -0.603894
N15   N     N_3   0.706807 0.451381 0.059467 -0.637293
N16   N     N_3   0.552273 0.705403 0.055167 -0.605401
N17   N     N_3   0.293211 0.529528 0.071004 -0.571472
N18   N     N_3   0.445261 0.053892 0.793192 -0.637940
N19   N     N_3   0.447718 0.794599 0.944862 -0.605825
N20   N     N_3   0.466396 0.931013 0.206686 -0.635162
N21   N     N_3   0.463980 0.206753 0.067694 -0.635645
N22   N     N_3   0.533606 0.069003 0.206686 -0.635136
N23   N     N_3   0.929079 0.470690 0.706696 -0.633780
N24   N     N_3   0.552817 0.793194 0.055789 -0.638158
N25   N     N_3   0.554218 0.946751 0.794601 -0.605387
N26   N     N_3   0.536127 0.206665 0.932198 -0.569672
N27   N     N_3   0.793196 0.548580 0.940487 -0.637854
N28   N     N_3   0.949517 0.557814 0.206735 -0.568518
N29   N     N_3   0.206664 0.529473 0.070947 -0.568939
N30   N     N_3   0.070328 0.529020 0.794480 -0.617469
N31   N     N_3   0.206754 0.470615 0.929174 -0.634994
N32   N     N_3   0.050522 0.442203 0.206732 -0.568247
N33   N     N_3   0.794597 0.451915 0.058839 -0.606546
N34   N     N_3   0.965302 0.705461 0.567522 -0.607107
N35   N     N_3   0.929690 0.470967 0.794486 -0.617264
N36   N     N_3   0.965525 0.206658 0.431339 -0.567933
N37   N     N_3   0.206674 0.067294 0.462932 -0.569183
N38   N     N_3   0.035134 0.793337 0.431663 -0.568190
N39   N     N_3   0.793264 0.957581 0.436030 -0.569144
N40   N     N_3   0.964956 0.793237 0.568189 -0.635136
N41   N     N_3   0.206748 0.932845 0.537002 -0.635771
N42   N     N_3   0.034451 0.206768 0.568496 -0.634768
N43   N     N_3   0.793267 0.042407 0.563992 -0.569680
N44   N     N_3   0.070933 0.529298 0.706689 -0.634009
N45   N     N_3   0.034101 0.294544 0.567827 -0.606830
N46   N     N_3   0.050491 0.442177 0.293267 -0.568299
N47   N     N_3   0.035137 0.706787 0.431573 -0.572336
N48   N     N_3   0.293221 0.067344 0.462878 -0.571746
O1    O     O_R   0.034670 0.559850 0.499980 -0.504136
O2    O     O_R   0.440150 0.965330 0.500020 -0.494347
O3    O     O_R   0.500020 0.965330 0.559850 -0.505086
O4    O     O_R   0.559850 0.965330 0.499980 -0.503232
O5    O     O_R   0.500020 0.034670 0.440150 -0.499587
O6    O     O_R   0.559850 0.034670 0.500020 -0.501373
O7    O     O_R   0.499980 0.034670 0.559850 -0.496957
O8    O     O_R   0.440150 0.034670 0.499980 -0.505197
O9    O     O_R   0.440150 0.500020 0.034670 -0.505700
O10   O     O_R   0.500020 0.559850 0.034670 -0.496930
O11   O     O_R   0.559850 0.499980 0.034670 -0.504634
O12   O     O_R   0.034670 0.499980 0.440150 -0.502380
O13   O     O_R   0.499980 0.440150 0.034670 -0.495921
O14   O     O_R   0.440150 0.499980 0.965330 -0.495831
O15   O     O_R   0.500020 0.440150 0.965330 -0.505742
O16   O     O_R   0.559850 0.500020 0.965330 -0.496748
O17   O     O_R   0.499980 0.559850 0.965330 -0.504582
O18   O     O_R   0.534670 0.059850 0.999980 -0.502112
O19   O     O_R   0.534670 0.999980 0.940150 -0.495906
O20   O     O_R   0.534670 0.940150 0.000020 -0.503748
O21   O     O_R   0.534670 0.000020 0.059850 -0.502546
O22   O     O_R   0.465330 0.059850 0.000020 -0.502697
O23   O     O_R   0.034670 0.440150 0.500020 -0.497955
O24   O     O_R   0.465330 0.999980 0.059850 -0.502354
O25   O     O_R   0.465330 0.940150 0.999980 -0.496513
O26   O     O_R   0.465330 0.000020 0.940150 -0.504123
O27   O     O_R   0.999980 0.465330 0.940150 -0.500805
O28   O     O_R   0.940150 0.465330 0.000020 -0.495939
O29   O     O_R   0.000020 0.465330 0.059850 -0.501223
O30   O     O_R   0.059850 0.465330 0.999980 -0.502262
O31   O     O_R   0.000020 0.534670 0.940150 -0.500976
O32   O     O_R   0.059850 0.534670 0.000020 -0.501053
O33   O     O_R   0.999980 0.534670 0.059850 -0.502327
O34   O     O_R   0.034670 0.500020 0.559850 -0.500922
O35   O     O_R   0.940150 0.534670 0.999980 -0.505039
O36   O     O_R   0.940150 0.000020 0.534670 -0.502192
O37   O     O_R   0.000020 0.059850 0.534670 -0.502235
O38   O     O_R   0.059850 0.999980 0.534670 -0.501968
O39   O     O_R   0.999980 0.940150 0.534670 -0.502412
O40   O     O_R   0.940150 0.999980 0.465330 -0.501423
O41   O     O_R   0.000020 0.940150 0.465330 -0.501706
O42   O     O_R   0.059850 0.000020 0.465330 -0.501084
O43   O     O_R   0.999980 0.059850 0.465330 -0.501663
O44   O     O_R   0.965330 0.559850 0.500020 -0.498103
O45   O     O_R   0.965330 0.499980 0.559850 -0.500916
O46   O     O_R   0.965330 0.440150 0.499980 -0.504101
O47   O     O_R   0.965330 0.500020 0.440150 -0.502642
O48   O     O_R   0.499980 0.965330 0.440150 -0.499267

loop_
_geom_bond_atom_site_label_1
_geom_bond_atom_site_label_2
_ccdc_geom_bond_type
C115  C141  A    
C104  C135  A    
H50   N20   S    
H76   N33   S    
H9    N48   S    
Cu10  O18   S    
Cu11  O22   S    
H44   N18   S    
H93   N42   S    
C67   N30   S    
Cu3   O36   S    
C63   N28   S    
H74   N32   S    
C89   C129  A    
C35   C42   S    
H42   N17   S    
C27   C68   S    
C109  N47   S    
C38   C134  S    
H64   N28   S    
C31   C112  S    
C134  O14   A    
H6    N46   S    
C46   O19   A    
C2    C34   S    
C82   C98   A    
H18   N5    S    
H66   N29   S    
H82   N37   S    
C100  N17   S    
H87   N39   S    
Cu7   O5    S    
C61   O42   A    
C54   O27   A    
Cu8   O10   S    
C54   O31   A    
Cu4   O43   S    
C3    C119  S    
C101  O8    A    
C93   N14   S    
C20   C28   T    
C19   C136  S    
H27   N9    S    
C22   C139  S    
H55   N24   S    
C80   N20   S    
C20   C137  S    
C80   C92   A    
C78   C120  A    
H70   N30   S    
Cu9   O16   S    
H7    N47   S    
Cu11  O25   S    
C1    C29   S    
Cu6   O3    S    
Cu5   O44   S    
H69   N30   S    
Cu10  Cu11  S    
H19   N5    S    
C116  C142  S    
H61   N26   S    
C73   C121  A    
C123  O6    A    
C17   C133  S    
Cu1   O23   S    
C78   C113  A    
C105  C133  A    
C14   C130  S    
H16   N4    S    
C106  N23   S    
C106  C137  A    
H26   N8    S    
C71   C119  A    
C4    C49   T    
C65   N35   S    
C76   C122  A    
C107  C138  A    
H78   N34   S    
H41   N16   S    
C60   O43   A    
H92   N41   S    
C103  N13   S    
C67   C118  A    
C97   N11   S    
C73   C89   A    
C104  N46   S    
C69   N42   S    
C8    C40   T    
H81   N36   S    
C96   C129  A    
C84   C128  A    
C98   C133  A    
C86   C126  A    
C55   O35   A    
Cu3   Cu4   S    
C103  C136  A    
H30   N10   S    
H90   N40   S    
H14   N3    S    
C23   C29   T    
Cu1   O34   S    
C94   N4    S    
C63   C99   A    
C57   O47   A    
Cu3   O37   S    
H24   N7    S    
C85   C93   A    
C72   C108  A    
C76   N39   S    
C87   C95   A    
C95   C130  A    
C113  C139  A    
Cu2   O31   S    
C17   C36   T    
C93   C132  A    
H21   N6    S    
C91   N9    S    
H43   N17   S    
Cu12  O30   S    
Cu4   O40   S    
Cu5   O45   S    
H35   N13   S    
C32   C123  S    
H33   N13   S    
H5    N46   S    
C26   C57   S    
C3    C50   T    
Cu1   O1    S    
C35   O18   A    
C84   N31   S    
C9    C43   T    
C75   C124  A    
C23   C140  S    
C78   N41   S    
C102  N44   S    
Cu8   O13   S    
C13   O11   A    
C102  C137  A    
Cu4   O42   S    
C110  C141  A    
H4    N45   S    
C98   N10   S    
C65   C118  A    
C72   C120  A    
C24   C37   S    
H31   N11   S    
C41   C53   S    
C101  O2    A    
Cu12  O28   S    
H47   N19   S    
H45   N23   S    
H72   N31   S    
C43   C55   S    
C61   O38   A    
C12   C31   T    
H40   N16   S    
H56   N23   S    
C53   O24   A    
C22   C30   T    
C81   C125  A    
C83   C127  A    
H71   N31   S    
C14   C34   T    
C108  C139  A    
C68   O46   A    
Cu10  O19   S    
H10   N48   S    
C105  N15   S    
C77   C96   A    
C55   O28   A    
C76   C110  A    
C89   N2    S    
C123  O4    A    
Cu1   O12   S    
H20   N6    S    
C74   C115  A    
H54   N22   S    
C111  N34   S    
C85   N21   S    
C114  C138  A    
C62   O41   A    
C77   C121  A    
H22   N7    S    
C15   C131  S    
C59   O40   A    
C110  N5    S    
C96   N6    S    
H53   N22   S    
Cu5   O47   S    
H58   N25   S    
Cu6   Cu7   S    
H65   N28   S    
H3    N45   S    
C35   O22   A    
C64   N36   S    
C56   O33   A    
C100  C136  A    
C10   C42   T    
H96   N43   S    
C18   C26   T    
C90   O5    A    
H59   N25   S    
H32   N11   S    
Cu7   O8    S    
C109  C140  A    
H37   N14   S    
C74   N43   S    
C73   N18   S    
C70   C104  A    
H29   N10   S    
H89   N44   S    
C66   C119  A    
C28   C79   S    
Cu6   O48   S    
C82   C126  A    
H8    N47   S    
Cu9   O15   S    
H62   N27   S    
C59   O36   A    
Cu6   O4    S    
C107  N12   S    
C71   N38   S    
C66   C111  A    
H39   N15   S    
C16   C37   T    
C21   C27   T    
H49   N20   S    
C21   C138  S    
C111  C140  A    
C45   C58   S    
C79   O45   A    
C12   C129  S    
C49   C61   S    
C91   C130  A    
C70   C116  A    
C47   C144  T    
C64   C117  A    
C48   C143  T    
Cu2   O35   S    
C62   O39   A    
C19   C38   T    
H67   N34   S    
H23   N12   S    
C44   C56   S    
H68   N29   S    
H83   N37   S    
H57   N24   S    
H28   N9    S    
C99   C135  A    
C13   O16   A    
C88   C100  A    
C47   C54   S    
C63   C116  A    
H52   N21   S    
C74   C122  A    
C86   N33   S    
C11   C45   T    
C80   C124  A    
Cu7   O6    S    
Cu8   O9    S    
H60   N26   S    
C25   C141  S    
H38   N15   S    
C97   C132  A    
C24   O13   A    
C53   O21   A    
C94   C131  A    
H95   N43   S    
H46   N18   S    
H2    N44   S    
Cu9   O17   S    
H77   N35   S    
Cu11  O26   S    
C112  O7    A    
H12   N1    S    
C30   C101  S    
Cu6   O2    S    
C16   C132  S    
C134  O9    A    
C81   C91   A    
C8    C125  S    
C44   C142  T    
C83   C97   A    
H15   N3    S    
H75   N33   S    
Cu2   O32   S    
C113  N7    S    
Cu1   Cu5   S    
C75   C94   A    
H94   N42   S    
C79   O34   A    
C60   O37   A    
C90   O48   A    
C82   N27   S    
C7    C124  S    
C83   N26   S    
C88   N29   S    
C95   N16   S    
H51   N21   S    
H25   N8    S    
Cu2   O33   S    
C117  C143  S    
C68   O23   A    
C118  C144  S    
H17   N4    S    
H34   N12   S    
C5    C121  S    
C81   N19   S    
C112  O3    A    
C58   O30   A    
C77   N25   S    
C56   O29   A    
H85   N38   S    
H88   N40   S    
H79   N35   S    
H80   N36   S    
C6    C51   T    
C25   C32   T    
C7    C41   T    
C66   N40   S    
H11   N2    S    
Cu8   O11   S    
H63   N27   S    
C1    O1    A    
C24   O15   A    
C92   N8    S    
C48   C60   S    
C108  N48   S    
C69   C114  A    
C46   O26   A    
C58   O32   A    
C99   N1    S    
C92   C131  A    
C13   C36   S    
Cu10  O20   S    
Cu11  O24   S    
H73   N32   S    
C40   C52   S    
C72   N37   S    
H1    N1    S    
C114  N45   S    
Cu3   O38   S    
Cu2   Cu12  S    
C18   C135  S    
H36   N14   S    
Cu8   Cu9   S    
C39   C46   S    
Cu12  O29   S    
Cu5   O46   S    
C75   N22   S    
C2    O10   A    
C50   C62   S    
Cu3   O39   S    
C85   C127  A    
C86   C105  A    
C51   C59   S    
C87   N24   S    
C6    C122  S    
C10   C127  S    
C65   C106  A    
C87   C125  A    
C64   C107  A    
C52   O25   A    
H13   N2    S    
C57   O12   A    
H84   N38   S    
H91   N41   S    
Cu7   O7    S    
C9    C126  S    
C2    O17   A    
Cu4   O41   S    
C1    O44   A    
C5    C39   T    
C11   C128  S    
C88   C128  A    
C33   C90   S    
H86   N39   S    
C70   N32   S    
C71   C109  A    
C69   C117  A    
Cu12  O27   S    
Cu9   O14   S    
H48   N19   S    
C115  N3    S    
C52   O20   A    
C84   C103  A    
C4    C120  S    
Cu10  O21   S    
C15   C33   T    
C67   C102  A    
