data_mof_unit_pretest_1479.cif
_audit_creation_date              2012-12-10T18:59:15-0500
_audit_creation_method            fapswitch 2.2
_symmetry_space_group_name_H-M    P1
_symmetry_Int_Tables_number       1
_space_group_crystal_system       triclinic
_cell_length_a                    10.860126
_cell_length_b                    10.805635
_cell_length_c                    9.514158
_cell_angle_alpha                 90.253006
_cell_angle_beta                  89.581119
_cell_angle_gamma                 90.270901
_cell_volume                      1116.43871394

loop_
_atom_site_label
_atom_site_type_symbol
_atom_type_description
_atom_site_fract_x
_atom_site_fract_y
_atom_site_fract_z
_atom_type_partial_charge
C1    C     C_R   0.501224 0.262418 0.499380 0.851978
C2    C     C_R   0.060059 0.505394 0.636037 0.103148
C3    C     C_R   0.127083 0.512744 0.506866 -0.118662
C4    C     C_R   0.063811 0.509001 0.379118 -0.212912
C5    C     C_R   0.937072 0.497711 0.377599 -0.202502
C6    C     C_R   0.871616 0.479012 0.502963 -0.111933
C7    C     C_R   0.421677 0.064382 0.587556 0.054387
C8    C     C_R   0.498168 0.129155 0.495088 -0.184848
C9    C     C_R   0.562198 0.063872 0.388610 0.413109
C10   C     C_R   0.562019 0.934212 0.391728 -0.310570
C11   C     C_R   0.496938 0.870758 0.497321 -0.145070
C12   C     C_R   0.261966 0.507500 0.501609 0.795861
C13   C     C_R   0.421190 0.937137 0.588968 0.110668
C14   C     C_3   0.407218 0.932952 0.745170 -0.455227
C15   C     C_3   0.406961 0.073564 0.743274 -0.449126
C16   C     C_R   0.601250 0.539458 0.073038 0.245654
C17   C     C_R   0.406453 0.446789 0.075007 -0.085286
C18   C     C_R   0.406625 0.446510 0.925923 -0.102850
C19   C     C_R   0.601650 0.538593 0.925634 0.258043
C20   C     C_3   0.662548 0.662247 0.919067 -0.491698
C21   C     C_3   0.660626 0.663932 0.078760 -0.510019
C22   C     C_R   0.499937 0.737615 0.500080 0.831829
C23   C     C_R   0.737431 0.489654 0.500222 0.809947
C24   C     C_R   0.110794 0.533832 0.769465 -0.173768
C25   C     C_R   0.050068 0.499783 0.893098 -0.168046
C26   C     C_R   0.937914 0.437995 0.886306 -0.162225
C27   C     C_R   0.880823 0.421762 0.756860 -0.159126
C28   C     C_R   0.935920 0.467571 0.631715 0.098842
Cu1   Cu    Cu3+1 0.499990 0.499980 0.640670 0.928522
Cu2   Cu    Cu3+1 0.500010 0.500020 0.359330 0.948723
H1    H     H_    0.112138 0.516667 0.279494 0.155594
H2    H     H_    0.489220 0.894892 0.798113 0.194435
H3    H     H_    0.316827 0.114048 0.774353 0.194507
H4    H     H_    0.488448 0.115522 0.795251 0.201385
H5    H     H_    0.329865 0.405444 0.131129 0.137843
H6    H     H_    0.330583 0.404368 0.870549 0.150867
H7    H     H_    0.757019 0.657010 0.873806 0.210224
H8    H     H_    0.603119 0.733643 0.871962 0.206650
H9    H     H_    0.754057 0.660653 0.125462 0.193560
H10   H     H_    0.598728 0.735915 0.123271 0.209313
H11   H     H_    0.194713 0.586500 0.781277 0.162895
H12   H     H_    0.091331 0.519335 0.994087 0.127999
H13   H     H_    0.893213 0.406070 0.981661 0.134292
H14   H     H_    0.794741 0.371216 0.756330 0.157307
H15   H     H_    0.890395 0.503608 0.277603 0.155926
H16   H     H_    0.619255 0.883752 0.317751 0.159519
H17   H     H_    0.317527 0.892147 0.778362 0.192362
N1    N     N_R   0.500790 0.500930 0.147930 -0.181790
N2    N     N_R   0.500790 0.500890 0.852020 -0.187493
O1    O     O_R   0.500000 0.319640 0.618810 -0.593132
O2    O     O_R   0.500010 0.319680 0.381230 -0.557522
O3    O     O_R   0.319640 0.499980 0.618820 -0.599162
O4    O     O_R   0.319650 0.500020 0.381230 -0.591116
O5    O     O_R   0.499990 0.680320 0.618770 -0.582017
O6    O     O_R   0.500000 0.680360 0.381190 -0.583346
O7    O     O_R   0.680350 0.499980 0.618770 -0.595078
O8    O     O_R   0.680360 0.500020 0.381180 -0.578757
O9    O     O_3   0.641528 0.126036 0.298512 -0.569739
C29   C     C_3   0.596823 0.117604 0.159794 0.103955
H18   H     H_    0.501084 0.153848 0.153329 0.143297
H19   H     H_    0.598716 0.020358 0.120747 0.127098
C30   C     C_3   0.678902 0.195485 0.064297 -0.784501
H20   H     H_    0.641890 0.195730 0.955928 0.186674
H21   H     H_    0.682959 0.292137 0.103888 0.248918
H22   H     H_    0.773570 0.157086 0.061781 0.242191

loop_
_geom_bond_atom_site_label_1
_geom_bond_atom_site_label_2
_ccdc_geom_bond_type
C25   H12   S    
C10   H16   S    
C30   H21   S    
Cu2   O2    S    
C15   H4    S    
C14   H17   S    
C20   H7    S    
Cu1   O7    S    
C1    C8    S    
C20   H8    S    
C9    C10   A    
C19   N2    A    
C11   C22   S    
C12   O4    A    
C21   H9    S    
C17   N1    A    
C7    C13   A    
C10   C11   A    
C16   N1    A    
C7    C15   S    
C2    C3    A    
C25   C26   A    
C22   O6    A    
C29   H18   S    
C22   O5    A    
Cu1   N2    S    
C13   C14   S    
C20   C21   S    
C16   C21   S    
C24   H11   S    
C1    O2    A    
C26   C27   A    
C30   H20   S    
C21   H10   S    
C5    H15   S    
C16   C19   A    
C6    C23   S    
C27   H14   S    
Cu2   N1    S    
C12   O3    A    
C26   H13   S    
C17   C18   A    
Cu1   O1    S    
C2    C24   A    
C5    C6    A    
Cu2   O4    S    
C29   H19   S    
C11   C13   A    
C7    C8    A    
Cu1   O5    S    
Cu1   Cu2   S    
C3    C4    A    
C4    H1    S    
Cu2   O8    S    
C23   O7    A    
C24   C25   A    
C9    O9    S    
C1    O1    A    
C27   C28   A    
C23   O8    A    
C14   C15   S    
C4    C5    A    
C29   C30   S    
C2    C28   A    
C3    C12   S    
C17   H5    S    
C30   H22   S    
O9    C29   S    
C18   H6    S    
Cu2   O6    S    
C15   H3    S    
C6    C28   A    
C19   C20   S    
C18   N2    A    
C14   H2    S    
C8    C9    A    
Cu1   O3    S    
