data_mof_unit_pretest_809.cif
_audit_creation_date              2012-10-26T19:15:04-0400
_audit_creation_method            fapswitch 2.2
_symmetry_space_group_name_H-M    P1
_symmetry_Int_Tables_number       1
_space_group_crystal_system       triclinic
_cell_length_a                    10.767895
_cell_length_b                    10.828991
_cell_length_c                    9.569834
_cell_angle_alpha                 90.41512
_cell_angle_beta                  90.871549
_cell_angle_gamma                 90.622011
_cell_volume                      1115.66919355

loop_
_atom_site_label
_atom_site_type_symbol
_atom_type_description
_atom_site_fract_x
_atom_site_fract_y
_atom_site_fract_z
_atom_type_partial_charge
C1    C     C_R   0.496837 0.262446 0.499465 0.547951
C2    C     C_R   0.480757 0.937701 0.624370 0.025400
C3    C     C_3   0.566078 0.935106 0.748650 -0.273885
C4    C     C_R   0.262692 0.499385 0.498836 0.548006
C5    C     C_3   0.563450 0.074999 0.748992 -0.265146
C6    C     C_R   0.541344 0.601040 0.075948 0.133524
C7    C     C_R   0.445459 0.406766 0.072535 -0.010001
C8    C     C_R   0.444726 0.407161 0.923846 -0.020210
C9    C     C_R   0.545366 0.599500 0.929103 0.162740
C10   C     C_3   0.675219 0.654489 0.935755 -0.052766
C11   C     C_3   0.664649 0.661970 0.093441 -0.212714
C12   C     C_R   0.936755 0.397481 0.552269 0.013819
C13   C     C_R   0.497762 0.737712 0.500148 0.543498
C14   C     C_R   0.737455 0.498530 0.500613 0.545734
C15   C     C_R   0.064246 0.397709 0.550339 0.012800
C16   C     C_R   0.129619 0.496387 0.493698 0.019657
C17   C     C_R   0.064417 0.586272 0.418429 -0.148576
C18   C     C_R   0.934682 0.586761 0.421111 -0.154931
C19   C     C_R   0.870835 0.497295 0.498831 0.009531
C20   C     C_3   0.934212 0.331763 0.688977 -0.278241
C21   C     C_3   0.075656 0.332857 0.686529 -0.273454
C22   C     C_R   0.479513 0.064879 0.623843 0.016349
C23   C     C_R   0.483247 0.129365 0.498347 0.007057
C24   C     C_R   0.469727 0.063325 0.371924 -0.162795
C25   C     C_R   0.470489 0.934497 0.372432 -0.164902
C26   C     C_R   0.484937 0.870891 0.499347 0.006163
Cu1   Cu    Cu3+1 0.499990 0.499980 0.640670 0.928671
Cu2   Cu    Cu3+1 0.500010 0.500020 0.359330 0.933640
H1    H     H_    0.113514 0.659013 0.364244 0.123259
H2    H     H_    0.884766 0.659562 0.368122 0.113486
H3    H     H_    0.897504 0.388426 0.775052 0.149467
H4    H     H_    0.892989 0.237497 0.678867 0.129598
H5    H     H_    0.119190 0.391698 0.769895 0.152602
H6    H     H_    0.115816 0.239293 0.674779 0.132643
H7    H     H_    0.465001 0.110524 0.272617 0.126481
H8    H     H_    0.465981 0.885569 0.273334 0.131181
H9    H     H_    0.520777 0.893960 0.841243 0.129266
H10   H     H_    0.809880 0.597000 0.801545 0.252410
H11   H     H_    0.740474 0.479308 0.889529 0.257277
H12   H     H_    0.658834 0.897994 0.722608 0.127203
H13   H     H_    0.515591 0.114376 0.840995 0.127365
H14   H     H_    0.654767 0.118437 0.725339 0.136744
H15   H     H_    0.403195 0.330051 0.126496 0.111815
H16   H     H_    0.401325 0.331082 0.867145 0.113433
H17   H     H_    0.684406 0.746437 0.887096 0.121276
H18   H     H_    0.732850 0.604624 0.151317 0.185483
H19   H     H_    0.656537 0.758156 0.133370 0.089105
N1    N     N_R   0.500790 0.500930 0.147930 -0.231519
N2    N     N_R   0.500790 0.500890 0.852020 -0.234376
N3    N     N_3   0.774373 0.569930 0.897651 -0.638466
O1    O     O_R   0.500000 0.319640 0.618810 -0.509020
O2    O     O_R   0.500010 0.319680 0.381230 -0.511378
O3    O     O_R   0.319650 0.499970 0.618810 -0.500686
O4    O     O_R   0.319660 0.500010 0.381230 -0.499793
O5    O     O_R   0.499990 0.680320 0.618770 -0.496020
O6    O     O_R   0.500000 0.680360 0.381190 -0.512260
O7    O     O_R   0.680340 0.499990 0.618770 -0.510384
O8    O     O_R   0.680350 0.500030 0.381190 -0.503113

loop_
_geom_bond_atom_site_label_1
_geom_bond_atom_site_label_2
_ccdc_geom_bond_type
C2    C22   A    
C23   C24   A    
Cu1   O3    S    
C4    C16   S    
H10   N3    S    
C7    H15   S    
C4    O3    A    
C17   H1    S    
C9    C10   S    
C11   H19   S    
C1    O1    A    
C12   C15   A    
C5    H14   S    
C13   O6    A    
C7    N1    A    
C12   C20   S    
C10   H17   S    
C2    C3    S    
Cu2   O6    S    
C3    C5    S    
C7    C8    A    
C2    C26   A    
C24   C25   A    
Cu2   O2    S    
C6    N1    A    
C6    C9    A    
C18   H2    S    
C14   C19   S    
C12   C19   A    
Cu1   O1    S    
C3    H12   S    
C1    C23   S    
Cu2   O8    S    
C6    C11   S    
C20   H4    S    
C14   O8    A    
C1    O2    A    
Cu1   O5    S    
C13   C26   S    
C24   H7    S    
C21   H5    S    
C10   C11   S    
C25   H8    S    
C15   C16   A    
C10   N3    S    
Cu1   N2    S    
C15   C21   S    
H11   N3    S    
C9    N2    A    
C20   C21   S    
C3    H9    S    
C17   C18   A    
C18   C19   A    
Cu1   O7    S    
Cu1   Cu2   S    
C14   O7    A    
Cu2   O4    S    
C22   C23   A    
Cu2   N1    S    
C11   H18   S    
C5    H13   S    
C21   H6    S    
C4    O4    A    
C25   C26   A    
C8    N2    A    
C5    C22   S    
C8    H16   S    
C16   C17   A    
C13   O5    A    
C20   H3    S    
