data_mof_unit_pretest_1342.cif
_audit_creation_date              2012-12-11T15:37:36-0500
_audit_creation_method            fapswitch 2.2
_symmetry_space_group_name_H-M    P1
_symmetry_Int_Tables_number       1
_space_group_crystal_system       triclinic
_cell_length_a                    17.529248
_cell_length_b                    24.640438
_cell_length_c                    14.787635
_cell_angle_alpha                 90.025704
_cell_angle_beta                  126.207709
_cell_angle_gamma                 89.998445
_cell_volume                      5153.70756389

loop_
_atom_site_label
_atom_site_type_symbol
_atom_type_description
_atom_site_fract_x
_atom_site_fract_y
_atom_site_fract_z
_atom_type_partial_charge
C1    C     C_R   0.816376 0.632509 0.907698 -0.066939
C2    C     C_R   0.154431 0.349681 0.091127 -0.084575
C3    C     C_R   0.154262 0.650370 0.091197 -0.058615
C4    C     C_R   0.813931 0.370069 0.907432 -0.077124
C5    C     C_R   0.344125 0.149699 0.908478 -0.055569
C6    C     C_R   0.676839 0.861500 0.092388 -0.074670
C7    C     C_R   0.672749 0.141398 0.092744 -0.083789
C8    C     C_R   0.344195 0.850263 0.908138 -0.081136
C9    C     C_3   0.421913 0.500050 0.352847 0.132357
C10   C     C_3   0.590614 0.500118 0.544599 0.093587
C11   C     C_3   0.915925 0.000326 0.434826 0.121525
C12   C     C_3   0.078720 0.000308 0.633344 0.145547
C13   C     C_R   0.824113 0.255683 0.013057 0.182805
C14   C     C_R   0.212905 0.763386 0.061448 0.178773
C15   C     C_R   0.215393 0.236779 0.066820 0.194716
C16   C     C_R   0.825487 0.748347 0.001734 0.184817
C17   C     C_R   0.281611 0.738201 0.934719 0.177166
C18   C     C_R   0.651088 0.262346 0.985253 0.185469
C19   C     C_R   0.664819 0.743216 0.002175 0.187476
C20   C     C_R   0.275856 0.259404 0.929585 0.177625
C21   C     C_R   0.216354 0.704893 0.930063 -0.216322
C22   C     C_R   0.695174 0.309464 0.988120 -0.272919
C23   C     C_R   0.708779 0.695675 0.005729 -0.230060
C24   C     C_R   0.209102 0.291624 0.923665 -0.190010
C25   C     C_R   0.780570 0.208892 0.011210 -0.267922
C26   C     C_R   0.278867 0.796535 0.066918 -0.219594
C27   C     C_R   0.284840 0.205521 0.074687 -0.196844
C28   C     C_R   0.781123 0.795563 0.996228 -0.247175
C29   C     C_R   0.181953 0.717881 0.992041 0.024032
C30   C     C_R   0.781259 0.305664 0.003524 0.032540
C31   C     C_R   0.787594 0.698858 0.005210 0.008747
C32   C     C_R   0.179337 0.280413 0.991205 0.003229
C33   C     C_R   0.694814 0.212615 0.996122 0.032952
C34   C     C_R   0.313704 0.783368 0.005379 0.031169
C35   C     C_R   0.314099 0.216835 0.006593 0.008341
C36   C     C_R   0.701246 0.792482 0.994463 -0.004913
C37   C     C_R   0.110831 0.450893 0.634458 -0.158733
C38   C     C_R   0.113840 0.549132 0.543154 -0.158697
C39   C     C_R   0.113702 0.450886 0.542950 -0.159301
C40   C     C_R   0.111006 0.549085 0.634696 -0.159738
C41   C     C_R   0.386637 0.950912 0.457204 -0.157491
C42   C     C_R   0.389386 0.049123 0.365692 -0.157551
C43   C     C_R   0.389132 0.950939 0.365432 -0.159654
C44   C     C_R   0.386810 0.049159 0.457395 -0.160888
C45   C     C_R   0.104298 0.500022 0.489366 0.136395
C46   C     C_R   0.097443 0.499983 0.671284 0.143313
C47   C     C_R   0.402680 0.000027 0.328817 0.143596
C48   C     C_R   0.396462 0.000034 0.511111 0.134626
C49   C     C_R   0.911103 0.370783 0.096211 -0.124357
C50   C     C_R   0.057848 0.648638 0.904446 -0.167279
C51   C     C_R   0.057226 0.351208 0.904354 -0.140968
C52   C     C_R   0.913812 0.631615 0.096700 -0.124674
C53   C     C_R   0.440336 0.851652 0.095012 -0.168261
C54   C     C_R   0.575559 0.140147 0.903518 -0.121018
C55   C     C_R   0.580788 0.863696 0.903204 -0.157333
C56   C     C_R   0.440783 0.148369 0.095306 -0.171947
C57   C     C_R   0.051326 0.545507 0.306776 -0.131425
C58   C     C_R   0.019242 0.454256 0.751092 -0.122571
C59   C     C_R   0.019141 0.545705 0.750959 -0.122788
C60   C     C_R   0.051487 0.454552 0.306833 -0.132152
C61   C     C_R   0.480942 0.045723 0.249145 -0.122012
C62   C     C_R   0.449265 0.954496 0.693528 -0.123677
C63   C     C_R   0.449522 0.045551 0.693721 -0.127919
C64   C     C_R   0.480998 0.954299 0.249217 -0.121554
C65   C     C_R   0.735479 0.454819 0.704883 -0.105595
C66   C     C_R   0.267102 0.545111 0.243738 -0.132362
C67   C     C_R   0.267114 0.454911 0.243773 -0.129234
C68   C     C_R   0.735435 0.545300 0.705326 -0.103593
C69   C     C_R   0.232080 0.954937 0.752568 -0.127750
C70   C     C_R   0.768291 0.045466 0.283486 -0.085056
C71   C     C_R   0.768532 0.954721 0.283344 -0.132109
C72   C     C_R   0.232229 0.045253 0.752185 -0.138549
C73   C     C_R   0.828786 0.650250 0.003848 0.083398
C74   C     C_R   0.125325 0.321694 0.995560 0.039491
C75   C     C_R   0.125811 0.678134 0.995784 0.081937
C76   C     C_R   0.824577 0.353612 0.003135 0.087817
C77   C     C_R   0.371352 0.177298 0.003707 0.087745
C78   C     C_R   0.661858 0.841694 0.996246 0.074545
C79   C     C_R   0.654061 0.163821 0.996771 0.091409
C80   C     C_R   0.371312 0.822655 0.003090 0.083619
C81   C     C_R   0.068987 0.500037 0.371701 0.044822
C82   C     C_R   0.050766 0.499978 0.726845 0.048661
C83   C     C_R   0.449373 0.000016 0.273310 0.046908
C84   C     C_R   0.431982 0.000028 0.628818 0.039824
C85   C     C_R   0.681712 0.500077 0.651697 0.116096
C86   C     C_R   0.321754 0.500017 0.264961 0.162632
C87   C     C_R   0.176712 0.000187 0.727666 0.171070
C88   C     C_R   0.824372 0.000170 0.329085 0.140820
C89   C     C_3   0.516318 0.455775 0.506813 -0.068883
C90   C     C_3   0.496256 0.544518 0.390656 -0.078262
C91   C     C_3   0.496223 0.455563 0.390779 -0.080334
C92   C     C_3   0.516361 0.544484 0.506700 -0.071663
C93   C     C_3   0.002386 0.956805 0.591600 -0.077212
C94   C     C_3   0.992170 0.043766 0.476353 -0.066711
C95   C     C_3   0.989203 0.954932 0.479421 -0.068719
C96   C     C_3   0.005257 0.045791 0.588519 -0.074493
C97   C     C_3   0.441931 0.500141 0.469995 -0.193800
C98   C     C_3   0.572496 0.500029 0.429111 -0.299657
C99   C     C_3   0.927159 0.002309 0.546492 -0.309616
C100  C     C_3   0.066113 0.998302 0.520357 -0.250201
H1    H     H_    0.762613 0.644821 0.822364 0.100626
H2    H     H_    0.202863 0.336289 0.177007 0.097007
H3    H     H_    0.202773 0.663637 0.177061 0.102032
H4    H     H_    0.759201 0.358336 0.822019 0.103775
H5    H     H_    0.295179 0.162488 0.822482 0.108000
H6    H     H_    0.726374 0.846980 0.177182 0.100015
H7    H     H_    0.721803 0.155515 0.178002 0.101258
H8    H     H_    0.295425 0.837439 0.822111 0.107748
H9    H     H_    0.944498 0.359748 0.182717 0.097919
H10   H     H_    0.015856 0.661502 0.817825 0.100626
H11   H     H_    0.014557 0.338253 0.817735 0.096645
H12   H     H_    0.948563 0.643222 0.183227 0.098942
H13   H     H_    0.481639 0.838572 0.181458 0.101619
H14   H     H_    0.537065 0.153033 0.817146 0.097203
H15   H     H_    0.544005 0.851416 0.816682 0.105777
H16   H     H_    0.482616 0.161452 0.181806 0.098890
H17   H     H_    0.069674 0.586986 0.335306 0.086589
H18   H     H_    0.029469 0.412475 0.739594 0.088586
H19   H     H_    0.029163 0.587458 0.739153 0.089275
H20   H     H_    0.070080 0.413109 0.335428 0.086085
H21   H     H_    0.471031 0.087465 0.261126 0.088879
H22   H     H_    0.431141 0.912997 0.665063 0.085491
H23   H     H_    0.431826 0.087102 0.665578 0.085132
H24   H     H_    0.471195 0.912571 0.261355 0.089386
H25   H     H_    0.719801 0.413581 0.673996 0.074058
H26   H     H_    0.290524 0.586731 0.262999 0.125470
H27   H     H_    0.290547 0.413304 0.263079 0.127952
H28   H     H_    0.719736 0.586630 0.675082 0.074415
H29   H     H_    0.208520 0.913390 0.731423 0.123342
H30   H     H_    0.786806 0.086796 0.313316 0.102637
H31   H     H_    0.787368 0.913444 0.313189 0.082977
H32   H     H_    0.209042 0.086801 0.730417 0.122640
H33   H     H_    0.388056 0.500184 0.487023 0.154147
H34   H     H_    0.628137 0.499987 0.415102 0.139692
H35   H     H_    0.868060 0.003966 0.554486 0.140790
H36   H     H_    0.123912 0.996536 0.509955 0.148442
H37   H     H_    0.194633 0.667943 0.880820 0.141292
H38   H     H_    0.663265 0.348638 0.979423 0.159063
H39   H     H_    0.682357 0.656358 0.008086 0.163886
H40   H     H_    0.183796 0.327154 0.870149 0.136780
H41   H     H_    0.812579 0.169750 0.019687 0.162696
H42   H     H_    0.300615 0.833534 0.115985 0.142358
H43   H     H_    0.314063 0.170871 0.130223 0.142702
H44   H     H_    0.809240 0.834488 0.994622 0.157108
H45   H     H_    0.108651 0.412163 0.667107 0.102991
H46   H     H_    0.113646 0.587907 0.508964 0.109730
H47   H     H_    0.113391 0.412116 0.508615 0.109406
H48   H     H_    0.109008 0.587802 0.667578 0.102979
H49   H     H_    0.386875 0.912140 0.491426 0.109834
H50   H     H_    0.391576 0.087826 0.333021 0.103734
H51   H     H_    0.390981 0.912220 0.332446 0.102666
H52   H     H_    0.387182 0.087932 0.491761 0.108230
N1    N     N_R   0.892620 0.603790 0.941800 -0.047244
N2    N     N_R   0.107380 0.396210 0.058200 -0.038352
N3    N     N_R   0.107380 0.603790 0.058200 -0.044774
N4    N     N_R   0.892620 0.396210 0.941800 -0.047420
N5    N     N_R   0.392620 0.103790 0.941800 -0.045629
N6    N     N_R   0.607380 0.896210 0.058200 -0.045772
N7    N     N_R   0.607380 0.103790 0.058200 -0.045927
N8    N     N_R   0.392620 0.896210 0.941800 -0.044280
N9    N     N_R   0.952210 0.397600 0.057910 -0.043515
N10   N     N_R   0.047790 0.602400 0.942090 -0.035217
N11   N     N_R   0.047790 0.397600 0.942090 -0.034803
N12   N     N_R   0.952210 0.602400 0.057910 -0.042931
N13   N     N_R   0.452210 0.897600 0.057910 -0.035910
N14   N     N_R   0.547790 0.102400 0.942090 -0.042909
N15   N     N_R   0.547790 0.897600 0.942090 -0.042358
N16   N     N_R   0.452210 0.102400 0.057910 -0.035439
N17   N     N_R   0.026300 0.529110 0.206760 -0.038470
N18   N     N_R   0.973700 0.470890 0.793240 -0.044448
N19   N     N_R   0.973700 0.529110 0.793240 -0.043786
N20   N     N_R   0.026300 0.470890 0.206760 -0.038438
N21   N     N_R   0.526300 0.029110 0.206760 -0.044235
N22   N     N_R   0.473700 0.970890 0.793240 -0.036783
N23   N     N_R   0.473700 0.029110 0.793240 -0.038205
N24   N     N_R   0.526300 0.970890 0.206760 -0.043174
N25   N     N_R   0.818530 0.472270 0.792960 -0.047147
N26   N     N_R   0.181470 0.527730 0.207040 -0.054597
N27   N     N_R   0.181470 0.472270 0.207040 -0.054410
N28   N     N_R   0.818530 0.527730 0.792960 -0.047429
N29   N     N_R   0.318530 0.972270 0.792960 -0.055090
N30   N     N_R   0.681470 0.027730 0.207040 -0.054205
N31   N     N_R   0.681470 0.972270 0.207040 -0.047569
N32   N     N_R   0.318530 0.027730 0.792960 -0.055308
Ni1   Ni    Ni4+2 0.934150 0.565840 0.869060 0.214593
Ni2   Ni    Ni4+2 0.065850 0.434160 0.130940 0.215847
Ni3   Ni    Ni4+2 0.065850 0.565840 0.130940 0.218486
Ni4   Ni    Ni4+2 0.934150 0.434160 0.869060 0.213176
Ni5   Ni    Ni4+2 0.434150 0.065840 0.869060 0.216946
Ni6   Ni    Ni4+2 0.565850 0.934160 0.130940 0.216399
Ni7   Ni    Ni4+2 0.565850 0.065840 0.130940 0.213768
Ni8   Ni    Ni4+2 0.434150 0.934160 0.869060 0.213574
C101  C     C_2   0.524589 0.406478 0.571305 0.486981
H53   H     H_    0.522131 0.366324 0.539647 -0.032413
O1    O     O_2   0.534984 0.411323 0.660096 -0.558846
C102  C     C_2   0.489288 0.593715 0.326642 0.480094
H54   H     H_    0.545267 0.623784 0.367297 -0.010079
O2    O     O_2   0.421968 0.599984 0.229012 -0.579605
C103  C     C_2   0.489255 0.406271 0.326913 0.482025
H55   H     H_    0.545167 0.376185 0.367707 -0.010404
O3    O     O_2   0.422018 0.399949 0.229242 -0.578029
C104  C     C_2   0.524619 0.593892 0.570999 0.489629
H56   H     H_    0.522242 0.633989 0.539242 -0.033797
O4    O     O_2   0.534906 0.589200 0.659744 -0.555140
C105  C     C_2   0.003731 0.908777 0.654606 0.480517
H57   H     H_    0.946307 0.879644 0.611960 -0.009590
O5    O     O_2   0.068180 0.902378 0.753500 -0.578591
C106  C     C_2   0.994005 0.091977 0.415858 0.476857
H58   H     H_    0.045799 0.123758 0.463187 -0.012686
O6    O     O_2   0.939600 0.095254 0.314002 -0.577870
C107  C     C_2   0.982657 0.904694 0.418193 0.488574
H59   H     H_    0.984596 0.865054 0.451309 -0.031449
O7    O     O_2   0.974763 0.908183 0.330717 -0.559115
C108  C     C_2   0.008654 0.096194 0.647527 0.472221
H60   H     H_    0.955163 0.127233 0.600959 -0.005356
O8    O     O_2   0.070034 0.102336 0.747557 -0.576017
N33   N     N_2   0.909745 0.252680 0.022616 -0.113327
H61   H     H_    0.959313 0.227582 0.086786 0.172492
C109  C     C_3   0.896160 0.239966 0.918400 -0.903353
H62   H     H_    0.845862 0.268835 0.851537 0.247463
H63   H     H_    0.868670 0.197959 0.891408 0.252479
H64   H     H_    0.964505 0.243114 0.929918 0.247528
N34   N     N_2   0.173694 0.776831 0.119817 -0.114674
H65   H     H_    0.127648 0.809210 0.084389 0.186025
C110  C     C_3   0.240866 0.781863 0.240241 -0.945971
H66   H     H_    0.202035 0.784246 0.278168 0.257402
H67   H     H_    0.283782 0.819332 0.262527 0.245907
H68   H     H_    0.288419 0.746008 0.275755 0.254189
N35   N     N_2   0.182938 0.226306 0.134514 -0.116671
H69   H     H_    0.116682 0.240891 0.103697 0.170348
C111  C     C_3   0.204941 0.175155 0.193311 -0.918247
H70   H     H_    0.170157 0.173423 0.236240 0.251374
H71   H     H_    0.282288 0.171620 0.258697 0.242003
H72   H     H_    0.178674 0.140733 0.133352 0.269106
N36   N     N_2   0.909713 0.750372 0.008004 -0.107189
H73   H     H_    0.960359 0.775568 0.071037 0.178757
C112  C     C_3   0.894730 0.761675 0.902607 -0.910031
H74   H     H_    0.963001 0.758513 0.913756 0.250480
H75   H     H_    0.866359 0.803375 0.873693 0.248851
H76   H     H_    0.844702 0.731970 0.837662 0.247917
N37   N     N_2   0.318377 0.725179 0.873486 -0.115542
H77   H     H_    0.359778 0.690774 0.903541 0.190248
C113  C     C_3   0.249227 0.723235 0.752915 -0.951870
H78   H     H_    0.204212 0.760165 0.721978 0.255242
H79   H     H_    0.203620 0.686747 0.727847 0.245544
H80   H     H_    0.286355 0.721089 0.712872 0.258372
N38   N     N_2   0.563912 0.264784 0.972126 -0.109975
H81   H     H_    0.517358 0.292755 0.912877 0.177478
C114  C     C_3   0.574750 0.271497 0.076372 -0.907097
H82   H     H_    0.504490 0.269691 0.060286 0.249083
H83   H     H_    0.607632 0.311431 0.114737 0.250631
H84   H     H_    0.619163 0.238644 0.136151 0.248402
N39   N     N_2   0.586019 0.743098 0.007796 -0.109651
H85   H     H_    0.526302 0.763070 0.943838 0.178062
C115  C     C_3   0.569568 0.696657 0.054025 -0.917034
H86   H     H_    0.519694 0.708171 0.073793 0.251332
H87   H     H_    0.636619 0.683345 0.133211 0.256194
H88   H     H_    0.538227 0.662892 0.992345 0.255802
N40   N     N_2   0.309360 0.271615 0.864491 -0.114598
H89   H     H_    0.352814 0.305208 0.893733 0.183611
C116  C     C_3   0.238052 0.273398 0.744340 -0.957991
H90   H     H_    0.273196 0.274083 0.701840 0.255844
H91   H     H_    0.194166 0.310569 0.720175 0.245338
H92   H     H_    0.191778 0.237004 0.715291 0.257636

loop_
_geom_bond_atom_site_label_1
_geom_bond_atom_site_label_2
_ccdc_geom_bond_type
C16   C28   A    
C115  H87   S    
C10   C85   S    
C106  O6    D    
C100  H36   S    
C114  H84   S    
C50   N10   A    
N36   C112  S    
C19   C23   A    
N34   H65   S    
C51   C74   A    
C55   N15   A    
N12   Ni3   S    
C70   C88   A    
C1    C73   A    
C9    C91   S    
N26   N27   A    
C43   H51   S    
C15   C32   A    
C59   H19   S    
N27   Ni2   S    
C5    H5    S    
C105  H57   S    
C24   H40   S    
C16   C31   A    
C40   C46   A    
N15   Ni8   S    
C66   N26   A    
C114  H82   S    
C44   H52   S    
N25   Ni4   S    
C104  O4    D    
C13   N33   S    
C23   H39   S    
C58   N18   A    
C54   C79   A    
C67   H27   S    
C19   C36   A    
N6    Ni6   S    
C32   C74   S    
N39   H85   S    
N22   N23   A    
N29   Ni8   S    
C108  O8    D    
C6    C78   A    
C93   C95   S    
C41   H49   S    
N18   N19   A    
C52   H12   S    
C11   C95   S    
C113  H78   S    
C62   N22   A    
C96   C99   S    
C4    H4    S    
C115  H86   S    
C70   H30   S    
C110  H68   S    
C96   C108  S    
C65   N25   A    
C11   C99   S    
N37   H77   S    
C35   C77   S    
N22   Ni8   S    
C10   C98   S    
C58   H18   S    
N30   N31   A    
C38   H46   S    
C38   C45   A    
C62   C84   A    
C34   C80   S    
C46   C82   S    
C20   C35   A    
C90   C92   S    
C18   N38   S    
C26   C34   A    
C94   C106  S    
C20   C24   A    
C10   C89   S    
N20   Ni2   S    
C106  H58   S    
C113  H79   S    
C92   C97   S    
C27   H43   S    
N36   H73   S    
C59   C82   A    
C51   N11   A    
C28   H44   S    
C47   C83   S    
C64   N24   A    
C3    C75   A    
C93   C99   S    
C49   N9    A    
C2    C74   A    
C39   C45   A    
C91   C103  S    
N25   N28   A    
N4    Ni4   S    
C115  H88   S    
C10   C92   S    
C103  H55   S    
C2    N2    A    
C18   C22   A    
C112  H74   S    
C15   N35   S    
C68   C85   A    
C41   C43   A    
C13   C25   A    
C42   C44   A    
C54   N14   A    
C50   H10   S    
C59   N19   A    
C8    H8    S    
N5    N16   A    
C69   N29   A    
C6    N6    A    
C53   H13   S    
N6    N15   A    
C72   H32   S    
C57   N17   A    
N38   C114  S    
N3    N10   A    
C56   H16   S    
C97   H33   S    
C37   C39   A    
C7    N7    A    
C45   C81   S    
C114  H83   S    
C4    C76   A    
C104  H56   S    
C40   H48   S    
N1    N12   A    
C60   N20   A    
C39   H47   S    
N7    Ni7   S    
N2    N11   A    
C53   C80   A    
C61   N21   A    
C72   N32   A    
C102  O2    D    
C52   C73   A    
C61   C83   A    
N24   Ni6   S    
C109  H62   S    
C116  H91   S    
C55   C78   A    
N19   Ni1   S    
C95   C100  S    
C33   C79   S    
N39   C115  S    
C16   N36   S    
C101  O1    D    
N33   H61   S    
C64   H24   S    
C21   C29   A    
C68   N28   A    
C17   C21   A    
C21   H37   S    
C48   C84   S    
C89   C97   S    
N11   Ni4   S    
N37   C113  S    
C65   H25   S    
C94   C96   S    
C24   C32   A    
C64   C83   A    
C66   C86   A    
N35   H69   S    
C22   C30   A    
C71   N31   A    
C9    C86   S    
N10   Ni1   S    
N2    Ni2   S    
C60   C81   A    
C14   N34   S    
C15   C27   A    
C107  H59   S    
C94   C100  S    
C11   C88   S    
C113  H80   S    
C89   C101  S    
C56   N16   A    
C25   C33   A    
C3    N3    A    
C110  H66   S    
C6    H6    S    
C49   C76   A    
C99   H35   S    
C111  H71   S    
N8    N13   A    
C14   C26   A    
C1    N1    A    
N16   Ni7   S    
N17   Ni3   S    
C52   N12   A    
C9    C97   S    
N26   Ni3   S    
C11   C94   S    
C53   N13   A    
C4    N4    A    
C31   C73   S    
N4    N9    A    
C5    N5    A    
C112  H75   S    
N17   N20   A    
C57   C81   A    
C12   C93   S    
C89   C91   S    
C30   C76   S    
C14   C29   A    
C5    C77   A    
N40   H89   S    
C8    N8    A    
N31   Ni6   S    
C1    H1    S    
C103  O3    D    
C62   H22   S    
C72   C87   A    
C92   C104  S    
C57   H17   S    
C93   C105  S    
N21   N24   A    
C3    H3    S    
C7    C79   A    
N30   Ni7   S    
C68   H28   S    
C67   C86   A    
C51   H11   S    
N29   N32   A    
C12   C87   S    
C107  O7    D    
N8    Ni8   S    
C108  H60   S    
C25   H41   S    
C61   H21   S    
C90   C98   S    
C102  H54   S    
N40   C116  S    
C69   C87   A    
C9    C90   S    
N23   Ni5   S    
C116  H92   S    
C63   H23   S    
N38   H81   S    
N34   C110  S    
C63   N23   A    
C29   C75   S    
N33   C109  S    
C19   N39   S    
C98   H34   S    
C36   C78   S    
N7    N14   A    
C63   C84   A    
N14   Ni5   S    
C27   C35   A    
C58   C82   A    
C49   H9    S    
C95   C107  S    
N35   C111  S    
C65   C85   A    
N3    Ni3   S    
C50   C75   A    
C109  H64   S    
C38   C40   A    
C55   H15   S    
C22   H38   S    
C116  H90   S    
N1    Ni1   S    
C54   H14   S    
C110  H67   S    
C41   C48   A    
N21   Ni7   S    
C60   H20   S    
C111  H72   S    
C7    H7    S    
C42   C47   A    
C91   C98   S    
C42   H50   S    
C18   C33   A    
N5    Ni5   S    
C12   C100  S    
N13   Ni6   S    
N28   Ni1   S    
C56   C77   A    
C20   N40   S    
C71   H31   S    
C71   C88   A    
C66   H26   S    
C70   N30   A    
C90   C102  S    
C13   C30   A    
C28   C36   A    
C69   H29   S    
C101  H53   S    
C17   C34   A    
C112  H76   S    
N18   Ni4   S    
C111  H70   S    
C8    C80   A    
C2    H2    S    
C17   N37   S    
C12   C96   S    
C67   N27   A    
C37   H45   S    
C37   C46   A    
C26   H42   S    
C105  O5    D    
C43   C47   A    
N32   Ni5   S    
C109  H63   S    
C44   C48   A    
C23   C31   A    
N9    Ni2   S    
