data_mof_unit_pretest_517.cif
_audit_creation_date              2012-12-11T16:04:57-0500
_audit_creation_method            fapswitch 2.2
_symmetry_space_group_name_H-M    P1
_symmetry_Int_Tables_number       1
_space_group_crystal_system       triclinic
_cell_length_a                    10.614628
_cell_length_b                    10.586155
_cell_length_c                    16.86467
_cell_angle_alpha                 98.430262
_cell_angle_beta                  98.902976
_cell_angle_gamma                 61.909172
_cell_volume                      1645.7549151

loop_
_atom_site_label
_atom_site_type_symbol
_atom_type_description
_atom_site_fract_x
_atom_site_fract_y
_atom_site_fract_z
_atom_type_partial_charge
C1    C     C_R   0.353647 0.777168 0.399103 0.552401
C2    C     C_3   0.638405 0.433906 0.232451 -0.191994
C3    C     C_3   0.744831 0.385352 0.307650 0.046263
C4    C     C_3   0.826902 0.234994 0.265089 0.078396
C5    C     C_3   0.925104 0.287583 0.236995 -0.107004
C6    C     C_3   0.841166 0.437890 0.279079 0.096091
C7    C     C_3   0.735565 0.487309 0.203474 -0.122823
C8    C     C_3   0.819575 0.337858 0.161608 0.017685
C9    C     C_3   0.380476 0.761054 0.199354 -0.124239
C10   C     C_3   0.260590 0.784281 0.249043 -0.091062
C11   C     C_3   0.335412 0.834400 0.323060 0.055184
C12   C     C_R   0.367434 0.344323 0.359790 0.552075
C13   C     C_3   0.456938 0.808977 0.274174 -0.119318
C14   C     C_3   0.371216 0.966884 0.253130 -0.135858
C15   C     C_3   0.250420 0.990898 0.303652 -0.128457
C16   C     C_3   0.175143 0.941244 0.228892 -0.104446
C17   C     C_3   0.294940 0.917335 0.180206 0.036449
C18   C     C_3   0.481906 0.301920 0.799630 -0.101057
C19   C     C_3   0.412684 0.445446 0.759422 -0.206320
C20   C     C_3   0.381212 0.366789 0.680893 0.035543
C21   C     C_3   0.448914 0.226096 0.720719 0.420890
C22   C     C_3   0.301636 0.260730 0.743704 -0.079923
C23   C     C_R   0.706583 0.415299 0.390135 0.564687
C24   C     C_3   0.232564 0.403971 0.704186 -0.139175
C25   C     C_3   0.263321 0.481936 0.784264 -0.134794
C26   C     C_3   0.333419 0.338601 0.822527 -0.000999
C27   C     C_1   0.766787 0.368222 0.715565 -0.029462
C28   C     C_1   0.811671 0.330574 0.782422 -0.028773
C29   C     C_1   0.338215 0.813384 0.709642 -0.022708
C30   C     C_1   0.312880 0.839906 0.778411 -0.035893
C31   C     C_R   0.883866 0.313342 0.087230 0.532330
C32   C     C_R   0.292948 0.263072 0.122978 0.532699
C33   C     C_R   0.257772 0.959616 0.099040 0.534698
C34   C     C_R   0.356391 0.772819 0.627017 0.550563
C35   C     C_R   0.877777 0.302684 0.862368 0.542990
C36   C     C_R   0.311018 0.297754 0.895020 0.552989
C37   C     C_R   0.280124 0.884288 0.859046 0.555304
C38   C     C_R   0.409507 0.377541 0.601278 0.538281
C39   C     C_R   0.717155 0.410851 0.635523 0.522562
C40   C     C_1   0.327175 0.320853 0.277600 -0.039179
C41   C     C_1   0.307707 0.296752 0.206788 -0.051381
C42   C     C_3   0.722758 0.283897 0.188194 -0.117332
Cr1   Cr    Cr6+3 0.608340 0.611040 0.520430 1.077471
Cr2   Cr    Cr6+3 0.287650 0.601120 0.489350 1.072872
Cr3   Cr    Cr6+3 0.604040 0.287870 0.490280 1.099800
Cr4   Cr    Cr6+3 0.054020 0.052700 0.970850 1.031302
Cr5   Cr    Cr6+3 0.059230 0.375120 0.993390 1.039445
Cr6   Cr    Cr6+3 0.374950 0.061200 0.992340 1.035481
H1    H     H_    0.520671 0.486951 0.234642 0.110343
H2    H     H_    0.424735 0.034425 0.252897 0.143715
H3    H     H_    0.197804 0.083116 0.348272 0.145114
H4    H     H_    0.063108 0.992281 0.201345 0.158385
H5    H     H_    0.459518 0.520650 0.763924 0.100831
H6    H     H_    0.583318 0.259791 0.840073 0.133187
H7    H     H_    0.256446 0.183794 0.738388 0.128305
H8    H     H_    0.131053 0.445123 0.663782 0.165551
H9    H     H_    0.187212 0.586704 0.812646 0.156753
H10   H     H_    0.674597 0.221258 0.148517 0.160253
H11   H     H_    0.043290 0.233965 0.237155 0.100027
H12   H     H_    0.699085 0.589724 0.176229 0.143848
H13   H     H_    0.214913 0.708832 0.248454 0.158038
H14   H     H_    0.429188 0.673077 0.151944 0.129840
H15   H     H_    0.572763 0.755227 0.295691 0.156698
O1    O     O_R   0.751220 0.499230 0.435170 -0.474480
O2    O     O_R   0.297880 0.469080 0.560050 -0.493907
O3    O     O_R   0.489720 0.254590 0.564810 -0.439514
O4    O     O_R   0.725220 0.304230 0.585080 -0.477690
O5    O     O_3   0.500010 0.500010 0.500020 -0.351518
O6    O     O_R   0.171830 0.913880 0.057510 -0.506264
O7    O     O_R   0.940690 0.186050 0.054730 -0.525334
O8    O     O_R   0.920470 0.405720 0.075010 -0.508760
O9    O     O_R   0.196690 0.370460 0.084120 -0.483374
O10   O     O_R   0.412990 0.180750 0.091610 -0.518459
O11   O     O_R   0.366620 0.943130 0.065760 -0.505352
O12   O     O_R   0.477220 0.727600 0.436870 -0.513540
O13   O     O_R   0.160510 0.906330 0.879210 -0.498933
O14   O     O_R   0.930190 0.179050 0.889450 -0.487023
O15   O     O_R   0.909140 0.398170 0.896710 -0.504522
O16   O     O_R   0.186190 0.363460 0.918830 -0.490334
O17   O     O_R   0.401670 0.173200 0.913310 -0.502544
O18   O     O_R   0.356120 0.936130 0.900470 -0.483696
O19   O     O_3   0.162740 0.163010 0.985530 -0.298991
O20   O     O_R   0.258650 0.745120 0.411470 -0.485040
O21   O     O_R   0.297070 0.467240 0.395960 -0.472421
O22   O     O_R   0.488830 0.252610 0.387790 -0.499745
O23   O     O_R   0.724400 0.302390 0.420980 -0.457937
O24   O     O_R   0.752100 0.501210 0.612190 -0.480164
O25   O     O_R   0.478040 0.729440 0.600970 -0.488614
O26   O     O_R   0.259530 0.747110 0.588490 -0.501893
F1    F     F_    0.544468 0.093122 0.688137 -0.594204
I1    I     I_    0.865819 0.035968 0.308232 -0.317712
I2    I     I_    0.941312 0.564992 0.339301 -0.291173

loop_
_geom_bond_atom_site_label_1
_geom_bond_atom_site_label_2
_ccdc_geom_bond_type
C18   C21   S    
C3    C23   S    
C2    C7    S    
C1    C11   S    
Cr5   O16   S    
Cr2   O20   S    
C42   H10   S    
Cr4   O13   S    
C7    C8    S    
C32   O9    A    
C25   H9    S    
C12   O22   A    
Cr1   O25   S    
C8    C42   S    
C5    C6    S    
C15   C16   S    
Cr6   O18   S    
C12   O21   A    
C18   C19   S    
Cr5   O19   S    
C9    C13   S    
Cr4   O6    S    
Cr4   O19   S    
C11   C15   S    
C31   O7    A    
C38   O3    A    
C28   C35   S    
C27   C39   S    
Cr1   O5    S    
C23   O23   A    
C18   C26   S    
Cr3   O4    S    
C32   C41   S    
C15   H3    S    
C9    C10   S    
C33   O6    A    
C4    I1    S    
C3    C6    S    
C31   O8    A    
C21   C22   S    
C14   C17   S    
C37   O18   A    
Cr2   O2    S    
C17   C33   S    
Cr1   O1    S    
C21   F1    S    
Cr1   O12   S    
C5    H11   S    
C9    H14   S    
C1    O12   A    
Cr6   O11   S    
C24   C25   S    
C36   O17   A    
C32   O10   A    
C16   C17   S    
C25   C26   S    
C29   C34   S    
C35   O14   A    
C30   C37   S    
C12   C40   S    
Cr3   O22   S    
C29   C30   T    
C2    H1    S    
C5    C8    S    
C20   C38   S    
C13   H15   S    
C38   O2    A    
Cr3   O5    S    
C34   O25   A    
Cr5   O8    S    
C6    C7    S    
C26   C36   S    
C23   O1    A    
C37   O13   A    
C22   C24   S    
Cr2   O5    S    
C10   H13   S    
C1    O20   A    
C3    C4    S    
C7    H12   S    
Cr3   O3    S    
C9    C17   S    
C40   C41   T    
C8    C31   S    
C39   O4    A    
Cr6   O10   S    
C16   H4    S    
C4    C5    S    
Cr2   O21   S    
C36   O16   A    
Cr4   O14   S    
C22   H7    S    
C24   H8    S    
C35   O15   A    
Cr1   O24   S    
Cr6   O17   S    
C19   C20   S    
C2    C3    S    
C34   O26   A    
C10   C16   S    
C11   C13   S    
C19   H5    S    
C14   H2    S    
C4    C42   S    
C2    C42   S    
C39   O24   A    
C6    I2    S    
Cr6   O19   S    
Cr3   O23   S    
C19   C25   S    
Cr5   O9    S    
Cr4   O7    S    
C10   C11   S    
C18   H6    S    
C33   O11   A    
C20   C21   S    
C22   C26   S    
C27   C28   T    
C14   C15   S    
Cr5   O15   S    
C13   C14   S    
C20   C24   S    
Cr2   O26   S    
