data_mof_unit_pretest_1667.cif
_audit_creation_date              2012-12-10T17:20:07-0500
_audit_creation_method            fapswitch 2.2
_symmetry_space_group_name_H-M    P1
_symmetry_Int_Tables_number       1
_space_group_crystal_system       triclinic
_cell_length_a                    10.161028
_cell_length_b                    10.515051
_cell_length_c                    14.165496
_cell_angle_alpha                 89.853997
_cell_angle_beta                  82.16073
_cell_angle_gamma                 93.695732
_cell_volume                      1496.13371584

loop_
_atom_site_label
_atom_site_type_symbol
_atom_type_description
_atom_site_fract_x
_atom_site_fract_y
_atom_site_fract_z
_atom_type_partial_charge
C1    C     C_R   0.553680 0.734404 0.489112 0.955605
C2    C     C_1   0.499628 0.500035 0.042656 0.036926
C3    C     C_2   0.578461 0.869620 0.467833 -0.446052
C4    C     C_2   0.420998 0.130516 0.484080 -0.453956
C5    C     C_2   0.494365 0.931422 0.421066 0.373717
C6    C     C_2   0.503885 0.068994 0.420065 0.372671
C7    C     C_2   0.927958 0.512401 0.508392 -0.120555
C8    C     C_2   0.072125 0.487870 0.491367 -0.089843
C9    C     C_R   0.446202 0.265627 0.500186 0.958689
C10   C     C_R   0.500416 0.499941 0.670844 0.873391
C11   C     C_R   0.499584 0.500061 0.329148 0.927913
C12   C     C_1   0.501183 0.499832 0.772230 -0.189328
C13   C     C_1   0.498813 0.500157 0.227789 -0.124717
C14   C     C_1   0.501062 0.499846 0.857456 0.003864
C15   C     C_1   0.498932 0.500133 0.142573 0.034352
C16   C     C_1   0.500364 0.499937 0.957378 0.029394
Cl1   Cl    Cl    0.628895 0.145515 0.335910 -0.572797
Cl2   Cl    Cl    0.367809 0.855261 0.362932 -0.561872
H1    H     H_    0.120936 0.619124 0.582562 0.173216
H2    H     H_    0.878998 0.380726 0.417540 0.198713
H3    H     H_    0.338908 0.078855 0.528392 0.148602
H4    H     H_    0.661315 0.921099 0.495097 0.149246
H5    H     H_    0.106642 0.415521 0.441087 0.167519
H6    H     H_    0.893494 0.584914 0.558543 0.163582
N1    N     N_2   0.842710 0.448890 0.464580 -0.172587
N2    N     N_2   0.157290 0.551110 0.535420 -0.170925
O1    O     O_R   0.431050 0.692470 0.507130 -0.555181
O2    O     O_R   0.568950 0.307530 0.492870 -0.554103
O3    O     O_R   0.651120 0.659650 0.484400 -0.601461
O4    O     O_R   0.348880 0.340350 0.515600 -0.606795
O5    O     O_R   0.389940 0.516410 0.637650 -0.593554
O6    O     O_R   0.610060 0.483590 0.362350 -0.568305
O7    O     O_R   0.610010 0.483590 0.614920 -0.597934
O8    O     O_R   0.389990 0.516410 0.385080 -0.574796
Zn1   Zn    Zn3+2 0.353060 0.521920 0.515180 0.991016
Zn2   Zn    Zn3+2 0.646940 0.478080 0.484820 0.996343

loop_
_geom_bond_atom_site_label_1
_geom_bond_atom_site_label_2
_ccdc_geom_bond_type
C2    C15   S    
C2    C16   T    
C7    N1    D    
C3    C5    D    
O7    Zn2   S    
C1    O3    A    
C7    C8    S    
C4    H3    S    
C11   C13   S    
O3    Zn2   S    
C10   C12   S    
C9    O4    A    
O6    Zn2   S    
C12   C14   T    
C11   O6    A    
C10   O7    A    
O5    Zn1   S    
C13   C15   T    
C5    C6    S    
C14   C16   S    
H2    N1    S    
N1    Zn2   S    
C7    H6    S    
C6    Cl1   S    
O4    Zn1   S    
N2    Zn1   S    
C8    H5    S    
C8    N2    D    
O2    Zn2   S    
C4    C6    D    
O8    Zn1   S    
C1    O1    A    
H1    N2    S    
C3    H4    S    
C5    Cl2   S    
O1    Zn1   S    
C4    C9    S    
C10   O5    A    
C11   O8    A    
C9    O2    A    
C1    C3    S    
