data_mof_unit_pretest_1860.cif
_audit_creation_date              2012-12-11T16:13:03-0500
_audit_creation_method            fapswitch 2.2
_symmetry_space_group_name_H-M    P1
_symmetry_Int_Tables_number       1
_space_group_crystal_system       triclinic
_cell_length_a                    23.497957
_cell_length_b                    13.604528
_cell_length_c                    28.452364
_cell_angle_alpha                 89.934793
_cell_angle_beta                  90.487918
_cell_angle_gamma                 90.035309
_cell_volume                      9095.27492582

loop_
_atom_site_label
_atom_site_type_symbol
_atom_type_description
_atom_site_fract_x
_atom_site_fract_y
_atom_site_fract_z
_atom_type_partial_charge
C1    C     C_R   0.284669 0.005624 0.815953 0.548515
C2    C     C_3   0.463704 0.746447 0.975455 -0.000606
C3    C     C_R   0.250778 0.168344 0.530127 -0.082867
C4    C     C_R   0.278811 0.668091 0.517572 -0.098499
C5    C     C_R   0.750436 0.679248 0.481349 -0.084483
C6    C     C_R   0.777424 0.169542 0.517544 -0.098471
C7    C     C_R   0.248540 0.179578 0.481500 -0.083506
C8    C     C_R   0.259206 0.594166 0.547744 0.041819
C9    C     C_R   0.743856 0.596641 0.452448 0.052699
C10   C     C_R   0.759172 0.094532 0.547696 0.041880
C11   C     C_R   0.243559 0.096800 0.452493 0.052887
C12   C     C_R   0.250337 0.570062 0.450956 0.040995
C13   C     C_3   0.973574 0.243958 0.029542 0.012088
C14   C     C_R   0.747939 0.574421 0.549615 0.054473
C15   C     C_R   0.750486 0.070319 0.450905 0.041047
C16   C     C_R   0.247857 0.074243 0.549627 0.054289
C17   C     C_1   0.242353 0.558251 0.401602 -0.050148
C18   C     C_1   0.756565 0.560660 0.598820 -0.038400
C19   C     C_1   0.742435 0.058412 0.401562 -0.050035
C20   C     C_1   0.256526 0.060609 0.598832 -0.038414
C21   C     C_1   0.261891 0.610370 0.597164 -0.048502
C22   C     C_1   0.739755 0.610862 0.402891 -0.033490
C23   C     C_1   0.761887 0.110570 0.597129 -0.048362
C24   C     C_3   0.963704 0.246448 0.975456 -0.000606
C25   C     C_1   0.239593 0.111033 0.402932 -0.033555
C26   C     C_1   0.232174 0.540498 0.361223 -0.001089
C27   C     C_1   0.767355 0.541638 0.638996 0.004033
C28   C     C_1   0.732209 0.040578 0.361200 -0.001019
C29   C     C_1   0.267342 0.041643 0.639008 0.004057
C30   C     C_R   0.284411 0.007205 0.684061 0.546375
C31   C     C_R   0.715570 0.007120 0.315936 0.548157
C32   C     C_R   0.784416 0.507195 0.684054 0.546426
C33   C     C_R   0.215568 0.507114 0.315939 0.548070
C34   C     C_R   0.445783 0.825307 0.684457 0.545679
C35   C     C_1   0.519655 0.833566 0.095754 -0.046915
C36   C     C_R   0.554207 0.825178 0.315574 0.547820
C37   C     C_R   0.945789 0.325306 0.684460 0.545683
C38   C     C_R   0.054218 0.325176 0.315581 0.547745
C39   C     C_R   0.274251 0.674184 0.683021 0.542674
C40   C     C_R   0.725807 0.674035 0.316975 0.545301
C41   C     C_R   0.774251 0.174190 0.683018 0.542698
C42   C     C_R   0.225800 0.174050 0.316980 0.545209
C43   C     C_3   0.473650 0.932307 0.975026 -0.217360
C44   C     C_3   0.568755 0.829267 0.019211 -0.212792
C45   C     C_3   0.973650 0.432309 0.975027 -0.217360
C46   C     C_1   0.486315 0.835323 0.902191 -0.027954
C47   C     C_3   0.068755 0.329267 0.019211 -0.212793
C48   C     C_3   0.559777 0.826168 0.965216 -0.237264
C49   C     C_3   0.479258 0.928255 0.029262 -0.247719
C50   C     C_3   0.059777 0.326168 0.965216 -0.237266
C51   C     C_3   0.979258 0.428256 0.029262 -0.247718
C52   C     C_1   0.531799 0.830914 0.136751 0.008235
C53   C     C_1   0.472024 0.831671 0.861672 0.026424
C54   C     C_1   0.031798 0.330915 0.136751 0.008237
C55   C     C_1   0.972024 0.331671 0.861672 0.026414
C56   C     C_3   0.188300 0.792799 0.938442 -0.263534
C57   C     C_1   0.019655 0.333567 0.095754 -0.046913
C58   C     C_3   0.868816 0.588724 0.086713 -0.292736
C59   C     C_3   0.688294 0.292793 0.938440 -0.263535
C60   C     C_3   0.368815 0.088720 0.086713 -0.292742
C61   C     C_3   0.109062 0.612360 0.056446 -0.308261
C62   C     C_3   0.859077 0.724895 0.931721 -0.294664
C63   C     C_3   0.609062 0.112356 0.056446 -0.308266
C64   C     C_3   0.359078 0.224893 0.931722 -0.294668
C65   C     C_1   0.986315 0.335323 0.902192 -0.027958
C66   C     C_1   0.264545 0.627580 0.859223 0.014067
C67   C     C_1   0.732705 0.637175 0.138357 0.006763
C68   C     C_1   0.764545 0.127580 0.859223 0.014077
C69   C     C_R   0.715074 0.004932 0.183726 0.542575
C70   C     C_1   0.232705 0.137175 0.138357 0.006760
C71   C     C_R   0.288355 0.523295 0.972685 -0.110833
C72   C     C_R   0.695679 0.579602 0.020848 -0.138936
C73   C     C_R   0.788356 0.023297 0.972685 -0.110833
C74   C     C_R   0.195679 0.079602 0.020848 -0.138935
C75   C     C_R   0.285710 0.514771 0.021495 0.081722
C76   C     C_R   0.699036 0.572994 0.972048 0.046947
C77   C     C_R   0.785711 0.014774 0.021496 0.081721
C78   C     C_R   0.199035 0.072995 0.972048 0.046943
C79   C     C_R   0.202490 0.622147 0.022098 0.140856
C80   C     C_R   0.784669 0.505624 0.815953 0.548546
C81   C     C_R   0.800179 0.613908 0.976460 0.148433
C82   C     C_R   0.702490 0.122145 0.022097 0.140855
C83   C     C_R   0.300179 0.113906 0.976460 0.148434
C84   C     C_R   0.206649 0.633230 0.972783 0.158718
C85   C     C_R   0.796366 0.621666 0.025927 0.170201
C86   C     C_R   0.706648 0.133227 0.972783 0.158719
C87   C     C_R   0.296367 0.121664 0.025927 0.170204
C88   C     C_R   0.249398 0.582364 0.948352 0.029554
C89   C     C_R   0.743944 0.602165 0.047809 0.015607
C90   C     C_R   0.749398 0.082363 0.948352 0.029555
C91   C     C_R   0.215074 0.504932 0.183726 0.542585
C92   C     C_R   0.243944 0.102165 0.047810 0.015607
C93   C     C_R   0.243000 0.564295 0.046340 0.047555
C94   C     C_R   0.751522 0.587367 0.949846 0.046407
C95   C     C_R   0.743000 0.064296 0.046340 0.047554
C96   C     C_R   0.251521 0.087367 0.949846 0.046404
C97   C     C_R   0.446387 0.824179 0.816347 0.555956
C98   C     C_R   0.554394 0.824078 0.183160 0.544949
C99   C     C_R   0.946387 0.324179 0.816347 0.555919
C100  C     C_R   0.054394 0.324078 0.183160 0.544979
C101  C     C_1   0.238244 0.551255 0.096389 0.023476
C102  C     C_3   0.495693 0.835344 0.953106 0.047743
C103  C     C_1   0.757682 0.565379 0.900648 0.016329
C104  C     C_1   0.738244 0.051256 0.096389 0.023477
C105  C     C_1   0.257682 0.065379 0.900648 0.016326
C106  C     C_1   0.257391 0.600746 0.899032 0.001293
C107  C     C_1   0.737714 0.616932 0.097503 -0.010844
C108  C     C_1   0.757391 0.100745 0.899032 0.001298
C109  C     C_1   0.237714 0.116932 0.097503 -0.010843
C110  C     C_1   0.230302 0.534808 0.137358 0.023046
C111  C     C_1   0.767350 0.541597 0.860795 0.020061
C112  C     C_1   0.730303 0.034808 0.137358 0.023053
C113  C     C_3   0.510563 0.833295 0.044811 0.047842
C114  C     C_1   0.267350 0.041597 0.860795 0.020054
C115  C     C_1   0.471313 0.833900 0.639348 0.017980
C116  C     C_1   0.530786 0.832929 0.361497 0.017410
C117  C     C_1   0.971365 0.333897 0.639367 0.017976
C118  C     C_1   0.030840 0.332921 0.361520 0.017367
C119  C     C_R   0.533292 0.767030 0.529629 0.127113
C120  C     C_R   0.538659 0.763760 0.480326 0.123897
C121  C     C_R   0.033099 0.266570 0.529627 0.126809
C122  C     C_R   0.038447 0.263319 0.480321 0.123571
C123  C     C_R   0.477710 0.907865 0.473152 -0.139611
C124  C     C_3   0.995692 0.335345 0.953106 0.047744
C125  C     C_R   0.471806 0.910295 0.521773 -0.140611
C126  C     C_R   0.978174 0.408279 0.473225 -0.139460
C127  C     C_R   0.972288 0.410701 0.521847 -0.140431
C128  C     C_R   0.499298 0.840368 0.550019 0.018697
C129  C     C_R   0.510549 0.834626 0.452328 0.018932
C130  C     C_R   0.999443 0.340330 0.550057 0.018612
C131  C     C_R   0.010655 0.334615 0.452360 0.018818
C132  C     C_1   0.518441 0.835615 0.402368 -0.019060
C133  C     C_1   0.486691 0.838473 0.599251 -0.014837
C134  C     C_1   0.018530 0.335603 0.402398 -0.019128
C135  C     C_3   0.010563 0.333296 0.044811 0.047840
C136  C     C_1   0.986790 0.338455 0.599281 -0.014842
C137  C     C_1   0.265982 0.633417 0.637619 0.000301
C138  C     C_1   0.734531 0.633132 0.362374 0.009177
C139  C     C_1   0.765992 0.133501 0.637599 0.000401
C140  C     C_1   0.234469 0.133247 0.362402 0.009101
C141  C     C_R   0.235819 0.507615 0.529631 -0.102003
C142  C     C_R   0.738469 0.502939 0.472057 -0.087925
C143  C     C_R   0.737240 0.006873 0.529563 -0.101656
C144  C     C_R   0.239860 0.002725 0.471973 -0.088610
C145  C     C_R   0.274327 0.673074 0.814716 0.545585
C146  C     C_3   0.473575 0.743957 0.029542 0.012087
C147  C     C_R   0.725218 0.674668 0.184699 0.538926
C148  C     C_R   0.774327 0.173074 0.814716 0.545602
C149  C     C_R   0.225218 0.174668 0.184699 0.538943
C150  C     C_R   0.231349 0.495639 0.481121 -0.102380
C151  C     C_R   0.740705 0.491822 0.520759 -0.089013
C152  C     C_R   0.732850 0.994849 0.481049 -0.102006
C153  C     C_R   0.242195 0.991449 0.520662 -0.089747
C154  C     C_R   0.274344 0.656098 0.469067 -0.099317
C155  C     C_R   0.752573 0.668180 0.529985 -0.083741
C156  C     C_R   0.773040 0.157499 0.469037 -0.099293
Cr1   Cr    Cr6+3 0.250680 0.837130 0.748990 1.056900
Cr2   Cr    Cr6+3 0.623910 0.707720 0.250330 1.066044
Cr3   Cr    Cr6+3 0.876090 0.207720 0.749670 1.060281
Cr4   Cr    Cr6+3 0.123910 0.207720 0.250330 1.066124
Cr5   Cr    Cr6+3 0.749320 0.837130 0.251010 1.056153
Cr6   Cr    Cr6+3 0.750680 0.337130 0.748990 1.056848
Cr7   Cr    Cr6+3 0.249320 0.337130 0.251010 1.056098
Cr8   Cr    Cr6+3 0.378160 0.960100 0.750430 1.043087
Cr9   Cr    Cr6+3 0.621840 0.960100 0.249570 1.038151
Cr10  Cr    Cr6+3 0.878160 0.460100 0.750430 1.043061
Cr11  Cr    Cr6+3 0.121840 0.460100 0.249570 1.038131
Cr12  Cr    Cr6+3 0.376090 0.707720 0.749670 1.060187
H1    H     H_    0.502416 0.994382 0.042105 0.109721
H2    H     H_    0.732810 0.438969 0.449850 0.114772
H3    H     H_    0.722945 0.948826 0.552757 0.118592
H4    H     H_    0.235479 0.938596 0.449682 0.114321
H5    H     H_    0.212287 0.429179 0.467105 0.116158
H6    H     H_    0.737821 0.418858 0.535889 0.112213
H7    H     H_    0.714878 0.927512 0.467018 0.116341
H8    H     H_    0.240625 0.918263 0.535694 0.111853
H9    H     H_    0.288751 0.714042 0.445864 0.110599
H10   H     H_    0.758820 0.732123 0.552116 0.114783
H11   H     H_    0.786362 0.216260 0.445854 0.110444
H12   H     H_    0.584036 0.887105 0.948585 0.126370
H13   H     H_    0.255776 0.232469 0.552345 0.115217
H14   H     H_    0.296814 0.735443 0.531587 0.107279
H15   H     H_    0.754067 0.752076 0.466217 0.111045
H16   H     H_    0.794319 0.237724 0.531575 0.107060
H17   H     H_    0.250872 0.252663 0.466463 0.111405
H18   H     H_    0.498592 0.995664 0.961399 0.117538
H19   H     H_    0.594560 0.895065 0.028561 0.113828
H20   H     H_    0.998593 0.495665 0.961399 0.117537
H21   H     H_    0.094560 0.395066 0.028561 0.113828
H22   H     H_    0.576801 0.756090 0.951098 0.169978
H23   H     H_    0.002417 0.494383 0.042106 0.109722
H24   H     H_    0.436066 0.929373 0.044873 0.127777
H25   H     H_    0.076801 0.256091 0.951098 0.169975
H26   H     H_    0.936067 0.429375 0.044873 0.127778
H27   H     H_    0.593750 0.763983 0.030653 0.162791
H28   H     H_    0.428507 0.945352 0.964933 0.165298
H29   H     H_    0.093750 0.263983 0.030653 0.162790
H30   H     H_    0.928507 0.445354 0.964934 0.165300
H31   H     H_    0.480035 0.677501 0.959533 0.187418
H32   H     H_    0.432048 0.748535 0.047859 0.169133
H33   H     H_    0.980034 0.177502 0.959533 0.187417
H34   H     H_    0.084036 0.387105 0.948585 0.126363
H35   H     H_    0.932047 0.248536 0.047859 0.169135
H36   H     H_    0.322005 0.486249 0.953862 0.149077
H37   H     H_    0.654994 0.568801 0.037749 0.170863
H38   H     H_    0.822007 0.986253 0.953863 0.149078
H39   H     H_    0.154994 0.068802 0.037749 0.170864
H40   H     H_    0.126560 0.692783 0.959149 0.256601
H41   H     H_    0.190430 0.835399 0.971693 0.161996
H42   H     H_    0.158789 0.829940 0.913542 0.189690
H43   H     H_    0.231145 0.791658 0.922308 0.184705
H44   H     H_    0.872040 0.702241 0.036828 0.276823
H45   H     H_    0.456453 0.962874 0.451759 0.125907
H46   H     H_    0.915168 0.582476 0.080230 0.120984
H47   H     H_    0.849415 0.514263 0.084388 0.147081
H48   H     H_    0.863024 0.617647 0.122801 0.178784
H49   H     H_    0.626557 0.192773 0.959150 0.256601
H50   H     H_    0.690428 0.335393 0.971691 0.161996
H51   H     H_    0.658779 0.329933 0.913543 0.189689
H52   H     H_    0.731137 0.291655 0.922302 0.184702
H53   H     H_    0.372042 0.202235 0.036827 0.276821
H54   H     H_    0.415167 0.082470 0.080232 0.120981
H55   H     H_    0.349414 0.014259 0.084388 0.147081
H56   H     H_    0.444982 0.966003 0.537378 0.126537
H57   H     H_    0.363022 0.117642 0.122801 0.178779
H58   H     H_    0.149395 0.740897 0.035781 0.266667
H59   H     H_    0.088135 0.591831 0.022698 0.123322
H60   H     H_    0.078466 0.654999 0.077839 0.161282
H61   H     H_    0.120490 0.544658 0.076201 0.157234
H62   H     H_    0.888562 0.608497 0.972455 0.248294
H63   H     H_    0.858685 0.783407 0.958920 0.162565
H64   H     H_    0.824067 0.738344 0.906050 0.161784
H65   H     H_    0.900075 0.728433 0.912680 0.157719
H66   H     H_    0.649393 0.240893 0.035780 0.266666
H67   H     H_    0.957175 0.463628 0.451860 0.126021
H68   H     H_    0.588135 0.091825 0.022699 0.123323
H69   H     H_    0.578465 0.154994 0.077839 0.161276
H70   H     H_    0.620491 0.044654 0.076202 0.157235
H71   H     H_    0.388562 0.108492 0.972454 0.248293
H72   H     H_    0.358694 0.283403 0.958921 0.162567
H73   H     H_    0.324064 0.238349 0.906056 0.161777
H74   H     H_    0.400072 0.228425 0.912675 0.157720
H75   H     H_    0.945728 0.466750 0.537481 0.126630
H76   H     H_    0.220452 0.450434 0.552842 0.118501
I1    I     I_    0.575484 0.662066 0.573734 -0.327622
I2    I     I_    0.623113 0.543746 0.933638 -0.453209
I3    I     I_    0.848300 0.928119 0.056072 -0.357112
I4    I     I_    0.123112 0.043747 0.933639 -0.453220
I5    I     I_    0.587898 0.651500 0.447482 -0.333999
I6    I     I_    0.074810 0.160947 0.573680 -0.327572
I7    I     I_    0.087176 0.150461 0.447415 -0.333397
I8    I     I_    0.373459 0.747510 0.959708 -0.459038
I9    I     I_    0.508603 0.603911 0.051273 -0.349262
I10   I     I_    0.873458 0.247512 0.959709 -0.459035
I11   I     I_    0.008603 0.103912 0.051273 -0.349236
I12   I     I_    0.348296 0.428111 0.056071 -0.357134
N1    N     N_2   0.167878 0.694215 0.947321 -0.526030
N2    N     N_2   0.843482 0.656491 0.053279 -0.496508
N3    N     N_2   0.667875 0.194208 0.947320 -0.526028
N4    N     N_2   0.343483 0.156487 0.053279 -0.496506
N5    N     N_2   0.159130 0.671354 0.047758 -0.511961
N6    N     N_2   0.853085 0.629174 0.953344 -0.523331
N7    N     N_2   0.659129 0.171351 0.047758 -0.511965
N8    N     N_2   0.353085 0.129171 0.953343 -0.523330
O1    O     O_R   0.237900 0.735050 0.799950 -0.502278
O2    O     O_R   0.566580 0.739640 0.301090 -0.487211
O3    O     O_R   0.933420 0.239640 0.698910 -0.492474
O4    O     O_R   0.066580 0.239640 0.301090 -0.487131
O5    O     O_R   0.323550 0.666510 0.701520 -0.495483
O6    O     O_R   0.676450 0.666510 0.298480 -0.484134
O7    O     O_R   0.823550 0.166510 0.701520 -0.495407
O8    O     O_R   0.176450 0.166510 0.298480 -0.484159
O9    O     O_3   0.334980 0.834990 0.749700 -0.261779
O10   O     O_3   0.665020 0.834990 0.250300 -0.263021
O11   O     O_3   0.834980 0.334990 0.749700 -0.261771
O12   O     O_R   0.762100 0.735050 0.200050 -0.497699
O13   O     O_3   0.165020 0.334990 0.250300 -0.263070
O14   O     O_R   0.256160 0.936210 0.796950 -0.489207
O15   O     O_R   0.743840 0.936210 0.203050 -0.483135
O16   O     O_R   0.756160 0.436210 0.796950 -0.489196
O17   O     O_R   0.243840 0.436210 0.203050 -0.483136
O18   O     O_R   0.333710 0.029860 0.801630 -0.503330
O19   O     O_R   0.666290 0.029860 0.198370 -0.508875
O20   O     O_R   0.833710 0.529860 0.801630 -0.503322
O21   O     O_R   0.166290 0.529860 0.198370 -0.508846
O22   O     O_R   0.425340 0.901920 0.798280 -0.496179
O23   O     O_R   0.737900 0.235050 0.799950 -0.502269
O24   O     O_R   0.574660 0.901920 0.201720 -0.505329
O25   O     O_R   0.925340 0.401920 0.798280 -0.496195
O26   O     O_R   0.074660 0.401920 0.201720 -0.505307
O27   O     O_R   0.433530 0.738890 0.801610 -0.490531
O28   O     O_R   0.566470 0.738890 0.198390 -0.488252
O29   O     O_R   0.933530 0.238890 0.801610 -0.490545
O30   O     O_R   0.066470 0.238890 0.198390 -0.488221
O31   O     O_R   0.323650 0.665810 0.796720 -0.489059
O32   O     O_R   0.676350 0.665810 0.203280 -0.493998
O33   O     O_R   0.823650 0.165810 0.796720 -0.489061
O34   O     O_R   0.262100 0.235050 0.200050 -0.497697
O35   O     O_R   0.176350 0.165810 0.203280 -0.493972
O36   O     O_R   0.237790 0.735800 0.697250 -0.502665
O37   O     O_R   0.762210 0.735800 0.302750 -0.509304
O38   O     O_R   0.737790 0.235800 0.697250 -0.502757
O39   O     O_R   0.262210 0.235800 0.302750 -0.509277
O40   O     O_R   0.256050 0.936910 0.701750 -0.489484
O41   O     O_R   0.743950 0.936910 0.298250 -0.493031
O42   O     O_R   0.756050 0.436910 0.701750 -0.489546
O43   O     O_R   0.243950 0.436910 0.298250 -0.493048
O44   O     O_R   0.333600 0.030610 0.698930 -0.508202
O45   O     O_R   0.425240 0.902610 0.703070 -0.501166
O46   O     O_R   0.666400 0.030610 0.301070 -0.501856
O47   O     O_R   0.833600 0.530610 0.698930 -0.508193
O48   O     O_R   0.166400 0.530610 0.301070 -0.501850
O49   O     O_R   0.574760 0.902610 0.296930 -0.498477
O50   O     O_R   0.925240 0.402610 0.703070 -0.501213
O51   O     O_R   0.074760 0.402610 0.296930 -0.498551
O52   O     O_R   0.433420 0.739640 0.698910 -0.492588

loop_
_geom_bond_atom_site_label_1
_geom_bond_atom_site_label_2
_ccdc_geom_bond_type
C49   C113  S    
C73   H38   S    
C126  C127  A    
Cr2   O2    S    
C83   C87   A    
Cr2   O28   S    
C61   H59   S    
Cr9   O24   S    
C92   C109  S    
C149  O34   A    
C69   O15   A    
C74   C92   A    
C30   O44   A    
C100  O26   A    
C76   C94   A    
Cr9   O49   S    
Cr7   O17   S    
C78   C96   A    
C40   C138  S    
C14   C151  A    
C39   O36   A    
C21   C137  T    
C33   O43   A    
Cr5   O37   S    
C142  H2    S    
C119  C128  A    
C55   C65   T    
C50   H34   S    
C31   O46   A    
Cr3   O7    S    
Cr4   O8    S    
C12   C150  A    
Cr8   O9    S    
C25   C140  T    
C34   O45   A    
C86   C90   A    
C93   C101  S    
C64   H73   S    
C101  C110  T    
C5    C155  A    
C13   H35   S    
C6    H16   S    
C77   I3    S    
C142  C151  A    
Cr8   O44   S    
C16   C20   S    
C127  H75   S    
C24   I10   S    
C58   H46   S    
C62   H64   S    
C67   C147  S    
C91   O21   A    
C75   C93   A    
C125  H56   S    
C22   C138  T    
Cr3   O29   S    
C12   C154  A    
C63   H69   S    
C40   O6    A    
Cr11  O48   S    
H49   N3    S    
C60   N4    S    
C61   N5    S    
C56   H41   S    
Cr12  O5    S    
C31   O41   A    
C46   C53   T    
C52   C98   S    
C35   C113  S    
C146  H32   S    
C40   O37   A    
C64   H72   S    
C143  H3    S    
C71   C88   A    
C37   C117  S    
C154  H9    S    
C73   C77   A    
C57   C135  S    
C44   C48   S    
C13   I11   S    
C121  C130  A    
C97   O22   A    
Cr11  O26   S    
C58   N2    S    
Cr5   O12   S    
C73   C90   A    
C79   C84   A    
C50   H25   S    
C147  O32   A    
C11   C25   S    
C65   C124  S    
C63   H68   S    
C78   I4    S    
C8    C141  A    
Cr12  O52   S    
Cr11  O13   S    
C74   H39   S    
C118  C134  T    
C155  H10   S    
C151  H6    S    
C42   O8    A    
C13   C135  S    
C141  C150  A    
C47   C50   S    
C42   O39   A    
C71   H36   S    
C24   H33   S    
C141  H76   S    
C42   C140  S    
C120  C129  A    
C84   N1    S    
C50   C124  S    
C56   H43   S    
C100  O30   A    
C104  C112  T    
Cr7   O13   S    
C34   C115  S    
Cr10  O50   S    
C97   O27   A    
C84   C88   A    
C98   O28   A    
C5    C9    A    
C29   C30   S    
Cr6   O38   S    
C26   C33   S    
C116  C132  T    
C19   C28   T    
H58   N5    S    
C62   H63   S    
C36   C116  S    
C60   H55   S    
C122  C131  A    
C48   H12   S    
C51   H23   S    
Cr12  O31   S    
H40   N1    S    
C47   C135  S    
C7    H17   S    
C41   O38   A    
Cr4   O4    S    
C37   O50   A    
Cr8   O22   S    
C119  I1    S    
C43   C102  S    
C90   C108  S    
Cr6   O23   S    
C34   O52   A    
C81   C94   A    
C121  I6    S    
C83   C96   A    
H44   N2    S    
C91   O17   A    
C44   H19   S    
C150  H5    S    
C55   C99   S    
C47   H29   S    
C145  O1    A    
Cr3   O33   S    
C6    C156  A    
C3    C16   A    
C39   O5    A    
C54   C57   T    
C4    C154  A    
C96   C105  S    
H62   N6    S    
C56   N1    S    
C131  C134  S    
C49   H24   S    
C15   C19   S    
C32   O42   A    
C91   C110  S    
Cr4   O35   S    
C3    C7    A    
C59   H52   S    
Cr1   O9    S    
C69   C112  S    
C123  C125  A    
C64   H74   S    
C103  C111  T    
Cr9   O19   S    
C152  H7    S    
Cr10  O25   S    
C12   C17   S    
C61   H61   S    
C82   C95   A    
Cr9   O10   S    
H53   N4    S    
C48   H22   S    
C72   C76   A    
C129  C132  S    
C58   H47   S    
C148  O33   A    
C62   H65   S    
C87   C92   A    
C59   N3    S    
C70   C149  S    
C15   C152  A    
C130  C136  S    
C61   H60   S    
Cr5   O41   S    
C38   O51   A    
C120  I5    S    
Cr5   O15   S    
Cr6   O16   S    
C115  C133  T    
C149  O35   A    
C56   H42   S    
C2    I8    S    
C9    C142  A    
C48   C102  S    
C89   C107  S    
C3    H13   S    
C121  C122  A    
C143  C152  A    
C44   C113  S    
C80   O20   A    
C123  H45   S    
C146  I9    S    
C145  O31   A    
C79   N5    S    
C1    C114  S    
Cr1   O40   S    
C2    H31   S    
C44   H27   S    
C85   C89   A    
C27   C32   S    
C28   C31   S    
Cr4   O13   S    
C99   O29   A    
C59   H50   S    
C63   N7    S    
C87   N4    S    
C6    C10   A    
C119  C120  A    
C64   N8    S    
C72   H37   S    
Cr1   O1    S    
C144  H4    S    
C60   H54   S    
Cr2   O6    S    
Cr11  O51   S    
Cr2   O32   S    
C1    O14   A    
C82   C86   A    
Cr11  O21   S    
C49   H1    S    
Cr9   O46   S    
C80   C111  S    
Cr10  O11   S    
C41   C139  S    
Cr5   O10   S    
C38   C118  S    
Cr12  O27   S    
C36   O49   A    
C74   C78   A    
C35   C52   T    
C80   O16   A    
C2    C102  S    
C4    H14   S    
C117  C136  T    
C5    H15   S    
C113  C146  S    
C39   C137  S    
C14   C155  A    
C14   C18   S    
Cr10  O20   S    
C4    C8    A    
C62   N6    S    
C63   H70   S    
C7    C11   A    
C46   C102  S    
C153  H8    S    
C17   C26   T    
C23   C139  T    
C79   C93   A    
C1    O18   A    
C156  H11   S    
C9    C22   S    
C45   C51   S    
Cr3   O3    S    
C24   C124  S    
C60   H57   S    
C37   O3    A    
C144  C153  A    
C38   O4    A    
C66   C145  S    
C122  I7    S    
C51   C135  S    
C148  O23   A    
C125  C128  A    
C41   O7    A    
C85   N2    S    
C11   C144  A    
C147  O12   A    
Cr7   O39   S    
Cr1   O14   S    
C81   N6    S    
C123  C129  A    
C54   C100  S    
C83   N8    S    
C66   C106  T    
C98   O24   A    
Cr2   O10   S    
C20   C29   T    
C45   C124  S    
Cr8   O18   S    
C105  C114  T    
C75   I12   S    
Cr7   O34   S    
C43   C49   S    
Cr8   O45   S    
C43   H18   S    
C53   C97   S    
C45   H30   S    
C77   C95   A    
Cr10  O47   S    
C13   C24   S    
C43   H28   S    
C47   H21   S    
C70   C109  T    
Cr4   O30   S    
C88   C106  S    
Cr6   O11   S    
C8    C21   S    
C126  H67   S    
C15   C156  A    
Cr12  O9    S    
C30   O40   A    
H66   N7    S    
H71   N8    S    
Cr6   O42   S    
C16   C153  A    
C95   C104  S    
C36   O2    A    
C76   I2    S    
C18   C27   T    
C51   H26   S    
C68   C148  S    
C94   C103  S    
C45   H20   S    
C10   C23   S    
C2    C146  S    
C32   O47   A    
Cr3   O11   S    
C33   O48   A    
C127  C130  A    
C59   H51   S    
C128  C133  S    
C71   C75   A    
C72   C89   A    
C67   C107  T    
C69   O19   A    
C126  C131  A    
C10   C143  A    
Cr1   O36   S    
Cr7   O43   S    
C81   C85   A    
C86   N3    S    
C82   N7    S    
C68   C108  T    
C99   O25   A    
C58   H48   S    
