data_mof_unit_pretest_1550.cif
_audit_creation_date              2012-12-10T19:55:08-0500
_audit_creation_method            fapswitch 2.2
_symmetry_space_group_name_H-M    P1
_symmetry_Int_Tables_number       1
_space_group_crystal_system       triclinic
_cell_length_a                    14.255808
_cell_length_b                    14.946415
_cell_length_c                    16.742628
_cell_angle_alpha                 91.25281
_cell_angle_beta                  85.336522
_cell_angle_gamma                 91.060607
_cell_volume                      3554.24435144

loop_
_atom_site_label
_atom_site_type_symbol
_atom_type_description
_atom_site_fract_x
_atom_site_fract_y
_atom_site_fract_z
_atom_type_partial_charge
C1    C     C_R   0.500791 0.672394 0.500400 0.970785
C2    C     C_R   0.499363 0.328218 0.499983 1.045548
C3    C     C_R   0.427113 0.907821 0.539649 -0.249209
C4    C     C_R   0.532385 0.098452 0.568478 -0.221340
C5    C     C_R   0.425358 0.815501 0.538423 0.605505
C6    C     C_R   0.530650 0.190777 0.567654 0.569826
C7    C     C_R   0.502823 0.768964 0.502352 -0.375725
C8    C     C_R   0.498368 0.232832 0.501638 -0.346649
C9    C     C_R   0.582624 0.815449 0.468813 0.537331
C10   C     C_R   0.468793 0.183632 0.436075 0.544941
C11   C     C_R   0.584395 0.908223 0.470409 0.147462
C12   C     C_R   0.470096 0.090993 0.436746 0.145359
C13   C     C_R   0.505704 0.953563 0.505166 -0.089536
C14   C     C_R   0.502578 0.049165 0.503190 -0.088132
C15   C     C_R   0.891907 0.563324 0.544686 -0.265043
C16   C     C_R   0.108890 0.451031 0.443684 -0.276409
C17   C     C_R   0.793558 0.561863 0.545303 0.238883
C18   C     C_R   0.206965 0.449900 0.444683 0.206189
C19   C     C_R   0.798139 0.436951 0.456178 0.781361
C20   C     C_R   0.200695 0.549622 0.556234 0.809243
C21   C     C_R   0.896710 0.434102 0.457131 -0.325124
C22   C     C_R   0.101603 0.548998 0.559115 -0.331021
C23   C     C_R   0.486899 0.500668 0.653461 0.933657
C24   C     C_R   0.513105 0.504603 0.347133 0.949938
C25   C     C_R   0.946403 0.498794 0.501128 0.069956
C26   C     C_R   0.053093 0.499642 0.501646 0.066745
C27   C     C_R   0.478995 0.510247 0.740641 -0.185764
C28   C     C_R   0.521542 0.534785 0.264944 -0.173987
C29   C     C_R   0.560862 0.507894 0.781555 -0.213435
C30   C     C_R   0.450900 0.589452 0.240010 -0.229574
C31   C     C_R   0.556731 0.526971 0.863000 -0.103117
C32   C     C_R   0.459350 0.624498 0.163917 -0.073730
C33   C     C_R   0.470881 0.550039 0.904351 0.003260
C34   C     C_R   0.537501 0.603510 0.111483 0.022751
C35   C     C_R   0.388282 0.547868 0.864921 -0.170713
C36   C     C_R   0.610943 0.553673 0.137418 -0.200515
C37   C     C_R   0.391846 0.528119 0.783363 0.661334
C38   C     C_R   0.603305 0.519343 0.214261 0.667904
C39   C     C_2   0.464859 0.567491 0.990452 0.465021
C40   C     C_2   0.532494 0.613474 0.025896 0.463970
H1    H     H_    0.628442 0.492245 0.750597 0.210176
H2    H     H_    0.388970 0.605167 0.279311 0.192864
H3    H     H_    0.924239 0.615788 0.578800 0.185854
H4    H     H_    0.077805 0.413398 0.396572 0.186076
H5    H     H_    0.932288 0.380295 0.423858 0.188761
H6    H     H_    0.064547 0.586814 0.607019 0.191149
H7    H     H_    0.321149 0.562550 0.897193 0.212733
H8    H     H_    0.670961 0.536375 0.096447 0.198637
H9    H     H_    0.402301 0.663036 0.143985 0.182845
H10   H     H_    0.620458 0.522577 0.893630 0.201461
H11   H     H_    0.366903 0.943911 0.566633 0.209989
H12   H     H_    0.557248 0.065220 0.619447 0.209649
N1    N     N_R   0.747530 0.500020 0.500000 -0.178327
N2    N     N_R   0.252470 0.499980 0.500000 -0.194045
O1    O     O_R   0.420520 0.630930 0.499990 -0.559571
O2    O     O_R   0.579480 0.369070 0.500010 -0.549827
O3    O     O_R   0.579480 0.630940 0.499990 -0.569961
O4    O     O_R   0.420520 0.369060 0.500010 -0.610111
O5    O     O_R   0.411130 0.500010 0.615800 -0.526274
O6    O     O_R   0.588870 0.499990 0.384200 -0.536720
O7    O     O_R   0.570080 0.500020 0.615800 -0.631781
O8    O     O_R   0.429920 0.499980 0.384200 -0.631753
Zn1   Zn    Zn3+2 0.393860 0.499990 0.500000 1.088263
Zn2   Zn    Zn3+2 0.606140 0.500010 0.500000 1.105685
I1    I     I_    0.723702 0.657446 0.623060 -0.206689
I2    I     I_    0.275915 0.363946 0.357818 -0.101139
F1    F     F_    0.753154 0.375308 0.411868 -0.590054
F2    F     F_    0.244835 0.599946 0.610517 -0.540997
F3    F     F_    0.673540 0.468293 0.237669 -0.593724
F4    F     F_    0.310398 0.528369 0.746745 -0.585643
F5    F     F_    0.605285 0.654574 0.982600 -0.650637
F6    F     F_    0.392460 0.527299 0.035267 -0.652570
F7    F     F_    0.348703 0.772050 0.573328 -0.575349
F8    F     F_    0.559852 0.239147 0.630921 -0.635401
F9    F     F_    0.657370 0.771011 0.432666 -0.600818
F10   F     F_    0.442756 0.225675 0.370587 -0.597927
I3    I     I_    0.705556 0.977129 0.418535 -0.100594
I4    I     I_    0.424128 0.017230 0.336583 -0.132178

loop_
_geom_bond_atom_site_label_1
_geom_bond_atom_site_label_2
_ccdc_geom_bond_type
C40   F5    S    
C27   C29   A    
C35   H7    S    
C23   O5    A    
C33   C39   S    
C4    H12   S    
C34   C40   S    
C19   C21   A    
N1    Zn2   S    
C15   C25   A    
N2    Zn1   S    
C15   C17   A    
C11   I3    S    
C10   F10   S    
O1    Zn1   S    
C39   F6    S    
O2    Zn2   S    
C19   F1    S    
C23   C27   S    
C16   H4    S    
C3    C13   A    
C29   H1    S    
C19   N1    A    
C38   F3    S    
C13   C14   S    
C4    C14   A    
C6    F8    S    
C21   H5    S    
C16   C26   A    
C4    C6    A    
C39   C40   D    
C5    C7    A    
C3    H11   S    
C6    C8    A    
C25   C26   S    
C12   I4    S    
C32   C34   A    
O7    Zn2   S    
O8    Zn1   S    
C1    O3    A    
C28   C38   A    
C24   O6    A    
C31   C33   A    
C9    C11   A    
C10   C12   A    
C20   N2    A    
C22   H6    S    
C12   C14   A    
C31   H10   S    
C17   N1    A    
O3    Zn2   S    
O4    Zn1   S    
C7    C9    A    
C21   C25   A    
C24   O8    A    
C35   C37   A    
C1    C7    S    
C17   I1    S    
C20   F2    S    
C8    C10   A    
C2    C8    S    
C24   C28   S    
C20   C22   A    
C3    C5    A    
C2    O4    A    
C18   I2    S    
O5    Zn1   S    
O6    Zn2   S    
C28   C30   A    
C1    O1    A    
C15   H3    S    
C29   C31   A    
C2    O2    A    
C30   C32   A    
C11   C13   A    
C27   C37   A    
C36   C38   A    
C33   C35   A    
C36   H8    S    
C34   C36   A    
C5    F7    S    
C32   H9    S    
C18   N2    A    
C23   O7    A    
C16   C18   A    
C22   C26   A    
C30   H2    S    
C9    F9    S    
C37   F4    S    
