data_mof_unit_pretest_515.cif
_audit_creation_date              2012-12-10T18:25:33-0500
_audit_creation_method            fapswitch 2.2
_symmetry_space_group_name_H-M    P1
_symmetry_Int_Tables_number       1
_space_group_crystal_system       triclinic
_cell_length_a                    15.050976
_cell_length_b                    13.987193
_cell_length_c                    18.993774
_cell_angle_alpha                 89.51534
_cell_angle_beta                  90.909128
_cell_angle_gamma                 90.681799
_cell_volume                      3997.66333054

loop_
_atom_site_label
_atom_site_type_symbol
_atom_type_description
_atom_site_fract_x
_atom_site_fract_y
_atom_site_fract_z
_atom_type_partial_charge
C1    C     C_R   0.326431 0.499369 0.497785 0.920936
C2    C     C_R   0.673519 0.500601 0.501966 0.928342
C3    C     C_R   0.817592 0.582164 0.527691 0.502004
C4    C     C_R   0.182678 0.417162 0.470635 0.485164
C5    C     C_R   0.909840 0.584392 0.519854 -0.052409
C6    C     C_R   0.089850 0.416805 0.474175 -0.051733
C7    C     C_R   0.953487 0.501094 0.497987 -0.034457
C8    C     C_R   0.046066 0.500845 0.494510 -0.036106
C9    C     C_R   0.904581 0.417860 0.480074 0.030242
C10   C     C_R   0.094853 0.584164 0.512537 0.029903
C11   C     C_R   0.958875 0.668093 0.533924 -0.322577
C12   C     C_R   0.040365 0.333768 0.458496 -0.312393
C13   C     C_R   0.051248 0.667846 0.532302 0.473175
C14   C     C_R   0.948029 0.334562 0.459448 0.472532
C15   C     C_R   0.578753 0.799290 0.496444 -0.049588
C16   C     C_R   0.421402 0.200652 0.504466 -0.091723
C17   C     C_R   0.421240 0.797335 0.503063 -0.095482
C18   C     C_R   0.578681 0.202763 0.495174 -0.075911
C19   C     C_R   0.419386 0.897879 0.503186 0.001133
C20   C     C_R   0.580649 0.102190 0.495536 -0.002237
C21   C     C_R   0.580678 0.899923 0.496145 -0.001671
C22   C     C_R   0.419459 0.100072 0.503899 0.002492
C23   C     C_R   0.500050 0.949444 0.499749 0.092373
C24   C     C_R   0.500057 0.050588 0.499722 0.087842
C25   C     C_R   0.339111 0.947770 0.506596 -0.215107
C26   C     C_R   0.660909 0.052295 0.491904 -0.210961
C27   C     C_R   0.660936 0.951929 0.492248 -0.193181
C28   C     C_R   0.339162 0.048095 0.507288 -0.191022
C29   C     C_R   0.503686 0.500547 0.364703 0.889288
C30   C     C_R   0.501018 0.499654 0.635298 0.930974
C31   C     C_R   0.544227 0.590398 0.254817 0.418648
C32   C     C_R   0.559363 0.421994 0.745139 0.411544
C33   C     C_R   0.497062 0.582677 0.750774 0.412273
C34   C     C_R   0.529695 0.416019 0.250943 0.416355
C35   C     C_R   0.572730 0.590558 0.185447 -0.270856
C36   C     C_R   0.587796 0.430035 0.815017 -0.273379
C37   C     C_R   0.521037 0.585964 0.822097 -0.278479
C38   C     C_R   0.553575 0.419074 0.180239 -0.276435
C39   C     C_R   0.575630 0.505799 0.147472 -0.043788
C40   C     C_R   0.567963 0.510996 0.853888 -0.039156
C41   C     C_R   0.523320 0.502426 0.288857 -0.273576
C42   C     C_R   0.516364 0.499998 0.711773 -0.263537
C43   C     C_R   0.586496 0.512263 0.929562 0.342249
C44   C     C_R   0.590714 0.509385 0.071688 0.343458
C45   C     C_R   0.812770 0.419820 0.481865 -0.315473
C46   C     C_R   0.186676 0.581610 0.512559 -0.308821
C47   C     C_R   0.769427 0.501517 0.504031 -0.186071
C48   C     C_R   0.230448 0.498566 0.493622 -0.194705
H1    H     H_    0.590511 0.658169 0.160881 0.174963
H2    H     H_    0.623938 0.371471 0.839185 0.172973
H3    H     H_    0.500154 0.645989 0.853166 0.170321
H4    H     H_    0.552192 0.353230 0.150604 0.174808
H5    H     H_    0.774485 0.357691 0.465174 0.209107
H6    H     H_    0.224603 0.644097 0.529025 0.216305
H7    H     H_    0.926013 0.733873 0.547179 0.186302
H8    H     H_    0.072613 0.267623 0.445439 0.187378
H9    H     H_    0.640126 0.760395 0.493436 0.191986
H10   H     H_    0.360137 0.239480 0.508449 0.196665
H11   H     H_    0.359681 0.757068 0.505758 0.154252
H12   H     H_    0.640090 0.243106 0.491384 0.153998
H13   H     H_    0.276346 0.909265 0.508619 0.170965
H14   H     H_    0.723618 0.090823 0.489117 0.172875
H15   H     H_    0.723653 0.915023 0.489490 0.157689
H16   H     H_    0.276453 0.084996 0.510184 0.157754
N1    N     N_R   0.601457 0.427658 0.035123 -0.185542
N2    N     N_R   0.579532 0.594543 0.966085 -0.186144
N3    N     N_R   0.599544 0.429117 0.965247 -0.185227
N4    N     N_R   0.581713 0.593115 0.035938 -0.186079
N5    N     N_R   0.500000 0.750030 0.500000 -0.103148
N6    N     N_R   0.500000 0.249970 0.500000 -0.104554
O1    O     O_R   0.367850 0.580280 0.500020 -0.647156
O2    O     O_R   0.632150 0.419720 0.499980 -0.647489
O3    O     O_R   0.632150 0.580280 0.499980 -0.583344
O4    O     O_R   0.367850 0.419720 0.500020 -0.585755
O5    O     O_R   0.499990 0.580300 0.398140 -0.569020
O6    O     O_R   0.500010 0.419700 0.601860 -0.574604
O7    O     O_R   0.500010 0.580300 0.601860 -0.598982
O8    O     O_R   0.499990 0.419700 0.398140 -0.590293
Zn1   Zn    Zn3+2 0.500000 0.607200 0.500000 0.979919
Zn2   Zn    Zn3+2 0.500000 0.392800 0.500000 0.972770
O9    O     O_3   0.543775 0.676378 0.290301 -0.578088
C49   C     C_3   0.465912 0.726309 0.271017 0.118556
H17   H     H_    0.406141 0.687965 0.291266 0.139234
H18   H     H_    0.459085 0.735207 0.212816 0.125972
C50   C     C_3   0.469935 0.825599 0.303029 -0.789769
H19   H     H_    0.527965 0.866205 0.282440 0.250835
H20   H     H_    0.408276 0.864939 0.289418 0.200985
H21   H     H_    0.476375 0.819981 0.361063 0.266632
O10   O     O_3   0.579957 0.340347 0.708410 -0.583583
C51   C     C_3   0.521210 0.265938 0.729020 0.127482
H22   H     H_    0.451748 0.283071 0.712623 0.143459
H23   H     H_    0.523827 0.253196 0.787006 0.126635
C52   C     C_3   0.547373 0.173557 0.693674 -0.797131
H24   H     H_    0.616565 0.154710 0.708950 0.253774
H25   H     H_    0.501869 0.114585 0.709918 0.197416
H26   H     H_    0.542743 0.182180 0.635802 0.267236
O11   O     O_3   0.443829 0.653525 0.721710 -0.592704
C53   C     C_3   0.491897 0.740871 0.717436 0.132539
H27   H     H_    0.544268 0.736222 0.677066 0.155319
H28   H     H_    0.523303 0.761618 0.768568 0.119708
C54   C     C_3   0.428606 0.820025 0.695481 -0.809868
H29   H     H_    0.378918 0.830980 0.737171 0.247692
H30   H     H_    0.466259 0.887789 0.686866 0.206227
H31   H     H_    0.393225 0.800354 0.646008 0.259635
O12   O     O_3   0.502692 0.329613 0.280016 -0.601104
C55   C     C_3   0.577579 0.271888 0.293618 0.121235
H32   H     H_    0.617166 0.301160 0.338684 0.150717
H33   H     H_    0.621333 0.266347 0.247094 0.124149
C56   C     C_3   0.545870 0.171388 0.312610 -0.816118
H34   H     H_    0.511774 0.138237 0.266475 0.249490
H35   H     H_    0.603353 0.126658 0.328533 0.210839
H36   H     H_    0.498521 0.173925 0.356709 0.266106
O13   O     O_3   0.773830 0.659186 0.556271 -0.630479
C57   C     C_3   0.788592 0.661645 0.630241 0.052487
H37   H     H_    0.780860 0.736700 0.647510 0.164199
H38   H     H_    0.856637 0.639847 0.647265 0.132867
C58   C     C_3   0.720438 0.600065 0.668519 -0.857664
H39   H     H_    0.728362 0.523526 0.655272 0.251768
H40   H     H_    0.728943 0.608488 0.726320 0.216691
H41   H     H_    0.653085 0.623292 0.652853 0.260128
O14   O     O_3   0.227143 0.336861 0.448264 -0.625479
C59   C     C_3   0.218965 0.327717 0.374101 -0.006603
H42   H     H_    0.166521 0.372943 0.348839 0.127773
H43   H     H_    0.201176 0.252190 0.362270 0.165651
C60   C     C_3   0.307357 0.350572 0.340022 -0.696777
H44   H     H_    0.359961 0.305027 0.363798 0.293703
H45   H     H_    0.302740 0.336411 0.282642 0.210587
H46   H     H_    0.324671 0.427111 0.347841 0.217585
O15   O     O_3   0.098933 0.750753 0.546893 -0.619083
C61   C     C_3   0.101355 0.764320 0.620506 0.077017
H47   H     H_    0.124209 0.698737 0.648973 0.143776
H48   H     H_    0.034597 0.784268 0.639626 0.138869
C62   C     C_3   0.166400 0.844992 0.637986 -0.815367
H49   H     H_    0.145772 0.911903 0.610744 0.258234
H50   H     H_    0.168150 0.857175 0.695687 0.211527
H51   H     H_    0.233990 0.825805 0.620861 0.246719
O16   O     O_3   0.900413 0.251793 0.444557 -0.613571
C63   C     C_3   0.889961 0.244304 0.370787 0.074508
H52   H     H_    0.953944 0.223935 0.346781 0.145146
H53   H     H_    0.866490 0.312540 0.346354 0.129316
C64   C     C_3   0.820672 0.167337 0.354299 -0.844754
H54   H     H_    0.755866 0.187289 0.376773 0.237113
H55   H     H_    0.812449 0.159928 0.296394 0.210131
H56   H     H_    0.841727 0.097706 0.377171 0.266689

loop_
_geom_bond_atom_site_label_1
_geom_bond_atom_site_label_2
_ccdc_geom_bond_type
C18   N6    A    
N2    N4    A    
C9    C45   A    
C52   H24   S    
C19   C23   A    
O1    Zn1   S    
O11   C53   S    
C16   H10   S    
C11   H7    S    
C7    C8    A    
C50   H19   S    
C25   C28   A    
C17   N5    A    
C26   C27   A    
C1    O1    A    
C20   C26   A    
C33   C42   A    
C32   C36   A    
C5    C11   A    
C37   C40   A    
C58   H40   S    
C6    C12   A    
C38   C39   A    
C37   H3    S    
O8    Zn2   S    
C38   H4    S    
C55   H32   S    
C30   O7    A    
C64   H54   S    
C40   C43   S    
C29   O8    A    
C20   C24   A    
N1    N3    A    
C35   H1    S    
C60   H46   S    
C23   C24   A    
C18   C20   A    
O7    Zn1   S    
C21   C27   A    
O16   C63   S    
C45   H5    S    
C52   H25   S    
O4    Zn2   S    
C58   H41   S    
C15   H9    S    
C44   N1    A    
C34   C41   A    
C2    O2    A    
C57   H37   S    
C45   C47   A    
C15   N5    A    
C46   C48   A    
C50   H20   S    
N6    Zn2   S    
C54   H29   S    
C36   C40   A    
C16   N6    A    
C4    C6    A    
C3    O13   S    
C64   H56   S    
C5    C7    A    
C6    C8    A    
C10   C13   A    
O9    C49   S    
C64   H55   S    
C61   H48   S    
C9    C14   A    
C43   N3    A    
C10   C46   A    
C62   H51   S    
C30   O6    A    
C51   H23   S    
C32   O10   S    
C14   O16   S    
C46   H6    S    
O3    Zn1   S    
N5    Zn1   S    
C25   H13   S    
O14   C59   S    
C12   H8    S    
C2    O3    A    
C63   H53   S    
C17   H11   S    
C28   H16   S    
C18   H12   S    
C12   C14   A    
C53   H27   S    
C54   H31   S    
C53   H28   S    
C21   C23   A    
C62   H49   S    
C22   C24   A    
C56   H36   S    
C61   C62   S    
C1    O4    A    
C59   H43   S    
C49   C50   S    
C36   H2    S    
C51   C52   S    
C60   H45   S    
O13   C57   S    
C4    C48   A    
C50   H21   S    
C7    C9    A    
C16   C22   A    
C31   C41   A    
C29   C41   S    
C34   C38   A    
C34   O12   S    
C8    C10   A    
O6    Zn2   S    
C3    C5    A    
C63   C64   S    
C57   H38   S    
C1    C48   S    
C59   H42   S    
C39   C44   S    
C29   O5    A    
C2    C47   S    
C52   H26   S    
C53   C54   S    
O12   C55   S    
C49   H18   S    
C31   O9    S    
C59   C60   S    
C56   H35   S    
C61   H47   S    
O15   C61   S    
O2    Zn2   S    
C58   H39   S    
C11   C13   A    
C51   H22   S    
C60   H44   S    
C55   H33   S    
C43   N2    A    
C35   C39   A    
C31   C35   A    
C3    C47   A    
C17   C19   A    
C4    O14   S    
C33   O11   S    
C26   H14   S    
C19   C25   A    
C33   C37   A    
C57   C58   S    
C44   N4    A    
C63   H52   S    
C15   C21   A    
C54   H30   S    
C49   H17   S    
C62   H50   S    
C32   C42   A    
C30   C42   S    
C22   C28   A    
C27   H15   S    
O10   C51   S    
C56   H34   S    
O5    Zn1   S    
C13   O15   S    
C55   C56   S    
