data_mof_unit_pretest_1256.cif
_audit_creation_date              2013-03-05T16:11:15-0500
_audit_creation_method            fapswitch 2.2
_symmetry_space_group_name_H-M    P1
_symmetry_Int_Tables_number       1
_space_group_crystal_system       triclinic
_cell_length_a                    6.953432
_cell_length_b                    20.534306
_cell_length_c                    24.543516
_cell_angle_alpha                 89.946704
_cell_angle_beta                  90.458038
_cell_angle_gamma                 89.48037
_cell_volume                      3504.16108686

loop_
_atom_site_label
_atom_site_type_symbol
_atom_site_description
_atom_site_fract_x
_atom_site_fract_y
_atom_site_fract_z
_atom_type_partial_charge
O1    O     O_R   0.507280 0.423750 0.460310 -0.576067
O2    O     O_R   0.171030 0.555650 0.437630 -0.590866
O3    O     O_R   0.004080 0.576250 0.539690 -0.597639
C1    C     C_R   0.339055 0.575769 0.421851 1.033829
O4    O     O_R   0.177330 0.422980 0.453960 -0.587262
O5    O     O_R   0.010420 0.442640 0.556140 -0.595968
C2    C     C_R   0.346252 0.399331 0.443021 1.035520
O6    O     O_R   0.500930 0.557360 0.443860 -0.579038
O7    O     O_3   0.340310 0.506600 0.533500 -0.289652
V1    V     V_3+5 0.064140 0.498780 0.493780 1.200472
O8    O     O_R   0.680890 0.444350 0.562370 -0.597139
C3    C     C_R   0.850593 0.424391 0.578141 0.972088
O9    O     O_R   0.674590 0.577020 0.546040 -0.597161
C4    C     C_R   0.842677 0.600922 0.556620 0.915484
V2    V     V_3+5 0.564550 0.501220 0.506220 1.196053
O10   O     O_3   0.838250 0.493400 0.466500 -0.246709
C5    C     C_R   0.971642 0.839934 0.909225 -0.253783
C6    C     C_R   0.846215 0.661755 0.588394 -0.096436
C7    C     C_R   0.995125 0.722575 0.905359 -0.141320
C8    C     C_R   0.985829 0.779762 0.935430 -0.214852
C9    C     C_R   0.960726 0.842838 0.851511 0.268618
C10   C     C_R   0.945452 0.783679 0.820515 -0.038386
C11   C     C_R   0.977443 0.723961 0.848467 0.149867
C12   C     C_R   0.898699 0.780915 0.763292 0.071242
C13   C     C_R   0.920105 0.720925 0.733781 0.061159
C14   C     C_R   0.971339 0.664370 0.763323 -0.185647
C15   C     C_R   0.992475 0.665665 0.819602 -0.188151
C16   C     C_R   0.814661 0.834470 0.735809 -0.087517
C17   C     C_R   0.773285 0.832401 0.680479 -0.239960
C18   C     C_R   0.806020 0.775932 0.650402 0.169445
C19   C     C_R   0.879003 0.718892 0.676303 0.105073
C20   C     C_R   0.757235 0.775508 0.594835 -0.159699
C21   C     C_R   0.774847 0.718751 0.564372 -0.167500
C22   C     C_R   0.901253 0.661911 0.643688 -0.240552
H1    H     H_    0.022266 0.620300 0.840826 0.139338
H2    H     H_    0.955824 0.616629 0.660076 0.105378
H3    H     H_    0.730017 0.719010 0.521982 0.108759
H4    H     H_    0.709781 0.875139 0.661291 0.149516
H5    H     H_    0.015001 0.676808 0.926813 0.137107
H6    H     H_    0.997776 0.777253 0.979437 0.131932
H7    H     H_    0.986658 0.617296 0.744499 0.130209
H8    H     H_    0.768815 0.877801 0.756889 0.184653
H9    H     H_    0.700072 0.818911 0.575167 0.119860
H10   H     H_    0.618942 0.205670 0.792955 0.125017
C23   C     C_R   0.729887 0.269376 0.731159 -0.171446
H11   H     H_    0.587885 0.283934 0.717041 0.119194
C24   C     C_R   0.894288 0.294922 0.706404 0.179709
C25   C     C_R   0.076621 0.275123 0.725517 -0.172607
H12   H     H_    0.205286 0.294191 0.706972 0.119885
C26   C     C_R   0.094338 0.230480 0.768761 -0.153516
H13   H     H_    0.236338 0.215928 0.782885 0.122598
C27   C     C_R   0.929937 0.204942 0.793518 0.175516
C28   C     C_R   0.747604 0.224732 0.774403 -0.151079
C29   C     C_1   0.876358 0.340989 0.661411 -0.024850
C30   C     C_1   0.947874 0.158928 0.838543 0.003623
C31   C     C_1   0.961079 0.120767 0.876349 -0.226209
C32   C     C_1   0.863171 0.379211 0.623642 -0.289462
H14   H     H_    0.699076 0.703058 0.296868 0.124122
C33   C     C_R   0.596774 0.767782 0.233609 -0.174730
H15   H     H_    0.740661 0.780957 0.221405 0.118588
C34   C     C_R   0.436101 0.794943 0.206615 0.180895
C35   C     C_R   0.251304 0.776767 0.223415 -0.172157
H16   H     H_    0.125208 0.797001 0.203201 0.120353
C36   C     C_R   0.227514 0.732276 0.266458 -0.167173
H17   H     H_    0.083628 0.719105 0.278666 0.120691
C37   C     C_R   0.388185 0.705128 0.293459 0.177317
C38   C     C_R   0.572984 0.723290 0.276651 -0.159030
C39   C     C_1   0.459838 0.840969 0.161720 -0.025991
C40   C     C_1   0.364434 0.659158 0.338389 -0.010474
C41   C     C_1   0.349032 0.621000 0.376169 -0.242773
C42   C     C_1   0.475212 0.879181 0.123973 -0.287859
C43   C     C_R   0.469634 0.161723 0.088499 -0.144979
C44   C     C_R   0.351781 0.339854 0.409183 -0.252109
C45   C     C_R   0.480825 0.279788 0.089927 0.370865
C46   C     C_R   0.486096 0.220929 0.061378 -0.267657
C47   C     C_R   0.449578 0.160725 0.145296 -0.231021
C48   C     C_R   0.439484 0.219429 0.176027 0.089392
C49   C     C_R   0.452289 0.279451 0.147160 -0.022810
C50   C     C_R   0.413480 0.220624 0.234163 0.093156
C51   C     C_R   0.408124 0.281585 0.262681 0.075014
C52   C     C_R   0.401300 0.338983 0.231400 -0.105979
C53   C     C_R   0.425403 0.338026 0.175385 -0.134386
C54   C     C_R   0.383652 0.163191 0.264444 -0.192932
C55   C     C_R   0.341860 0.165426 0.319612 -0.204532
C56   C     C_R   0.341089 0.224280 0.347906 0.164116
C57   C     C_R   0.389741 0.283059 0.321101 -0.035626
C58   C     C_R   0.290082 0.224437 0.402986 -0.157061
C59   C     C_R   0.287511 0.282072 0.432504 -0.204263
C60   C     C_R   0.413426 0.340317 0.354168 0.268248
H18   H     H_    0.416004 0.384130 0.154150 0.189384
H19   H     H_    0.241039 0.281198 0.474543 0.127478
H20   H     H_    0.310009 0.120264 0.340477 0.127286
H21   H     H_    0.506645 0.221233 0.017640 0.155477
H22   H     H_    0.442957 0.113339 0.163977 0.102749
H23   H     H_    0.366449 0.385588 0.249039 0.181416
H24   H     H_    0.382179 0.115515 0.246305 0.126856
H25   H     H_    0.247684 0.179840 0.423078 0.122479
O11   O     O_R   0.323320 0.942780 0.056240 -0.595835
O12   O     O_R   0.647300 0.077050 0.046060 -0.596663
O13   O     O_R   0.813840 0.057330 0.943840 -0.582899
C61   C     C_R   0.478290 0.100842 0.056858 0.948638
O14   O     O_R   0.653250 0.944380 0.062400 -0.597214
O15   O     O_R   0.819830 0.923720 0.960300 -0.583012
C62   C     C_R   0.485177 0.924439 0.078302 0.967804
O16   O     O_R   0.317330 0.076390 0.039790 -0.594658
O17   O     O_3   0.483830 0.993470 0.966560 -0.255102
V3    V     V_3+5 0.760140 0.001210 0.006210 1.192669
O18   O     O_R   0.149290 0.922840 0.953850 -0.587979
C63   C     C_R   0.980741 0.899228 0.943069 1.040056
O19   O     O_R   0.143340 0.055500 0.937510 -0.588772
C64   C     C_R   0.973679 0.075652 0.921886 1.047925
V4    V     V_3+5 0.259690 0.998600 0.993650 1.204352
O20   O     O_3   0.986130 0.006520 0.033440 -0.289081
N1    N     N_R   0.519426 0.395369 0.334921 0.218439
O21   O     O_R   0.688550 0.386818 0.313607 -0.380899
O22   O     O_R   0.450495 0.454166 0.339903 -0.436191
N2    N     N_R   0.508238 0.339267 0.060162 0.232167
O23   O     O_R   0.432002 0.346339 0.011897 -0.375050
O24   O     O_R   0.636394 0.380855 0.076541 -0.377577
N3    N     N_R   0.994498 0.904232 0.825322 0.210609
O25   O     O_R   0.131353 0.909375 0.789762 -0.392157
O26   O     O_R   0.894065 0.955623 0.838267 -0.442585

loop_
_geom_bond_atom_site_label_1
_geom_bond_atom_site_label_2
_geom_bond_distance
_ccdc_geom_bond_type
C13   C19   1.437870 A    
C50   C54   1.411208 A    
C58   C59   1.388248 A    
C4    C6    1.473517 S    
O2    C1    1.304366 A    
C7    C8    1.388827 A    
C1    O6    1.297614 A    
C1    C41   1.457751 S    
N1    O21   1.301415 A    
C2    C44   1.477958 S    
O17   V4    1.701746 S    
C48   C49   1.424908 A    
N3    O25   1.301287 A    
C14   C15   1.388227 A    
C17   C18   1.393137 A    
C16   C17   1.386646 A    
C9    N3    1.436629 S    
N2    O24   1.301422 A    
O5    C3    1.297644 A    
C18   C19   1.419934 A    
C52   H23   1.077131 S    
C37   C40   1.462265 S    
O17   V3    2.153977 S    
V2    O10   2.150013 S    
C5    C8    1.394753 A    
O18   C63   1.297785 A    
C23   C24   1.404449 A    
O19   C64   1.301406 A    
V3    O20   1.707136 S    
C35   C36   1.407757 A    
C47   H22   1.076805 S    
O8    V2    1.969619 S    
H10   C28   1.083263 S    
C24   C25   1.404829 A    
C42   C62   1.457887 S    
C17   H4    1.084360 S    
C26   C27   1.404415 A    
O1    V2    1.991610 S    
C11   C15   1.395104 A    
O7    V1    2.154013 S    
C31   C64   1.452592 S    
C27   C30   1.457129 S    
C43   C47   1.402222 A    
C33   C38   1.407771 A    
C25   C26   1.405737 A    
C37   C38   1.406170 A    
C23   C28   1.405746 A    
C33   H15   1.083269 S    
O9    C4    1.296210 A    
C34   C35   1.406184 A    
C43   C46   1.391576 A    
V4    O20   2.150082 S    
N3    O26   1.301177 A    
C52   C53   1.386456 A    
C48   C50   1.439891 A    
C61   O16   1.297438 A    
C33   C34   1.405120 A    
O11   V4    1.961147 S    
C45   C46   1.397960 A    
C56   C58   1.400336 A    
C55   C56   1.394389 A    
C12   C13   1.436755 A    
O4    C2    1.297111 A    
C15   H1    1.084387 S    
C13   C14   1.409984 A    
C56   C57   1.419013 A    
C21   H3    1.083693 S    
O18   V4    1.994023 S    
C36   C37   1.405095 A    
C7    C11   1.401008 A    
C44   C59   1.395573 A    
C35   H16   1.083325 S    
C49   C53   1.400383 A    
C54   C55   1.387823 A    
C59   H19   1.083853 S    
C30   C31   1.216318 T    
C26   H13   1.083225 S    
C19   C22   1.426238 A    
O14   V3    1.960936 S    
C47   C48   1.424046 A    
O14   C62   1.304411 A    
C6    C22   1.407103 A    
O3    C4    1.298623 A    
C7    H5    1.084019 S    
C24   C29   1.457243 S    
C3    C32   1.452760 S    
C25   H12   1.083258 S    
O12   C61   1.298009 A    
O16   V4    2.000588 S    
O6    V2    1.960564 S    
O9    V2    1.993940 S    
C45   C49   1.420228 A    
C10   C12   1.440345 A    
O2    V1    1.960737 S    
C27   C28   1.404805 A    
C46   H21   1.084113 S    
C45   N2    1.437546 S    
C60   N1    1.436676 S    
O13   V3    1.955599 S    
O1    C2    1.299304 A    
C8    H6    1.083775 S    
C12   C16   1.409434 A    
C51   C52   1.406258 A    
C57   C60   1.439201 A    
C5    C63   1.476115 S    
O5    V1    1.955675 S    
N1    O22   1.301215 A    
O8    C3    1.301491 A    
O12   V3    1.997605 S    
C51   C57   1.440865 A    
C53   H18   1.081462 S    
O15   C63   1.296698 A    
C20   C21   1.390249 A    
O7    V2    1.704531 S    
C44   C60   1.419978 A    
O4    V1    1.997552 S    
O3    V1    1.993364 S    
V1    O10   1.707074 S    
N2    O23   1.301375 A    
C36   H17   1.083272 S    
C18   C20   1.402782 A    
C34   C39   1.462342 S    
C39   C42   1.219496 T    
O11   C62   1.297647 A    
C54   H24   1.075949 S    
C16   H8    1.076731 S    
C20   H9    1.084003 S    
C22   H2    1.077413 S    
C40   C41   1.219417 T    
C6    C21   1.395405 A    
O19   V4    1.969838 S    
C50   C51   1.435102 A    
C23   H11   1.083220 S    
H14   C38   1.083330 S    
O13   C64   1.297674 A    
C43   C61   1.473343 S    
C10   C11   1.419463 A    
O15   V3    1.993163 S    
C55   H20   1.084427 S    
C9    C10   1.438242 A    
C14   H7    1.076529 S    
C58   H25   1.084034 S    
C29   C32   1.216429 T    
C5    C9    1.419098 A    
