data_mof_unit_pretest_130.cif
_audit_creation_date              2012-12-10T20:28:00-0500
_audit_creation_method            fapswitch 2.2
_symmetry_space_group_name_H-M    P1
_symmetry_Int_Tables_number       1
_space_group_crystal_system       triclinic
_cell_length_a                    12.870098
_cell_length_b                    10.686273
_cell_length_c                    9.862167
_cell_angle_alpha                 90.276606
_cell_angle_beta                  96.930402
_cell_angle_gamma                 90.081198
_cell_volume                      1346.44831676

loop_
_atom_site_label
_atom_site_type_symbol
_atom_type_description
_atom_site_fract_x
_atom_site_fract_y
_atom_site_fract_z
_atom_type_partial_charge
C1    C     C_R   0.497777 0.259917 0.499483 0.887014
C2    C     C_R   0.456193 0.934415 0.375018 -0.217028
C3    C     C_R   0.480095 0.871287 0.499228 -0.136993
C4    C     C_R   0.298263 0.499716 0.473236 0.896430
C5    C     C_R   0.485614 0.936854 0.622504 0.142910
C6    C     C_3   0.564705 0.929615 0.747125 -0.025207
C7    C     C_3   0.570050 0.071712 0.743386 -0.480119
C8    C     C_R   0.412395 0.465653 0.057469 0.214063
C9    C     C_R   0.583386 0.544211 0.085235 -0.122350
C10   C     C_R   0.583574 0.543688 0.941371 -0.161841
C11   C     C_R   0.412235 0.465854 0.914852 0.229104
C12   C     C_R   0.027604 0.465278 0.555410 0.075023
C13   C     C_3   0.358761 0.341719 0.900873 -0.514214
C14   C     C_3   0.359305 0.341692 0.054751 -0.512327
C15   C     C_R   0.496541 0.739991 0.499900 0.880301
C16   C     C_R   0.701669 0.500202 0.526559 0.900730
C17   C     C_R   0.813459 0.495124 0.542188 -0.109948
C18   C     C_R   0.186225 0.501189 0.456132 -0.095193
C19   C     C_R   0.022996 0.564055 0.328632 0.228347
C20   C     C_R   0.131341 0.551438 0.338376 -0.242869
C21   C     C_R   0.135062 0.456823 0.562224 -0.284795
C22   C     C_3   0.013322 0.711712 0.133985 -0.809893
C23   C     C_R   0.971415 0.521851 0.438535 0.079923
C24   C     C_3   0.055822 0.436854 0.898249 -0.819421
C25   C     C_3   0.518048 0.879509 0.872006 -0.858378
C26   C     C_R   0.864590 0.537053 0.434808 -0.270786
C27   C     C_R   0.867773 0.439846 0.657242 -0.231872
C28   C     C_R   0.974979 0.422885 0.664656 0.229197
C29   C     C_R   0.489005 0.064597 0.621388 0.076385
C30   C     C_R   0.483202 0.128314 0.498078 -0.102094
C31   C     C_R   0.457527 0.063786 0.374543 -0.220916
H1    H     H_    0.820030 0.581489 0.347944 0.171119
H2    H     H_    0.410078 0.267851 0.106212 0.210137
H3    H     H_    0.826442 0.405135 0.738960 0.168532
H4    H     H_    0.173576 0.583034 0.256426 0.170672
H5    H     H_    0.180500 0.418570 0.651352 0.161627
H6    H     H_    0.445255 0.112013 0.277788 0.161852
H7    H     H_    0.443534 0.884788 0.278354 0.173628
H8    H     H_    0.917000 0.554620 0.151667 0.215155
H9    H     H_    0.952177 0.759087 0.063431 0.243988
H10   H     H_    0.070529 0.668558 0.072268 0.235270
H11   H     H_    0.052834 0.783190 0.204560 0.255969
H12   H     H_    0.638720 0.882792 0.727790 0.163131
H13   H     H_    0.083272 0.295629 0.759681 0.216422
H14   H     H_    0.088157 0.377831 0.985565 0.242363
H15   H     H_    0.986206 0.486885 0.927421 0.256938
H16   H     H_    0.116278 0.505874 0.876600 0.238361
H17   H     H_    0.575533 0.891596 0.964539 0.237549
H18   H     H_    0.444746 0.929547 0.887821 0.241040
H19   H     H_    0.499852 0.778587 0.858322 0.262854
H20   H     H_    0.540838 0.119569 0.831549 0.208684
H21   H     H_    0.646414 0.107512 0.717583 0.180115
H22   H     H_    0.651332 0.578447 0.150022 0.148855
H23   H     H_    0.651578 0.577468 0.898052 0.154777
H24   H     H_    0.278739 0.347817 0.845607 0.197571
H25   H     H_    0.408377 0.267507 0.863083 0.214241
H26   H     H_    0.279851 0.348290 0.087527 0.201688
N1    N     N_R   0.499290 0.499140 0.142710 -0.107904
N2    N     N_R   0.499290 0.499180 0.857070 -0.111093
N3    N     N_2   0.964779 0.616999 0.210038 -0.318601
N4    N     N_2   0.026511 0.358634 0.779832 -0.312817
O1    O     O_R   0.500010 0.316790 0.614690 -0.617217
O2    O     O_R   0.500000 0.316760 0.385350 -0.621437
O3    O     O_R   0.346360 0.499990 0.595720 -0.620555
O4    O     O_R   0.346350 0.499960 0.366370 -0.628139
O5    O     O_R   0.500000 0.683240 0.614650 -0.619415
O6    O     O_R   0.499990 0.683210 0.385310 -0.622524
O7    O     O_R   0.653650 0.500040 0.633630 -0.630159
O8    O     O_R   0.653640 0.500010 0.404280 -0.624948
Zn1   Zn    Zn3+2 0.500010 0.500020 0.653130 0.937937
Zn2   Zn    Zn3+2 0.499990 0.499980 0.346870 0.941150

loop_
_geom_bond_atom_site_label_1
_geom_bond_atom_site_label_2
_ccdc_geom_bond_type
C22   H11   S    
C19   C23   A    
C26   H1    S    
C29   C30   A    
C16   O7    A    
O3    Zn1   S    
H13   N4    S    
C18   C21   A    
C9    C10   A    
C2    H7    S    
C18   C20   A    
C19   C20   A    
C12   C23   A    
C30   C31   A    
C13   H25   S    
C24   H15   S    
C1    O1    A    
C13   H24   S    
C14   H2    S    
C2    C3    A    
C22   H9    S    
C21   H5    S    
O5    Zn1   S    
C13   C14   S    
C28   N4    S    
C11   C13   S    
C25   H17   S    
C6    C7    S    
C12   C21   A    
C12   C28   A    
C24   N4    S    
C11   N2    A    
C24   H14   S    
C1    O2    A    
O7    Zn1   S    
C1    C30   S    
O2    Zn2   S    
C7    H21   S    
C10   N2    A    
O6    Zn2   S    
C6    H12   S    
C8    C11   A    
C27   H3    S    
C22   N3    S    
C5    C6    S    
C10   H23   S    
C25   H18   S    
N1    Zn2   S    
C22   H10   S    
C9    H22   S    
C17   C26   A    
N2    Zn1   S    
C7    H20   S    
C7    C29   S    
C6    C25   S    
C5    C29   A    
C15   O6    A    
C3    C15   S    
C15   O5    A    
O1    Zn1   S    
H8    N3    S    
C9    N1    A    
C23   C26   A    
C27   C28   A    
O8    Zn2   S    
C14   H26   S    
C4    O3    A    
C4    O4    A    
C16   C17   S    
C19   N3    S    
C8    C14   S    
C8    N1    A    
C25   H19   S    
C24   H16   S    
C4    C18   S    
C20   H4    S    
C16   O8    A    
C31   H6    S    
O4    Zn2   S    
C2    C31   A    
C3    C5    A    
C17   C27   A    
