data_mof_unit_pretest_66.cif
_audit_creation_date              2012-12-10T16:42:54-0500
_audit_creation_method            fapswitch 2.2
_symmetry_space_group_name_H-M    P1
_symmetry_Int_Tables_number       1
_space_group_crystal_system       triclinic
_cell_length_a                    7.505805
_cell_length_b                    8.737797
_cell_length_c                    12.948309
_cell_angle_alpha                 86.751743
_cell_angle_beta                  78.897252
_cell_angle_gamma                 103.012332
_cell_volume                      807.457069252

loop_
_atom_site_label
_atom_site_type_symbol
_atom_type_description
_atom_site_fract_x
_atom_site_fract_y
_atom_site_fract_z
_atom_type_partial_charge
C1    C     C_R   0.452834 0.200181 0.505094 0.797241
C2    C     C_R   0.714435 0.471333 0.123182 -0.208250
C3    C     C_R   0.596530 0.481791 0.860590 -0.263823
C4    C     C_R   0.403470 0.518209 0.139410 -0.263823
C5    C     C_R   0.582117 0.486656 0.968672 0.176178
C6    C     C_R   0.417883 0.513344 0.031328 0.176178
C7    C     C_2   0.426109 0.032041 0.514801 0.145611
C8    C     C_2   0.573891 0.967959 0.485199 0.145611
C9    C     C_1   0.908811 0.340618 0.602973 0.593911
C10   C     C_1   0.091189 0.659382 0.397027 0.593911
C11   C     C_3   0.195437 0.929284 0.660159 0.091069
C12   C     C_R   0.547166 0.799819 0.494906 0.797241
C13   C     C_3   0.004521 0.815453 0.698200 -0.703800
C14   C     C_3   0.804562 0.070716 0.339841 0.091068
C15   C     C_3   0.995477 0.184547 0.301799 -0.703802
C16   C     C_R   0.466415 0.498177 0.701203 0.789268
C17   C     C_R   0.533585 0.501822 0.298797 0.789267
C18   C     C_R   0.551540 0.497960 0.185466 -0.035508
C19   C     C_R   0.448460 0.502040 0.814534 -0.035508
C20   C     C_R   0.270707 0.534873 0.984955 -0.222462
C21   C     C_R   0.729293 0.465127 0.015044 -0.222461
C22   C     C_R   0.285565 0.528667 0.876817 -0.208249
Cu1   Cu    Cu3+1 0.686350 0.517570 0.488220 0.953857
Cu2   Cu    Cu3+1 0.313650 0.482430 0.511780 0.953857
H1    H     H_    0.277162 0.538261 0.187366 0.152088
H2    H     H_    0.963138 0.807173 0.785806 0.178874
H3    H     H_    0.897954 0.857653 0.663226 0.265531
H4    H     H_    0.701561 0.116885 0.303287 0.119192
H5    H     H_    0.812926 0.953519 0.312455 0.143527
H6    H     H_    0.102045 0.142349 0.336773 0.265532
H7    H     H_    0.036861 0.192827 0.214193 0.178874
H8    H     H_    0.990080 0.303833 0.325472 0.241683
H9    H     H_    0.722838 0.461739 0.812634 0.152088
H10   H     H_    0.828961 0.453202 0.158243 0.150632
H11   H     H_    0.171039 0.546798 0.841757 0.150632
H12   H     H_    0.145337 0.557244 0.032163 0.136585
H13   H     H_    0.854663 0.442756 0.967836 0.136585
H14   H     H_    0.187073 0.046481 0.687544 0.143527
H15   H     H_    0.298438 0.883114 0.696713 0.119192
H16   H     H_    0.009918 0.696168 0.674527 0.241683
N1    N     N_2   0.033570 0.455950 0.529530 -0.224126
N2    N     N_2   0.966430 0.544050 0.470470 -0.224126
N3    N     N_1   0.806672 0.243546 0.664710 -0.368351
N4    N     N_1   0.193328 0.756454 0.335290 -0.368351
O1    O     O_R   0.621060 0.286250 0.492350 -0.560286
O2    O     O_3   0.755624 0.059529 0.451443 -0.558641
O3    O     O_R   0.378940 0.713750 0.507650 -0.560286
O4    O     O_R   0.306310 0.256580 0.512240 -0.571890
O5    O     O_R   0.693690 0.743420 0.487760 -0.571890
O6    O     O_R   0.631800 0.512400 0.642670 -0.606151
O7    O     O_R   0.368200 0.487600 0.357330 -0.606151
O8    O     O_R   0.317060 0.482730 0.662570 -0.611960
O9    O     O_R   0.682940 0.517270 0.337430 -0.611960
O10   O     O_3   0.244376 0.940471 0.548557 -0.558641

loop_
_geom_bond_atom_site_label_1
_geom_bond_atom_site_label_2
_ccdc_geom_bond_type
Cu2   O8    S    
C11   H14   S    
Cu1   Cu2   S    
C1    O4    A    
C3    C19   A    
Cu1   O1    S    
C17   O9    A    
C10   N2    S    
C6    C20   A    
N1    N2    D    
C9    N1    S    
C8    C12   S    
C4    C18   A    
C17   O7    A    
C2    C21   A    
C17   C18   S    
C3    C5    A    
C5    C21   A    
C15   H8    S    
C14   O2    S    
C11   H15   S    
C22   H11   S    
C11   C13   S    
C1    O1    A    
Cu1   N2    S    
Cu2   N1    S    
Cu2   O7    S    
C16   C19   S    
Cu1   O9    S    
C11   O10   S    
C16   O6    A    
C12   O5    A    
C12   O3    A    
C5    C6    A    
C8    O2    S    
C13   H2    S    
C9    N3    T    
Cu1   O5    S    
C3    H9    S    
C14   H5    S    
C10   N4    T    
Cu2   O4    S    
C4    H1    S    
C7    C8    D    
C19   C22   A    
C21   H13   S    
C15   H6    S    
C4    C6    A    
C14   C15   S    
C13   H3    S    
C13   H16   S    
C7    O10   S    
C14   H4    S    
C2    H10   S    
C1    C7    S    
Cu2   O3    S    
C15   H7    S    
C16   O8    A    
C20   C22   A    
C2    C18   A    
Cu1   O6    S    
C20   H12   S    
