data_mof_unit_pretest_1082.cif
_audit_creation_date              2012-12-11T15:27:38-0500
_audit_creation_method            fapswitch 2.2
_symmetry_space_group_name_H-M    P1
_symmetry_Int_Tables_number       1
_space_group_crystal_system       triclinic
_cell_length_a                    23.236354
_cell_length_b                    7.298787
_cell_length_c                    15.092168
_cell_angle_alpha                 90.250043
_cell_angle_beta                  108.221484
_cell_angle_gamma                 89.800666
_cell_volume                      2431.20929187

loop_
_atom_site_label
_atom_site_type_symbol
_atom_type_description
_atom_site_fract_x
_atom_site_fract_y
_atom_site_fract_z
_atom_type_partial_charge
O1    O     O_R   0.711000 0.648610 0.341170 -0.535738
O2    O     O_R   0.289000 0.351390 0.658830 -0.535727
O3    O     O_R   0.789000 0.148610 0.158830 -0.534649
O4    O     O_R   0.211000 0.851390 0.841170 -0.534647
O5    O     O_R   0.829650 0.322030 0.336650 -0.537108
O6    O     O_R   0.170350 0.677970 0.663350 -0.537113
O7    O     O_R   0.670350 0.822030 0.163350 -0.537131
O8    O     O_R   0.329650 0.177970 0.836650 -0.537136
C1    C     C_R   0.854249 0.485759 0.356864 0.714836
C2    C     C_R   0.145750 0.514241 0.643136 0.714836
C3    C     C_R   0.645747 0.985844 0.143125 0.715171
C4    C     C_R   0.354253 0.014156 0.856875 0.715170
O9    O     O_R   0.713950 0.319280 0.352070 -0.538732
O10   O     O_R   0.286050 0.680720 0.647930 -0.538739
O11   O     O_R   0.786050 0.819280 0.147930 -0.540019
O12   O     O_R   0.213950 0.180720 0.852070 -0.540026
O13   O     O_R   0.672470 0.142870 0.174360 -0.532892
O14   O     O_R   0.327530 0.857130 0.825640 -0.532890
O15   O     O_R   0.827530 0.642870 0.325640 -0.532861
O16   O     O_R   0.172470 0.357130 0.674360 -0.532855
C5    C     C_R   0.702129 0.488008 0.376394 0.679719
C6    C     C_R   0.297872 0.511993 0.623607 0.679720
C7    C     C_R   0.797881 0.987044 0.123562 0.679888
C8    C     C_R   0.202120 0.012955 0.876438 0.679889
O17   O     O_3   0.736530 0.478650 0.191680 -0.377662
O18   O     O_3   0.263470 0.521350 0.808320 -0.377664
O19   O     O_3   0.763470 0.978650 0.308320 -0.377884
O20   O     O_3   0.236530 0.021350 0.691680 -0.377879
V1    V     V_3+5 0.752500 0.206170 0.260820 1.418576
V2    V     V_3+5 0.247500 0.793830 0.739180 1.418570
V3    V     V_3+5 0.747500 0.706170 0.239180 1.417222
V4    V     V_3+5 0.252500 0.293830 0.760820 1.417230
C9    C     C_R   0.826300 0.992959 0.049654 -0.082371
C10   C     C_R   0.173700 0.007037 0.950346 -0.082367
C11   C     C_R   0.673628 0.498398 0.450117 -0.082074
C12   C     C_R   0.326373 0.501618 0.549885 -0.082058
C13   C     C_R   0.822501 0.978655 0.887960 -0.158896
C14   C     C_R   0.177497 0.021352 0.112039 -0.158939
C15   C     C_R   0.677293 0.536909 0.610839 -0.159184
C16   C     C_R   0.322701 0.463444 0.389141 -0.159206
C17   C     C_R   0.791672 0.980765 0.954650 0.125505
C18   C     C_R   0.208326 0.019284 0.045349 0.125509
C19   C     C_R   0.708158 0.524230 0.544392 0.125104
C20   C     C_R   0.291837 0.476091 0.455591 0.125111
C21   C     C_R   0.889472 0.002762 0.076606 -0.234031
C22   C     C_R   0.110529 0.997170 0.923392 -0.234028
C23   C     C_R   0.610521 0.486311 0.423563 -0.233876
C24   C     C_R   0.389486 0.513495 0.576453 -0.233874
C25   C     C_R   0.920937 0.998157 0.010344 0.082253
C26   C     C_R   0.079064 0.001745 0.989653 0.082259
C27   C     C_R   0.579020 0.500767 0.489511 0.082350
C28   C     C_R   0.420982 0.499233 0.510491 0.082353
C29   C     C_R   0.886028 0.985850 0.914968 0.095833
C30   C     C_R   0.113972 0.014079 0.085030 0.095824
C31   C     C_R   0.613827 0.526304 0.584208 0.095650
C32   C     C_R   0.386171 0.473892 0.415782 0.095657
C33   C     C_R   0.985690 0.003618 0.035623 0.066883
C34   C     C_R   0.014310 0.996247 0.964374 0.066883
C35   C     C_R   0.514332 0.491617 0.464552 0.066831
C36   C     C_R   0.485669 0.508410 0.535448 0.066829
C37   C     C_R   0.977211 0.984028 0.870327 -0.182369
C38   C     C_R   0.022789 0.015809 0.129671 -0.182367
C39   C     C_R   0.522660 0.533607 0.628834 -0.182201
C40   C     C_R   0.477338 0.466565 0.371156 -0.182202
C41   C     C_R   0.914587 0.979343 0.846523 -0.195000
C42   C     C_R   0.085412 0.020533 0.153475 -0.195002
C43   C     C_R   0.585224 0.542080 0.652324 -0.195233
C44   C     C_R   0.414772 0.458195 0.347659 -0.195235
H1    H     H_    0.087523 0.989157 0.849528 0.106969
H2    H     H_    0.912478 0.010754 0.150471 0.106967
H3    H     H_    0.412407 0.532303 0.649816 0.106764
H4    H     H_    0.587606 0.467180 0.350221 0.106776
H5    H     H_    0.797629 0.969848 0.814378 0.123949
H6    H     H_    0.202368 0.030192 0.185622 0.123966
H7    H     H_    0.702095 0.555959 0.683912 0.123828
H8    H     H_    0.297895 0.444573 0.316056 0.123834
C45   C     C_1   0.416735 0.006880 0.918843 -0.190610
C46   C     C_1   0.583265 0.993120 0.081157 -0.190609
C47   C     C_1   0.083266 0.507082 0.581158 -0.190542
C48   C     C_1   0.916734 0.492918 0.418842 -0.190542
C49   C     C_1   0.469131 0.002353 0.970017 0.001818
C50   C     C_1   0.530869 0.997647 0.029983 0.001819
C51   C     C_1   0.030870 0.502452 0.529983 0.001759
C52   C     C_1   0.969130 0.497548 0.470016 0.001759
H9    H     H_    0.888185 0.969580 0.773370 0.124966
H10   H     H_    0.111813 0.030295 0.226628 0.124963
H11   H     H_    0.611542 0.561817 0.724958 0.125368
H12   H     H_    0.388450 0.438618 0.275015 0.125365
C53   C     C_3   0.277196 0.030249 0.072244 -0.355925
C54   C     C_3   0.311291 0.040603 0.176830 -0.764465
H13   H     H_    0.297963 0.165680 0.207847 0.219475
H14   H     H_    0.302387 0.916503 0.212824 0.230142
H15   H     H_    0.360751 0.047720 0.187599 0.223419
H16   H     H_    0.293970 0.907788 0.043679 0.171172
H17   H     H_    0.289455 0.153352 0.038990 0.177490
C55   C     C_3   0.722802 0.969894 0.927755 -0.355915
C56   C     C_3   0.688703 0.959690 0.823168 -0.764481
H18   H     H_    0.697639 0.083801 0.787212 0.230158
H19   H     H_    0.701998 0.834612 0.792111 0.219453
H20   H     H_    0.639242 0.952679 0.812399 0.223422
H21   H     H_    0.710525 0.846771 0.960974 0.177468
H22   H     H_    0.706049 0.092345 0.956360 0.171187
C57   C     C_3   0.223036 0.462887 0.429193 -0.355870
C58   C     C_3   0.189082 0.435103 0.325409 -0.763598
H23   H     H_    0.197078 0.552404 0.284107 0.229506
H24   H     H_    0.203359 0.304999 0.299953 0.219992
H25   H     H_    0.139681 0.426942 0.314979 0.223500
H26   H     H_    0.211446 0.346590 0.467756 0.177750
H27   H     H_    0.205556 0.590455 0.452243 0.170820
C59   C     C_3   0.776952 0.537705 0.570774 -0.355813
C60   C     C_3   0.810900 0.565739 0.674543 -0.763652
H28   H     H_    0.796568 0.695826 0.699935 0.219949
H29   H     H_    0.802960 0.448465 0.715908 0.229538
H30   H     H_    0.860297 0.574086 0.684962 0.223485
H31   H     H_    0.794488 0.410169 0.547788 0.170754
H32   H     H_    0.788488 0.653994 0.532149 0.177830
H33   H     H_    0.994872 0.977353 0.812488 0.123178
H34   H     H_    0.005129 0.022442 0.187511 0.123180
H35   H     H_    0.504966 0.547757 0.686383 0.123246
H36   H     H_    0.495029 0.452567 0.313596 0.123242

loop_
_geom_bond_atom_site_label_1
_geom_bond_atom_site_label_2
_ccdc_geom_bond_type
O17   V3    S    
O1    C5    A    
C55   H22   S    
O19   V1    S    
C9    C21   A    
O3    C7    A    
C60   H28   S    
C10   C18   A    
C48   C52   T    
O15   V3    S    
C58   H24   S    
C49   C50   S    
C54   H13   S    
C25   C33   A    
C33   C38   A    
O7    C3    A    
C35   C40   A    
C26   C30   A    
C36   C39   A    
C40   C44   A    
O9    V1    S    
C14   C18   A    
C14   H6    S    
O4    C8    A    
C17   C55   S    
O1    V3    S    
O13   V1    S    
C31   C43   A    
O2    V4    S    
C53   H16   S    
O3    V1    S    
C59   C60   S    
C22   H1    S    
C28   C36   A    
C1    O15   A    
C15   C31   A    
C2    O16   A    
C7    C9    S    
O2    C6    A    
C57   H26   S    
C10   C22   A    
C19   C59   S    
C21   C25   A    
C11   C19   A    
C16   C20   A    
C13   C29   A    
C34   C37   A    
O11   C7    A    
C11   C23   A    
C35   C36   A    
O12   C8    A    
C55   H21   S    
C4    C45   S    
O10   V2    S    
C58   H23   S    
C56   H19   S    
C20   C57   S    
C56   H18   S    
O5    V1    S    
C39   C43   A    
O7    V3    S    
C38   C42   A    
C37   H33   S    
C26   C34   A    
O18   V4    S    
C23   C27   A    
C16   C32   A    
C32   C44   A    
C8    C10   S    
C16   H8    S    
C1    C48   S    
O8    V4    S    
C53   H17   S    
O5    C1    A    
C3    C46   S    
C39   H35   S    
C46   C50   T    
C54   H14   S    
C51   C52   S    
C14   C30   A    
C45   C49   T    
O8    C4    A    
C55   C56   S    
O9    C5    A    
C60   H29   S    
O11   V3    S    
O14   V2    S    
O6    V2    S    
C15   H7    S    
C44   H12   S    
C12   C20   A    
C27   C35   A    
C24   H3    S    
C59   H32   S    
C56   H20   S    
C29   C41   A    
C54   H15   S    
O16   V4    S    
C13   H5    S    
C3    O13   A    
C21   H2    S    
C42   H10   S    
C15   C19   A    
C2    C47   S    
C41   H9    S    
C30   C42   A    
O12   V4    S    
C6    C12   S    
C22   C26   A    
C43   H11   S    
C40   H36   S    
C57   H27   S    
C18   C53   S    
C9    C17   A    
O10   C6    A    
O20   V2    S    
C5    C11   S    
C47   C51   T    
C33   C34   A    
C25   C29   A    
C12   C24   A    
C60   H30   S    
C27   C31   A    
C13   C17   A    
C23   H4    S    
C38   H34   S    
O6    C2    A    
C37   C41   A    
C24   C28   A    
C4    O14   A    
C57   C58   S    
C53   C54   S    
C59   H31   S    
C58   H25   S    
O4    V2    S    
C28   C32   A    
