data_mof_unit_pretest_1166.cif
_audit_creation_date              2013-03-05T15:54:49-0500
_audit_creation_method            fapswitch 2.2
_symmetry_space_group_name_H-M    P1
_symmetry_Int_Tables_number       1
_space_group_crystal_system       triclinic
_cell_length_a                    19.140283
_cell_length_b                    10.726125
_cell_length_c                    9.907137
_cell_angle_alpha                 89.737376
_cell_angle_beta                  90.562343
_cell_angle_gamma                 91.727637
_cell_volume                      2032.9046195

loop_
_atom_site_label
_atom_site_type_symbol
_atom_site_description
_atom_site_fract_x
_atom_site_fract_y
_atom_site_fract_z
_atom_type_partial_charge
O1    O     O_R   0.500000 0.316780 0.614690 -0.660895
O2    O     O_R   0.499990 0.316750 0.385360 -0.632144
C1    C     C_R   0.505695 0.260320 0.501089 0.924533
O3    O     O_R   0.398140 0.500000 0.614700 -0.645798
O4    O     O_R   0.398130 0.499970 0.385370 -0.636801
C2    C     C_R   0.365507 0.502542 0.499085 0.847732
Zn1   Zn    Zn3+2 0.500000 0.500020 0.653130 0.930645
Zn2   Zn    Zn3+2 0.500000 0.499980 0.346870 1.003796
O5    O     O_R   0.500010 0.683250 0.614640 -0.628166
O6    O     O_R   0.500000 0.683220 0.385310 -0.553532
O7    O     O_R   0.601870 0.500030 0.614630 -0.623969
O8    O     O_R   0.601860 0.500000 0.385300 -0.586074
C3    C     C_R   0.492118 0.739017 0.499562 0.912680
C4    C     C_R   0.634281 0.498146 0.500584 0.929805
C5    C     C_R   0.251956 0.522647 0.613756 -0.205413
H1    H     H_    0.276559 0.507077 0.711094 0.168771
C6    C     C_R   0.181013 0.544384 0.608051 -0.185004
H2    H     H_    0.151675 0.541772 0.701065 0.162165
C7    C     C_R   0.147609 0.563502 0.483336 0.011314
C8    C     C_R   0.186111 0.565891 0.362250 0.237350
C9    C     C_R   0.257508 0.541883 0.369836 -0.194908
H3    H     H_    0.288360 0.543007 0.279069 0.182942
C10   C     C_R   0.290296 0.519700 0.494630 -0.078214
N1    N     N_R   0.035485 0.507501 0.379931 -0.145294
N2    N     N_R   0.966317 0.499311 0.382261 -0.166300
C11   C     C_R   0.930824 0.548612 0.485806 0.314806
N3    N     N_R   0.966949 0.607930 0.586331 -0.170258
N4    N     N_R   0.036300 0.616173 0.584017 -0.170314
C12   C     C_R   0.071597 0.566173 0.480481 0.273983
C13   C     C_R   0.817376 0.590961 0.592591 -0.134495
H4    H     H_    0.843410 0.650220 0.666935 0.165705
C14   C     C_R   0.745360 0.574835 0.597595 -0.223351
H5    H     H_    0.716933 0.623804 0.674065 0.170717
C15   C     C_R   0.710068 0.500283 0.501679 -0.155379
C16   C     C_R   0.747538 0.437151 0.402346 0.315401
C17   C     C_R   0.819768 0.455915 0.396855 -0.213715
H6    H     H_    0.848572 0.407361 0.320733 0.192786
C18   C     C_R   0.854907 0.532854 0.491224 0.019096
H7    H     H_    0.504148 0.115947 0.286439 0.185504
C19   C     C_R   0.529730 0.109306 0.752266 -0.186202
H8    H     H_    0.562680 0.192595 0.756035 0.179041
C20   C     C_R   0.509248 0.051419 0.873539 0.274593
C21   C     C_R   0.467549 0.942460 0.867396 -0.166221
H9    H     H_    0.447147 0.900049 0.958551 0.215370
C22   C     C_R   0.454835 0.883734 0.744178 -0.186512
H10   H     H_    0.423367 0.798207 0.744142 0.178099
C23   C     C_R   0.480990 0.936830 0.623344 0.054633
C24   C     C_R   0.507862 0.059039 0.626586 0.043624
C25   C     C_R   0.510215 0.126420 0.503755 -0.134356
C26   C     C_R   0.502153 0.065228 0.380712 -0.261250
C27   C     C_R   0.489083 0.938967 0.376820 0.326606
C28   C     C_R   0.482166 0.872369 0.499193 -0.244576
H11   H     H_    0.580708 0.636088 0.126118 0.180346
C29   C     C_R   0.406360 0.340073 0.139290 -0.177747
H12   H     H_    0.404055 0.333121 0.246287 0.204314
C30   C     C_R   0.360079 0.261454 0.068623 -0.216764
H13   H     H_    0.324319 0.199663 0.122781 0.165596
C31   C     C_R   0.360617 0.260330 0.928942 -0.197900
H14   H     H_    0.325281 0.197654 0.874197 0.158340
C32   C     C_R   0.407060 0.338489 0.859092 -0.151570
H15   H     H_    0.405215 0.330342 0.752152 0.206610
C33   C     C_R   0.453792 0.421168 0.927235 0.149164
C34   C     C_R   0.453668 0.421504 0.071883 0.165584
N5    N     N_R   0.499340 0.498800 0.142780 -0.125147
C35   C     C_R   0.544340 0.575042 0.071966 -0.012553
H16   H     H_    0.580232 0.636959 0.875374 0.161782
C36   C     C_R   0.544171 0.575329 0.928830 -0.114562
N6    N     N_R   0.499320 0.498720 0.857170 -0.136236
N7    N     N_2   0.526245 0.103306 0.002207 -0.288753
H17   H     H_    0.483675 0.119924 0.061391 0.233142
C37   C     C_3   0.585006 0.190510 0.016469 -0.633463
H18   H     H_    0.595611 0.207405 0.125182 0.287486
H19   H     H_    0.573338 0.280939 0.967990 0.207642
H20   H     H_    0.632463 0.151435 0.971282 0.255918
N8    N     N_R   0.481348 0.880878 0.247567 0.201968
O9    O     O_R   0.422361 0.825840 0.213133 -0.433276
O10   O     O_R   0.534201 0.879269 0.166184 -0.416382
N9    N     N_2   0.152303 0.594465 0.236390 -0.294211
H21   H     H_    0.117391 0.665729 0.240662 0.235946
C38   C     C_3   0.190110 0.588814 0.110727 -0.768894
H22   H     H_    0.153675 0.604790 0.024880 0.244549
H23   H     H_    0.212263 0.495089 0.097929 0.247998
H24   H     H_    0.232234 0.662329 0.108157 0.245649
N10   N     N_R   0.713643 0.350610 0.310632 0.205211
O11   O     O_R   0.666357 0.271076 0.354522 -0.420608
O12   O     O_R   0.736886 0.338735 0.188495 -0.401738

loop_
_geom_bond_atom_site_label_1
_geom_bond_atom_site_label_2
_geom_bond_distance
_ccdc_geom_bond_type
C19   H8    1.078480 S    
C7    C8    1.413762 A    
N8    O9    1.301423 A    
C1    C25   1.441538 S    
C22   H10   1.082140 S    
Zn1   O7    1.990443 S    
C11   N3    1.356653 A    
N4    C12   1.355262 A    
N10   O12   1.301423 A    
C38   H24   1.111021 S    
C13   H4    1.082962 S    
O7    C4    1.294826 A    
N9    C38   1.448543 S    
C29   C34   1.409827 A    
C31   C32   1.390589 A    
C5    H1    1.083483 S    
C30   H13   1.082705 S    
C13   C18   1.399961 A    
C32   C33   1.409992 A    
C15   C16   1.410894 A    
N7    C37   1.447233 S    
C19   C24   1.413699 A    
N1    C12   1.353565 A    
O5    C3    1.294702 A    
Zn1   N6    2.021602 S    
C16   C17   1.392621 A    
C35   C36   1.418022 A    
H11   C35   1.081448 S    
C5    C10   1.396832 A    
H16   C36   1.081815 S    
C9    H3    1.080453 S    
O3    Zn1   1.982782 S    
C6    H2    1.083615 S    
C22   C23   1.412931 A    
C29   C30   1.390741 A    
C27   C28   1.409666 A    
N1    N2    1.324576 A    
C38   H23   1.111053 S    
C37   H19   1.108169 S    
N9    H21   1.031619 S    
C11   C18   1.459298 S    
N2    C11   1.354178 A    
C20   N7    1.424067 S    
C36   N6    1.366403 A    
C32   H15   1.063620 S    
O1    C1    1.287600 A    
C14   C15   1.400189 A    
C21   H9    1.080480 S    
C33   C34   1.433098 A    
O4    Zn2   1.990447 S    
C3    C28   1.448647 S    
N8    O10   1.300358 A    
C23   C24   1.394011 A    
Zn2   O8    1.982780 S    
C26   C27   1.370414 A    
N10   O11   1.301453 A    
C21   C22   1.392190 A    
Zn2   N5    2.021958 S    
O3    C2    1.299823 A    
C24   C25   1.412905 A    
O8    C4    1.294830 A    
C9    C10   1.403607 A    
C20   C21   1.396438 A    
C7    C12   1.456018 S    
C5    C6    1.385228 A    
C29   H12   1.063566 S    
C17   H6    1.083049 S    
O1    Zn1   2.003724 S    
O2    Zn2   2.000276 S    
C27   N8    1.431053 S    
C38   H22   1.110537 S    
O6    C3    1.295054 A    
C4    C15   1.450000 S    
C37   H20   1.110773 S    
C16   N10   1.438044 S    
C23   C28   1.414454 A    
C8    N9    1.435299 S    
C33   N6    1.376964 A    
C14   H5    1.083914 S    
C17   C18   1.403121 A    
O2    C1    1.299239 A    
C31   H14   1.082717 S    
C37   H18   1.108747 S    
N5    C35   1.366370 A    
C13   C14   1.385371 A    
O4    C2    1.294211 A    
C2    C10   1.456979 S    
C19   C20   1.403737 A    
C6    C7    1.402697 A    
C30   C31   1.384088 A    
N7    H17   1.028856 S    
C34   N5    1.376405 A    
Zn1   O5    2.000279 S    
H7    C26   1.079129 S    
C8    C9    1.399460 A    
Zn2   O6    2.003723 S    
C25   C26   1.392160 A    
N3    N4    1.328089 A    
