data_mof_unit_pretest_366.cif
_audit_creation_date              2012-12-10T19:27:31-0500
_audit_creation_method            fapswitch 2.2
_symmetry_space_group_name_H-M    P1
_symmetry_Int_Tables_number       1
_space_group_crystal_system       triclinic
_cell_length_a                    23.362273
_cell_length_b                    10.488837
_cell_length_c                    9.781077
_cell_angle_alpha                 90.35767
_cell_angle_beta                  90.805009
_cell_angle_gamma                 90.10187
_cell_volume                      2396.49773873

loop_
_atom_site_label
_atom_site_type_symbol
_atom_type_description
_atom_site_fract_x
_atom_site_fract_y
_atom_site_fract_z
_atom_type_partial_charge
C1    C     C_R   0.499995 0.257771 0.499540 0.870104
C2    C     C_R   0.499636 0.742229 0.500453 0.879245
C3    C     C_R   0.238613 0.593954 0.542211 0.397191
C4    C     C_R   0.758756 0.382647 0.469491 0.402711
C5    C     C_R   0.297953 0.594464 0.543246 -0.350654
C6    C     C_R   0.699535 0.389412 0.467918 -0.347883
C7    C     C_R   0.328176 0.488777 0.496897 -0.119005
C8    C     C_R   0.672002 0.502331 0.502576 -0.128492
C9    C     C_R   0.299621 0.377392 0.450600 0.171218
C10   C     C_R   0.703022 0.613730 0.536578 0.163158
C11   C     C_R   0.239244 0.375735 0.449007 0.164401
C12   C     C_R   0.763433 0.607920 0.540688 0.161994
C13   C     C_R   0.209246 0.484633 0.494876 0.126590
C14   C     C_R   0.790728 0.491731 0.506307 0.124286
C15   C     C_3   0.546500 0.041531 0.563047 0.209432
C16   C     C_3   0.452102 0.958293 0.436942 0.214915
C17   C     C_3   0.545898 0.956801 0.434170 -0.210686
C18   C     C_3   0.452673 0.043395 0.565687 -0.212888
C19   C     C_3   0.499162 0.877108 0.501236 -0.027770
C20   C     C_3   0.499557 0.122909 0.498709 -0.029068
C21   C     C_3   0.500294 0.960000 0.630993 -0.186322
C22   C     C_3   0.498257 0.040024 0.368946 -0.187785
C23   C     C_R   0.389857 0.497688 0.499108 0.904334
C24   C     C_R   0.610158 0.501428 0.500793 0.913198
C25   C     C_3   0.460784 0.426766 0.045481 0.270567
C26   C     C_3   0.539175 0.573168 0.954678 0.273175
C27   C     C_3   0.508940 0.386302 0.950576 -0.124375
C28   C     C_3   0.491016 0.613639 0.049465 -0.124658
C29   C     C_3   0.451317 0.539572 0.949744 -0.105145
C30   C     C_3   0.548643 0.460348 0.050296 -0.106843
C31   C     C_R   0.878353 0.523469 0.385803 0.620039
C32   C     C_R   0.121605 0.442379 0.611909 0.631196
C33   C     C_R   0.880953 0.448700 0.615996 0.629110
C34   C     C_R   0.118913 0.518429 0.382223 0.610454
C35   C     C_R   0.940518 0.445164 0.615736 -0.092498
C36   C     C_R   0.059336 0.517995 0.381053 -0.078514
C37   C     C_R   0.969753 0.481935 0.497368 -0.051889
C38   C     C_R   0.030116 0.480155 0.499046 -0.043655
C39   C     C_R   0.938690 0.521059 0.378230 -0.137485
C40   C     C_R   0.061200 0.441135 0.618222 -0.159124
C41   C     C_R   0.970776 0.406146 0.732285 -0.125045
C42   C     C_R   0.029070 0.555020 0.263762 -0.192393
C43   C     C_R   0.030390 0.403523 0.736577 0.448480
C44   C     C_R   0.969429 0.556326 0.258993 0.462559
H1    H     H_    0.947438 0.377520 0.821718 0.263518
H2    H     H_    0.052418 0.583345 0.174194 0.259148
H3    H     H_    0.516028 0.290647 0.904663 0.138148
H4    H     H_    0.483943 0.709293 0.095398 0.138279
H5    H     H_    0.410311 0.571969 0.903048 0.155409
H6    H     H_    0.589651 0.427982 0.097007 0.151708
H7    H     H_    0.321122 0.677943 0.579489 0.189553
H8    H     H_    0.674361 0.306513 0.439155 0.185069
H9    H     H_    0.583745 0.919053 0.380109 0.157289
H10   H     H_    0.414648 0.082918 0.617870 0.161471
H11   H     H_    0.501545 0.924231 0.737603 0.153452
H12   H     H_    0.496991 0.075753 0.262326 0.153538
N1    N     N_R   0.851669 0.486317 0.502232 -0.347680
N2    N     N_R   0.148231 0.482913 0.496742 -0.346937
N3    N     N_3   0.499960 0.500030 0.863290 -0.090161
N4    N     N_3   0.500040 0.499970 0.136710 -0.089759
O1    O     O_R   0.500000 0.313960 0.616610 -0.617917
O2    O     O_R   0.500000 0.686040 0.383390 -0.620370
O3    O     O_R   0.500030 0.313950 0.383350 -0.631087
O4    O     O_R   0.499970 0.686050 0.616650 -0.628845
O5    O     O_R   0.416140 0.499970 0.616650 -0.609634
O6    O     O_R   0.583860 0.500030 0.383350 -0.612362
O7    O     O_R   0.416170 0.499960 0.383400 -0.610321
O8    O     O_R   0.583830 0.500040 0.616600 -0.610211
O9    O     O_2   0.845749 0.563219 0.279984 -0.466843
O10   O     O_2   0.154335 0.403690 0.717962 -0.435147
O11   O     O_2   0.852121 0.415868 0.729260 -0.489738
O12   O     O_2   0.147761 0.554014 0.269939 -0.509122
Zn1   Zn    Zn3+2 0.499980 0.500010 0.655740 0.948145
Zn2   Zn    Zn3+2 0.500020 0.499990 0.344260 0.945545
C45   C     C_3   0.414235 0.340278 0.099903 -0.850298
H13   H     H_    0.392597 0.290272 0.013197 0.229830
H14   H     H_    0.433193 0.268431 0.169642 0.244106
H15   H     H_    0.382087 0.397936 0.154930 0.266456
C46   C     C_3   0.585817 0.659575 0.901066 -0.859532
H16   H     H_    0.607004 0.710109 0.988051 0.230287
H17   H     H_    0.618257 0.601506 0.847523 0.259368
H18   H     H_    0.567003 0.730968 0.830567 0.242040
S1    S     S_3+6 0.062248 0.353767 0.894020 0.110284
O13   O     O_2   0.097225 0.235687 0.870416 -0.213010
O14   O     O_2   0.100104 0.458333 0.950054 -0.202082
O15   O     O_3   0.012016 0.320496 0.010250 -0.528516
H19   H     H_    0.033628 0.303020 0.095939 0.384356
S2    S     S_3+6 0.937242 0.601564 0.100196 0.102401
O16   O     O_2   0.981871 0.626359 0.994257 -0.269944
O17   O     O_2   0.898504 0.496386 0.049294 -0.221778
O18   O     O_3   0.899066 0.735747 0.122557 -0.472650
H20   H     H_    0.879046 0.749538 0.033941 0.394000
S3    S     S_3+6 0.201804 0.730882 0.601229 0.074286
O19   O     O_2   0.168707 0.697263 0.726598 -0.181730
O20   O     O_2   0.243070 0.836566 0.636757 -0.297770
O21   O     O_3   0.155702 0.782231 0.480231 -0.502317
H21   H     H_    0.179860 0.802518 0.400814 0.369777
S4    S     S_3+6 0.792125 0.236861 0.424561 0.062594
O22   O     O_2   0.825332 0.187582 0.545717 -0.217463
O23   O     O_2   0.748363 0.138594 0.381855 -0.304889
O24   O     O_3   0.837587 0.260008 0.295315 -0.486794
H22   H     H_    0.813611 0.294849 0.220090 0.382194
C47   C     C_3   0.332373 0.259302 0.407317 -0.903010
H23   H     H_    0.379376 0.269690 0.416578 0.232534
H24   H     H_    0.320428 0.177665 0.472735 0.253774
H25   H     H_    0.322113 0.235597 0.298998 0.253283
C48   C     C_3   0.670741 0.736848 0.561578 -0.873652
H26   H     H_    0.644068 0.758631 0.470079 0.227729
H27   H     H_    0.642377 0.726293 0.650450 0.238505
H28   H     H_    0.698411 0.820752 0.581526 0.262057
C49   C     C_3   0.207293 0.257706 0.399806 -0.732314
H29   H     H_    0.218636 0.175375 0.465488 0.258767
H30   H     H_    0.160142 0.267719 0.402210 0.228985
H31   H     H_    0.218810 0.235923 0.292480 0.250904
C50   C     C_3   0.798509 0.724374 0.580437 -0.725037
H32   H     H_    0.845144 0.706084 0.586313 0.231053
H33   H     H_    0.785669 0.758736 0.683119 0.242771
H34   H     H_    0.791593 0.800813 0.503977 0.271162
C51   C     C_3   0.600253 0.090536 0.635468 -0.853943
H35   H     H_    0.625839 0.008719 0.673443 0.249223
H36   H     H_    0.626215 0.146257 0.563091 0.246634
H37   H     H_    0.588369 0.152169 0.723188 0.242790
C52   C     C_3   0.398432 0.907368 0.365563 -0.875272
H38   H     H_    0.371971 0.988186 0.328634 0.249872
H39   H     H_    0.410496 0.846804 0.277139 0.246440
H40   H     H_    0.373272 0.849780 0.438204 0.243221

loop_
_geom_bond_atom_site_label_1
_geom_bond_atom_site_label_2
_ccdc_geom_bond_type
C33   O11   S    
O24   H22   S    
C4    S4    S    
C18   C21   S    
C43   S1    S    
S2    O17   D    
C36   C42   A    
C49   H29   S    
C32   N2    A    
C52   H38   S    
C29   H5    S    
S3    O19   D    
C28   C29   S    
C35   C37   A    
C16   C52   S    
C52   H39   S    
C50   H32   S    
O6    Zn2   S    
O5    Zn1   S    
C15   C17   S    
C42   H2    S    
C23   O7    A    
C8    C24   S    
C47   H24   S    
C40   C43   A    
C29   N3    S    
C15   C51   S    
C50   H33   S    
C30   N4    S    
C16   C22   S    
C48   H26   S    
C25   N4    S    
C47   H25   S    
C26   N3    S    
N3    Zn1   S    
C18   C20   S    
C3    C13   A    
C24   O6    A    
C12   C50   S    
C28   N4    S    
C30   H6    S    
S3    O20   D    
C27   C30   S    
C48   H27   S    
C10   C48   S    
C42   C44   A    
C1    O3    A    
C2    O4    A    
C51   H36   S    
C25   C29   S    
C15   C20   S    
C11   C49   S    
C4    C6    A    
O18   H20   S    
C5    C7    A    
C32   O10   S    
O15   H19   S    
C17   C19   S    
C52   H40   S    
C22   H12   S    
C13   N2    S    
O1    Zn1   S    
O8    Zn1   S    
C24   O8    A    
C3    S3    S    
C25   C45   S    
C45   H13   S    
C37   C38   A    
C45   H14   S    
S1    O13   D    
S2    O18   S    
C31   O9    S    
O4    Zn1   S    
C50   H34   S    
O21   H21   S    
C49   H30   S    
O7    Zn2   S    
C9    C11   A    
C10   C12   A    
C16   C18   S    
S1    O14   D    
C20   C22   S    
C26   C30   S    
S3    O21   S    
S4    O23   D    
C48   H28   S    
C17   H9    S    
C21   H11   S    
C51   H37   S    
C27   H3    S    
C7    C9    A    
C14   N1    S    
C28   H4    S    
C1    C20   S    
C33   N1    A    
C19   C21   S    
C2    C19   S    
C26   C28   S    
C5    H7    S    
C41   C43   A    
C26   C46   S    
C12   C14   A    
C3    C5    A    
C1    O1    A    
C46   H18   S    
C6    C8    A    
C51   H35   S    
C39   C44   A    
O3    Zn2   S    
C25   C27   S    
S4    O24   S    
C46   H17   S    
C17   C22   S    
C23   O5    A    
C36   C38   A    
C37   C39   A    
C27   N3    S    
C38   C40   A    
C11   C13   A    
C31   N1    A    
C16   C19   S    
C7    C23   S    
N4    Zn2   S    
C9    C47   S    
C33   C35   A    
C31   C39   A    
C49   H31   S    
C34   C36   A    
C32   C40   A    
C4    C14   A    
C35   C41   A    
C45   H15   S    
C18   H10   S    
C34   O12   S    
C46   H16   S    
C15   C21   S    
S1    O15   S    
S2    O16   D    
C8    C10   A    
S4    O22   D    
C47   H23   S    
C34   N2    A    
C41   H1    S    
O2    Zn2   S    
C6    H8    S    
C44   S2    S    
C2    O2    A    
