data_mof_unit_pretest_1352.cif
_audit_creation_date              2012-12-10T17:23:12-0500
_audit_creation_method            fapswitch 2.2
_symmetry_space_group_name_H-M    P1
_symmetry_Int_Tables_number       1
_space_group_crystal_system       triclinic
_cell_length_a                    15.868817
_cell_length_b                    10.775306
_cell_length_c                    9.614698
_cell_angle_alpha                 90.052159
_cell_angle_beta                  90.079979
_cell_angle_gamma                 92.551919
_cell_volume                      1642.39749053

loop_
_atom_site_label
_atom_site_type_symbol
_atom_type_description
_atom_site_fract_x
_atom_site_fract_y
_atom_site_fract_z
_atom_type_partial_charge
C1    C     C_R   0.497206 0.262624 0.499969 0.793356
C2    C     C_3   0.083337 0.501432 0.500718 -0.117147
C3    C     C_3   0.973606 0.540312 0.625117 0.301458
C4    C     C_3   0.916874 0.502544 0.501134 -0.115524
C5    C     C_3   0.031741 0.616533 0.525895 0.369746
C6    C     C_3   0.974239 0.579699 0.400985 -0.250975
C7    C     C_1   0.174951 0.500832 0.500196 0.131991
C8    C     C_1   0.825201 0.502249 0.500760 0.138520
C9    C     C_R   0.361137 0.120452 0.640936 -0.190011
C10   C     C_R   0.297466 0.051343 0.709339 -0.090835
C11   C     C_R   0.297586 0.922266 0.709523 -0.071608
C12   C     C_R   0.340033 0.499646 0.499918 0.790713
C13   C     C_R   0.361382 0.861480 0.641348 -0.168226
C14   C     C_R   0.427303 0.929618 0.572843 0.094039
C15   C     C_R   0.427165 0.060892 0.572655 0.092206
C16   C     C_R   0.491583 0.128437 0.499743 -0.097940
C17   C     C_R   0.552124 0.067459 0.423715 -0.166822
C18   C     C_R   0.552269 0.939425 0.423880 -0.191627
C19   C     C_R   0.491858 0.870512 0.500056 -0.083462
C20   C     C_R   0.611887 0.665483 0.144152 -0.139424
C21   C     C_R   0.666445 0.746525 0.072243 -0.185778
C22   C     C_R   0.666461 0.746512 0.928931 -0.148499
C23   C     C_R   0.497582 0.737079 0.500050 0.763126
C24   C     C_R   0.611867 0.665526 0.856592 -0.125935
C25   C     C_R   0.554907 0.581414 0.925443 0.204429
C26   C     C_R   0.554906 0.581371 0.074913 0.214422
C27   C     C_R   0.447777 0.422511 0.073621 -0.037641
C28   C     C_R   0.447794 0.422543 0.925846 -0.035535
C29   C     C_R   0.659984 0.500543 0.500122 0.798394
C30   C     C_3   0.968530 0.387484 0.476051 0.376143
C31   C     C_3   0.026883 0.463283 0.375579 -0.249845
C32   C     C_1   0.250427 0.500239 0.499911 -0.138032
C33   C     C_1   0.749667 0.501536 0.500419 -0.125827
C34   C     C_3   0.025722 0.425108 0.599943 0.300143
Cu1   Cu    Cu3+1 0.499990 0.499990 0.640660 0.951070
Cu2   Cu    Cu3+1 0.500010 0.500010 0.359340 0.958039
H1    H     H_    0.049548 0.430802 0.273199 0.221120
H2    H     H_    0.247438 0.868905 0.761239 0.186523
H3    H     H_    0.357332 0.761135 0.640845 0.158898
H4    H     H_    0.404936 0.358896 0.128459 0.146519
H5    H     H_    0.617430 0.673007 0.253768 0.190829
H6    H     H_    0.709166 0.809737 0.128482 0.170433
H7    H     H_    0.709224 0.809677 0.873045 0.181888
H8    H     H_    0.617342 0.673073 0.746976 0.196702
H9    H     H_    0.404967 0.358939 0.870623 0.140566
H10   H     H_    0.952281 0.643901 0.319708 0.218112
H11   H     H_    0.600715 0.119506 0.366445 0.168309
N1    N     N_R   0.500800 0.501210 0.147910 -0.200414
N2    N     N_R   0.500830 0.501290 0.852040 -0.200831
O1    O     O_R   0.499990 0.319640 0.618810 -0.575213
O2    O     O_R   0.500000 0.319660 0.381240 -0.573237
O3    O     O_R   0.379070 0.499980 0.618770 -0.582370
O4    O     O_R   0.379080 0.500000 0.381190 -0.565096
O5    O     O_R   0.500000 0.680340 0.618760 -0.606248
O6    O     O_R   0.500010 0.680360 0.381190 -0.589830
O7    O     O_R   0.620920 0.500000 0.618810 -0.577639
O8    O     O_R   0.620930 0.500020 0.381230 -0.588786
H12   H     H_    0.600971 0.893838 0.366721 0.143218
Cl1   Cl    Cl    0.925638 0.234797 0.442529 -0.479293
Cl2   Cl    Cl    0.075050 0.769137 0.558830 -0.504436
Cl3   Cl    Cl    0.937389 0.591610 0.789935 -0.478396
Cl4   Cl    Cl    0.060798 0.322549 0.731081 -0.477575
H13   H     H_    0.356898 0.220289 0.639977 0.144760
H14   H     H_    0.247233 0.098131 0.760919 0.184386

loop_
_geom_bond_atom_site_label_1
_geom_bond_atom_site_label_2
_ccdc_geom_bond_type
C27   N1    A    
Cu1   N2    S    
C11   H2    S    
C19   C23   S    
C24   C25   A    
C23   O6    A    
C7    C32   T    
C29   O7    A    
C29   C33   S    
C11   C13   A    
C28   N2    A    
C12   O4    A    
C3    C34   S    
C26   N1    A    
C27   H4    S    
C4    C8    S    
C30   Cl1   S    
C2    C34   S    
Cu1   O1    S    
C20   H5    S    
Cu1   O7    S    
C4    C30   S    
Cu2   O6    S    
C9    H13   S    
C21   C22   A    
C12   C32   S    
Cu1   O5    S    
C1    O2    A    
C30   C31   S    
Cu2   O2    S    
C20   C26   A    
Cu1   O3    S    
C4    C6    S    
C12   O3    A    
C29   O8    A    
C1    O1    A    
Cu2   N1    S    
C22   C24   A    
C8    C33   T    
C3    Cl3   S    
C2    C7    S    
C5    C6    S    
C24   H8    S    
C25   N2    A    
C28   H9    S    
C13   H3    S    
C2    C5    S    
C16   C17   A    
C10   C11   A    
C30   C34   S    
C15   C16   A    
C17   H11   S    
C34   Cl4   S    
C20   C21   A    
C23   O5    A    
C17   C18   A    
Cu2   O8    S    
C9    C10   A    
C27   C28   A    
C1    C16   S    
C14   C15   A    
C18   C19   A    
C6    C31   S    
Cu2   O4    S    
C6    H10   S    
C5    Cl2   S    
C25   C26   A    
C13   C14   A    
C14   C19   A    
C18   H12   S    
C21   H6    S    
C10   H14   S    
C3    C4    S    
C22   H7    S    
C9    C15   A    
C31   H1    S    
C2    C31   S    
C3    C5    S    
Cu1   Cu2   S    
