data_mof_unit_pretest_1323.cif
_audit_creation_date              2012-12-10T18:50:52-0500
_audit_creation_method            fapswitch 2.2
_symmetry_space_group_name_H-M    P1
_symmetry_Int_Tables_number       1
_space_group_crystal_system       triclinic
_cell_length_a                    10.614856
_cell_length_b                    9.89881
_cell_length_c                    15.789578
_cell_angle_alpha                 90.748076
_cell_angle_beta                  90.571168
_cell_angle_gamma                 89.774043
_cell_volume                      1658.84520536

loop_
_atom_site_label
_atom_site_type_symbol
_atom_type_description
_atom_site_fract_x
_atom_site_fract_y
_atom_site_fract_z
_atom_type_partial_charge
C1    C     C_R   0.260270 0.500273 0.499863 0.845508
C2    C     C_R   0.933657 0.552841 0.569385 -0.237945
C3    C     C_R   0.870794 0.499715 0.499548 -0.064530
C4    C     C_R   0.127308 0.500958 0.499480 -0.062520
C5    C     C_R   0.594519 0.072810 0.540339 0.227574
C6    C     C_R   0.594363 0.927818 0.540039 0.235177
C7    C     C_R   0.501553 0.498974 0.338610 0.896500
C8    C     C_R   0.407020 0.927938 0.459390 -0.153097
C9    C     C_R   0.407273 0.071208 0.459110 -0.158136
C10   C     C_R   0.739211 0.499818 0.499675 0.882339
C11   C     C_R   0.501488 0.500818 0.661792 0.891439
C12   C     C_3   0.648992 0.495333 0.953012 -0.421131
C13   C     C_3   0.437650 0.621475 0.054026 -0.099616
C14   C     C_3   0.443120 0.363423 0.046330 -0.124559
C15   C     C_3   0.434316 0.381098 0.947322 -0.015027
C16   C     C_3   0.449684 0.639454 0.955596 0.007097
C17   C     C_1   0.506823 0.503054 0.750844 -0.202008
C18   C     C_3   0.512114 0.491744 0.084112 0.267819
C19   C     C_3   0.512232 0.506877 0.918360 0.223092
C20   C     C_3   0.497457 0.222852 0.074435 -0.374148
C21   C     C_3   0.474215 0.184802 0.167771 -0.347934
C22   C     C_3   0.596777 0.175558 0.219466 -0.829908
C23   C     C_3   0.649159 0.492494 0.050706 -0.405694
C24   C     C_3   0.451454 0.752776 0.110467 -0.354458
C25   C     C_3   0.583005 0.820000 0.114936 -0.318331
C26   C     C_3   0.648848 0.804384 0.200838 -0.874942
C27   C     C_3   0.370668 0.174332 0.866199 -0.818313
C28   C     C_3   0.546318 0.795957 0.849519 -0.840451
C29   C     C_3   0.125181 0.408423 0.345031 -0.432160
C30   C     C_3   0.098834 0.511974 0.275389 -0.324517
C31   C     C_3   0.151721 0.464674 0.190723 -0.952191
C32   C     C_3   0.128031 0.598430 0.652809 -0.419447
C33   C     C_3   0.107975 0.496934 0.724048 -0.337373
C34   C     C_1   0.510827 0.505985 0.826253 -0.030680
C35   C     C_3   0.155330 0.553407 0.808589 -0.936272
C36   C     C_3   0.814413 0.143570 0.551943 -0.759439
C37   C     C_3   0.701077 0.854526 0.669487 -0.804495
C38   C     C_1   0.512294 0.490802 0.175327 -0.044579
C39   C     C_1   0.507815 0.495401 0.250343 -0.226506
C40   C     C_R   0.062106 0.451755 0.426920 0.082300
C41   C     C_R   0.063512 0.550520 0.571755 0.077762
C42   C     C_R   0.932265 0.447569 0.429479 -0.235070
H1    H     H_    0.352614 0.647839 0.928914 0.094731
H2    H     H_    0.694883 0.402091 0.927956 0.163730
H3    H     H_    0.878609 0.407999 0.375844 0.134198
H4    H     H_    0.881145 0.592290 0.622962 0.141343
H5    H     H_    0.659491 0.096732 0.192528 0.242534
H6    H     H_    0.649083 0.272094 0.219338 0.259364
H7    H     H_    0.575233 0.149052 0.285876 0.260776
H8    H     H_    0.406917 0.254795 0.198965 0.226273
H9    H     H_    0.428261 0.084137 0.169784 0.195943
H10   H     H_    0.448905 0.143062 0.036733 0.182857
H11   H     H_    0.598418 0.212313 0.058207 0.200470
H12   H     H_    0.333855 0.404629 0.932174 0.121780
H13   H     H_    0.587600 0.842273 0.252694 0.273128
H14   H     H_    0.674372 0.697599 0.212133 0.264788
H15   H     H_    0.737388 0.863705 0.201844 0.230553
H16   H     H_    0.646579 0.784335 0.064425 0.238803
H17   H     H_    0.570819 0.929385 0.103382 0.202550
H18   H     H_    0.382194 0.828367 0.086867 0.134892
H19   H     H_    0.417148 0.733075 0.175392 0.210160
H20   H     H_    0.556132 0.215088 0.911493 0.224341
H21   H     H_    0.411659 0.091192 0.827356 0.239367
H22   H     H_    0.305940 0.233579 0.825134 0.253573
H23   H     H_    0.332372 0.873736 0.426701 0.151805
H24   H     H_    0.316641 0.130370 0.918888 0.228180
H25   H     H_    0.468990 0.848697 0.960954 0.234427
H26   H     H_    0.576271 0.903165 0.845868 0.226757
H27   H     H_    0.463381 0.781174 0.806942 0.252453
H28   H     H_    0.627835 0.734145 0.829064 0.257883
H29   H     H_    0.254713 0.449772 0.196657 0.261381
H30   H     H_    0.107163 0.368204 0.170130 0.262195
H31   H     H_    0.132700 0.542109 0.141945 0.246746
H32   H     H_    0.995779 0.528331 0.267336 0.220940
H33   H     H_    0.142782 0.610089 0.293574 0.219264
H34   H     H_    0.332821 0.124704 0.426218 0.150991
H35   H     H_    0.228535 0.396650 0.352278 0.207174
H36   H     H_    0.088035 0.307830 0.325218 0.198150
H37   H     H_    0.256135 0.580102 0.803673 0.267083
H38   H     H_    0.100713 0.645021 0.826825 0.261944
H39   H     H_    0.144019 0.476485 0.858423 0.243495
H40   H     H_    0.006372 0.472703 0.730354 0.221162
H41   H     H_    0.159657 0.401799 0.709010 0.223643
H42   H     H_    0.230599 0.613378 0.645209 0.213230
H43   H     H_    0.088073 0.698543 0.671205 0.204050
H44   H     H_    0.685566 0.134316 0.650829 0.215503
H45   H     H_    0.336399 0.596653 0.063318 0.082873
H46   H     H_    0.867852 0.054908 0.575057 0.208271
H47   H     H_    0.865996 0.234722 0.574302 0.248473
H48   H     H_    0.811974 0.142984 0.481514 0.241822
H49   H     H_    0.779000 0.854868 0.547008 0.221882
H50   H     H_    0.782993 0.914922 0.691998 0.216546
H51   H     H_    0.713751 0.749171 0.691077 0.248052
H52   H     H_    0.613750 0.897199 0.697350 0.239449
H53   H     H_    0.344369 0.364721 0.069330 0.121880
H54   H     H_    0.703532 0.578479 0.076850 0.183547
H55   H     H_    0.702248 0.402622 0.072796 0.164798
H56   H     H_    0.706752 0.581732 0.931856 0.192333
N1    N     N_R   0.499970 0.857200 0.499980 -0.101611
N2    N     N_R   0.499970 0.142800 0.499980 -0.103643
N3    N     N_2   0.470437 0.260203 0.898897 -0.282862
N4    N     N_2   0.514793 0.765678 0.935851 -0.285219
N5    N     N_2   0.688209 0.146529 0.586171 -0.255127
N6    N     N_2   0.694240 0.854342 0.578183 -0.255697
O1    O     O_R   0.316750 0.614620 0.499990 -0.627383
O2    O     O_R   0.316750 0.385380 0.499990 -0.624784
O3    O     O_R   0.499990 0.614720 0.377140 -0.614253
O4    O     O_R   0.499990 0.385280 0.377140 -0.621149
O5    O     O_R   0.683220 0.614710 0.500000 -0.604449
O6    O     O_R   0.683220 0.385290 0.500000 -0.590868
O7    O     O_R   0.499980 0.614620 0.622860 -0.602528
O8    O     O_R   0.499980 0.385380 0.622860 -0.594364
Zn1   Zn    Zn3+2 0.499980 0.653120 0.500000 0.948261
Zn2   Zn    Zn3+2 0.499980 0.346880 0.500000 0.950009

loop_
_geom_bond_atom_site_label_1
_geom_bond_atom_site_label_2
_ccdc_geom_bond_type
C36   H47   S    
C22   H6    S    
C5    N5    S    
C3    C42   A    
C24   H19   S    
C14   C18   S    
C28   H27   S    
H49   N6    S    
C26   H13   S    
O8    Zn2   S    
C35   H39   S    
C36   H46   S    
C15   C19   S    
C12   C23   S    
C13   C18   S    
O2    Zn2   S    
C36   N5    S    
O1    Zn1   S    
C28   H26   S    
C8    N1    A    
C5    C6    A    
C30   H32   S    
C31   H31   S    
C4    C41   A    
C2    C41   A    
C35   H38   S    
C23   H54   S    
C29   C40   S    
C10   O5    A    
O4    Zn2   S    
O3    Zn1   S    
C29   H36   S    
C4    C40   A    
C8    C9    A    
C32   C41   S    
C9    H34   S    
C6    N6    S    
C33   H40   S    
O6    Zn2   S    
C12   H56   S    
O5    Zn1   S    
C1    O2    A    
H20   N3    S    
C40   C42   A    
C22   H5    S    
C8    H23   S    
C21   C22   S    
H44   N5    S    
C21   H8    S    
C32   H42   S    
C11   O7    A    
C18   C23   S    
C15   H12   S    
C14   C20   S    
N2    Zn2   S    
C24   C25   S    
C25   C26   S    
C27   N3    S    
C2    H4    S    
C13   C24   S    
C42   H3    S    
C29   C30   S    
C5    N2    A    
C30   C31   S    
C24   H18   S    
C13   H45   S    
C37   H51   S    
O7    Zn1   S    
C15   N3    S    
C33   H41   S    
C16   H1    S    
C27   H21   S    
C22   H7    S    
C16   N4    S    
C31   H30   S    
C23   H55   S    
C9    N2    A    
C7    O3    A    
C35   H37   S    
C17   C34   T    
C14   H53   S    
C21   H9    S    
C36   H48   S    
C11   C17   S    
C37   H50   S    
C11   O8    A    
C7    O4    A    
C28   H28   S    
C20   H11   S    
C19   C34   S    
C26   H14   S    
N1    Zn1   S    
C37   N6    S    
C1    C4    S    
C32   C33   S    
C2    C3    A    
C18   C38   S    
C12   H2    S    
C3    C10   S    
C6    N1    A    
C30   H33   S    
C38   C39   T    
C16   C19   S    
C32   H43   S    
C12   C19   S    
C31   H29   S    
C33   C35   S    
C37   H52   S    
C10   O6    A    
C26   H15   S    
C27   H22   S    
C28   N4    S    
C29   H35   S    
C20   C21   S    
C20   H10   S    
C25   H16   S    
C13   C16   S    
C27   H24   S    
C7    C39   S    
C14   C15   S    
C25   H17   S    
H25   N4    S    
C1    O1    A    
