data_mof_unit_pretest_35.cif
_audit_creation_date              2012-12-11T17:17:11-0500
_audit_creation_method            fapswitch 2.2
_symmetry_space_group_name_H-M    P1
_symmetry_Int_Tables_number       1
_space_group_crystal_system       triclinic
_cell_length_a                    6.941316
_cell_length_b                    13.385592
_cell_length_c                    14.696368
_cell_angle_alpha                 99.012226
_cell_angle_beta                  89.828247
_cell_angle_gamma                 90.259482
_cell_volume                      1348.61826531

loop_
_atom_site_label
_atom_site_type_symbol
_atom_type_description
_atom_site_fract_x
_atom_site_fract_y
_atom_site_fract_z
_atom_type_partial_charge
O1    O     O_R   0.354890 0.151580 0.148210 -0.540950
O2    O     O_R   0.645110 0.848420 0.851790 -0.540950
O3    O     O_R   0.682370 0.152980 0.336770 -0.553568
O4    O     O_R   0.317630 0.847020 0.663230 -0.553568
O5    O     O_R   0.854980 0.348430 0.351800 -0.535228
O6    O     O_R   0.145020 0.651570 0.648200 -0.535228
C1    C     C_R   0.513671 0.131350 0.366150 0.745854
C2    C     C_R   0.486329 0.868650 0.633850 0.745854
O7    O     O_R   0.684450 0.139580 0.148000 -0.538325
O8    O     O_R   0.315550 0.860420 0.852000 -0.538326
O9    O     O_R   0.857080 0.334940 0.161680 -0.521119
O10   O     O_R   0.142920 0.665060 0.838320 -0.521119
C3    C     C_R   0.515520 0.112659 0.114042 0.734194
C4    C     C_R   0.484480 0.887341 0.885958 0.734195
O11   O     O_R   0.352790 0.165070 0.338330 -0.532501
O12   O     O_R   0.647210 0.834930 0.661670 -0.532501
O13   O     O_3   0.522170 0.314120 0.254710 -0.364754
O14   O     O_3   0.477830 0.685880 0.745290 -0.364754
V1    V     V_3+5 0.796120 0.238110 0.249130 1.487475
V2    V     V_3+5 0.203880 0.761890 0.750870 1.487475
O15   O     O_R   0.186930 0.347040 0.163240 -0.552534
O16   O     O_R   0.813070 0.652960 0.836760 -0.552534
C5    C     C_R   0.018680 0.368586 0.133830 0.787310
C6    C     C_R   0.981320 0.631414 0.866170 0.787309
O17   O     O_R   0.184850 0.360440 0.352010 -0.535782
O18   O     O_R   0.815150 0.639560 0.647990 -0.535781
C7    C     C_R   0.015841 0.387325 0.385984 0.752074
C8    C     C_R   0.984159 0.612675 0.614015 0.752074
V3    V     V_3+5 0.296410 0.261900 0.250880 1.485898
V4    V     V_3+5 0.703590 0.738100 0.749120 1.485898
O19   O     O_3   0.020490 0.185890 0.245290 -0.381580
O20   O     O_3   0.979510 0.814110 0.754710 -0.381579
C9    C     C_1   0.005161 0.466905 0.466341 -0.147971
C10   C     C_1   0.994839 0.533094 0.533659 -0.147972
C11   C     C_3   0.075358 0.588895 0.033697 0.304328
C12   C     C_3   0.924642 0.411105 0.966303 0.304329
C13   C     C_3   0.902221 0.539463 0.074233 0.307259
C14   C     C_3   0.097779 0.460537 0.925767 0.307258
C15   C     C_3   0.011066 0.438322 0.063476 -0.139118
C16   C     C_3   0.988934 0.561678 0.936524 -0.139119
C17   C     C_3   0.188634 0.488196 0.022699 -0.337100
C18   C     C_3   0.811366 0.511804 0.977301 -0.337100
H1    H     H_    0.342285 0.479498 0.040533 0.163318
H2    H     H_    0.657715 0.520501 0.959467 0.163318
C19   C     C_3   0.396418 0.959469 0.426658 0.086557
C20   C     C_3   0.603582 0.040530 0.573342 0.086557
C21   C     C_3   0.572752 0.911400 0.465417 0.371782
C22   C     C_3   0.427248 0.088600 0.534582 0.371782
C23   C     C_3   0.493849 0.938860 0.563796 -0.113034
C24   C     C_3   0.506151 0.061140 0.436203 -0.113034
C25   C     C_3   0.314029 0.987810 0.525677 -0.267946
C26   C     C_3   0.685971 0.012190 0.474323 -0.267946
H3    H     H_    0.161837 0.979529 0.546871 0.144909
H4    H     H_    0.838163 0.020471 0.453129 0.144909
C27   C     C_1   0.504928 0.033093 0.033671 -0.165563
C28   C     C_1   0.495072 0.966907 0.966329 -0.165563
O21   O     O_3   0.803061 0.581543 0.153901 -0.638133
H5    H     H_    0.744602 0.644493 0.139153 0.298863
O22   O     O_3   0.196939 0.418457 0.846099 -0.638133
H6    H     H_    0.255398 0.355507 0.860847 0.298863
O23   O     O_3   0.150736 0.683980 0.069277 -0.644299
H7    H     H_    0.197740 0.677691 0.131742 0.300333
O24   O     O_3   0.849264 0.316020 0.930723 -0.644299
H8    H     H_    0.802261 0.322309 0.868257 0.300332
O25   O     O_3   0.648371 0.816674 0.429700 -0.639366
H9    H     H_    0.694573 0.823027 0.366971 0.291532
O26   O     O_3   0.351629 0.183325 0.570300 -0.639366
H10   H     H_    0.305427 0.176973 0.633029 0.291532
C29   C     C_3   0.280446 0.912053 0.343251 -0.744417
H11   H     H_    0.374684 0.900316 0.281391 0.195184
H12   H     H_    0.220943 0.838152 0.355332 0.227640
H13   H     H_    0.160054 0.962863 0.331711 0.208778
C30   C     C_3   0.719554 0.087947 0.656748 -0.744418
H14   H     H_    0.625316 0.099684 0.718609 0.195184
H15   H     H_    0.839946 0.037137 0.668289 0.208778
H16   H     H_    0.779057 0.161848 0.644667 0.227640

loop_
_geom_bond_atom_site_label_1
_geom_bond_atom_site_label_2
_ccdc_geom_bond_type
C4    C28   S    
C27   C28   T    
O13   V3    S    
C30   H14   S    
C12   C18   S    
O4    C2    A    
V1    O19   S    
C21   C23   S    
C7    C9    S    
C20   C23   S    
O9    V1    S    
C11   C13   S    
O3    C1    A    
C19   C25   S    
O12   V4    S    
C20   C26   S    
O9    C5    A    
C13   C18   S    
C29   H12   S    
O7    C3    A    
O13   V1    S    
O5    C7    A    
O7    V1    S    
C22   C25   S    
O6    C8    A    
O8    V2    S    
C23   C25   S    
C24   C26   S    
O3    V1    S    
O14   V4    S    
V4    O20   S    
C12   O24   S    
C17   H1    S    
C16   C18   S    
C8    C10   S    
O22   H6    S    
C2    O12   A    
C30   H15   S    
C29   H11   S    
C18   H2    S    
O2    C4    A    
C26   H4    S    
O11   V3    S    
C19   C21   S    
O17   V3    S    
C20   C22   S    
C19   C29   S    
O26   H10   S    
C14   C17   S    
C15   C17   S    
O8    C4    A    
C1    O11   A    
O15   V3    S    
O24   H8    S    
C25   H3    S    
C29   H13   S    
O10   V2    S    
O1    V3    S    
C9    C10   T    
C11   O23   S    
O18   V4    S    
O15   C5    A    
C30   H16   S    
O16   C6    A    
O1    C3    A    
V2    O20   S    
O16   V4    S    
C12   C15   S    
C1    C24   S    
C21   C26   S    
O5    V1    S    
O17   C7    A    
O6    V2    S    
O10   C6    A    
O18   C8    A    
O2    V4    S    
C12   C14   S    
C11   C16   S    
V3    O19   S    
C14   C16   S    
O21   H5    S    
C19   C24   S    
C5    C15   S    
C22   C24   S    
C6    C16   S    
O14   V2    S    
C22   O26   S    
O23   H7    S    
C11   C17   S    
C14   O22   S    
O4    V2    S    
C13   C15   S    
O25   H9    S    
C2    C23   S    
C21   O25   S    
C20   C30   S    
C13   O21   S    
C3    C27   S    
