data_mof_unit_pretest_727.cif
_audit_creation_date              2012-12-10T17:00:04-0500
_audit_creation_method            fapswitch 2.2
_symmetry_space_group_name_H-M    P1
_symmetry_Int_Tables_number       1
_space_group_crystal_system       triclinic
_cell_length_a                    15.088007
_cell_length_b                    15.226709
_cell_length_c                    10.119004
_cell_angle_alpha                 91.997593
_cell_angle_beta                  92.591451
_cell_angle_gamma                 90.117692
_cell_volume                      2320.94286082

loop_
_atom_site_label
_atom_site_type_symbol
_atom_type_description
_atom_site_fract_x
_atom_site_fract_y
_atom_site_fract_z
_atom_type_partial_charge
C1    C     C_R   0.379848 0.883454 0.495455 0.876617
C2    C     C_2   0.749677 0.180722 0.412917 -0.291622
C3    C     C_2   0.202319 0.270600 0.392649 -0.287496
C4    C     C_2   0.249674 0.680725 0.412914 -0.291627
C5    C     C_2   0.653525 0.791284 0.496201 -0.079721
C6    C     C_2   0.702477 0.167153 0.519598 -0.126978
C7    C     C_2   0.153524 0.291284 0.496201 -0.079714
C8    C     C_2   0.202478 0.667152 0.519597 -0.126967
C9    C     C_2   0.259730 0.194890 0.397142 0.384627
C10   C     C_2   0.321647 0.744778 0.420207 0.374136
C11   C     C_2   0.759729 0.694888 0.397146 0.384631
C12   C     C_R   0.382258 0.119644 0.499479 0.838365
C13   C     C_2   0.821651 0.244775 0.420212 0.374155
C14   C     C_2   0.321515 0.192161 0.496690 0.240321
C15   C     C_2   0.307369 0.823665 0.479032 0.257622
C16   C     C_2   0.821516 0.692162 0.496689 0.240324
C17   C     C_2   0.807370 0.323663 0.479029 0.257620
C18   C     C_2   0.564073 0.033329 0.930270 0.598833
C19   C     C_2   0.064087 0.533302 0.930268 0.598836
C20   C     C_2   0.569015 0.018070 0.078249 -0.206211
C21   C     C_2   0.069020 0.518049 0.078249 -0.206231
C22   C     C_R   0.626486 0.724927 0.592138 0.132133
C23   C     C_R   0.879848 0.383453 0.495454 0.876618
C24   C     C_R   0.632505 0.743703 0.729264 -0.041476
C25   C     C_R   0.597671 0.685135 0.816666 -0.176309
C26   C     C_R   0.559111 0.606079 0.768679 -0.154598
C27   C     C_R   0.554573 0.585843 0.633001 -0.141459
C28   C     C_R   0.587330 0.645206 0.544913 -0.117647
C29   C     C_R   0.732649 0.197701 0.656812 0.189877
C30   C     C_R   0.676035 0.249039 0.734503 0.027023
C31   C     C_R   0.702910 0.276483 0.863179 -0.165270
C32   C     C_R   0.786155 0.252493 0.915921 -0.146214
C33   C     C_R   0.843012 0.201824 0.839538 -0.109621
C34   C     C_R   0.882258 0.619644 0.499479 0.838364
C35   C     C_R   0.816554 0.174311 0.710424 -0.155320
C36   C     C_R   0.126484 0.224925 0.592134 0.132135
C37   C     C_R   0.132500 0.243696 0.729261 -0.041472
C38   C     C_R   0.097665 0.185125 0.816659 -0.176305
C39   C     C_R   0.059104 0.106072 0.768665 -0.154594
C40   C     C_R   0.054567 0.085841 0.632986 -0.141454
C41   C     C_R   0.087328 0.145205 0.544902 -0.117636
C42   C     C_R   0.232653 0.697695 0.656814 0.189891
C43   C     C_R   0.176034 0.749017 0.734520 0.027005
C44   C     C_R   0.202908 0.776447 0.863202 -0.165232
C45   C     C_R   0.622419 0.115292 0.504454 0.872992
C46   C     C_R   0.286156 0.752463 0.915935 -0.146219
C47   C     C_R   0.343018 0.701812 0.839536 -0.109673
C48   C     C_R   0.316561 0.674310 0.710416 -0.155311
C49   C     C_R   0.413309 0.019038 0.100177 0.343411
C50   C     C_R   0.347076 0.955474 0.111481 -0.057725
C51   C     C_R   0.259681 0.972356 0.069869 -0.157308
C52   C     C_R   0.237797 0.052619 0.015191 -0.104396
C53   C     C_R   0.302767 0.117428 0.005442 -0.107193
C54   C     C_R   0.390105 0.101547 0.050308 -0.166042
C55   C     C_R   0.913313 0.519052 0.100177 0.343408
C56   C     C_R   0.612840 0.876454 0.499805 0.899093
C57   C     C_R   0.847070 0.455499 0.111488 -0.057720
C58   C     C_R   0.759678 0.472394 0.069880 -0.157316
C59   C     C_R   0.737806 0.552661 0.015202 -0.104398
C60   C     C_R   0.802787 0.617459 0.005446 -0.107188
C61   C     C_R   0.890123 0.601563 0.050305 -0.166083
C62   C     C_R   0.122419 0.615292 0.504454 0.872990
C63   C     C_R   0.112839 0.376453 0.499805 0.899097
C64   C     C_2   0.702318 0.770599 0.392649 -0.287493
H1    H     H_    0.711519 0.815700 0.313398 0.160257
H2    H     H_    0.524146 0.524897 0.595865 0.144982
H3    H     H_    0.580275 0.629901 0.439655 0.153528
H4    H     H_    0.611063 0.267675 0.695201 0.120423
H5    H     H_    0.658308 0.314853 0.922517 0.121997
H6    H     H_    0.806132 0.271936 0.016590 0.138300
H7    H     H_    0.907128 0.183150 0.881275 0.148431
H8    H     H_    0.860830 0.134197 0.652747 0.144906
H9    H     H_    0.163245 0.303911 0.768757 0.161070
H10   H     H_    0.100471 0.201226 0.921793 0.133784
H11   H     H_    0.032167 0.060722 0.836572 0.125398
H12   H     H_    0.732930 0.148566 0.317458 0.154288
H13   H     H_    0.024140 0.024896 0.595844 0.144982
H14   H     H_    0.080274 0.129903 0.439644 0.153529
H15   H     H_    0.111059 0.767650 0.695225 0.120408
H16   H     H_    0.158301 0.814803 0.922552 0.121983
H17   H     H_    0.306132 0.771896 0.016608 0.138297
H18   H     H_    0.407138 0.683141 0.881265 0.148436
H19   H     H_    0.360841 0.634208 0.652728 0.144910
H20   H     H_    0.195694 0.140023 0.246528 0.332358
H21   H     H_    0.400953 0.662199 0.336485 0.326595
H22   H     H_    0.695684 0.640013 0.246546 0.332357
H23   H     H_    0.211521 0.315703 0.313400 0.160253
H24   H     H_    0.900960 0.162192 0.336506 0.326595
H25   H     H_    0.381804 0.249255 0.651423 0.333605
H26   H     H_    0.226240 0.912259 0.545230 0.326490
H27   H     H_    0.881810 0.749260 0.651413 0.333598
H28   H     H_    0.726237 0.412262 0.545202 0.326486
H29   H     H_    0.672694 0.100574 0.947600 0.306053
H30   H     H_    0.172741 0.600496 0.947590 0.306052
H31   H     H_    0.414704 0.911517 0.839290 0.377908
H32   H     H_    0.914654 0.411568 0.839310 0.377884
H33   H     H_    0.363732 0.892053 0.150148 0.148231
H34   H     H_    0.232923 0.648573 0.317453 0.154292
H35   H     H_    0.208788 0.923434 0.080888 0.129452
H36   H     H_    0.169815 0.065062 0.984796 0.124347
H37   H     H_    0.285130 0.180393 0.965548 0.135889
H38   H     H_    0.439531 0.152827 0.045366 0.108791
H39   H     H_    0.863716 0.392077 0.150158 0.148224
H40   H     H_    0.708777 0.423481 0.080901 0.129457
H41   H     H_    0.669825 0.565115 0.984818 0.124345
H42   H     H_    0.785160 0.680426 0.965552 0.135891
H43   H     H_    0.939559 0.652833 0.045355 0.108790
H44   H     H_    0.633596 0.023265 0.129636 0.125795
H45   H     H_    0.133602 0.523227 0.129636 0.125796
H46   H     H_    0.663251 0.803919 0.768755 0.161072
H47   H     H_    0.600476 0.701241 0.921799 0.133789
H48   H     H_    0.532176 0.560731 0.836590 0.125399
N1    N     N_2   0.501330 0.000000 0.852150 0.034351
N2    N     N_2   0.001330 0.500000 0.852150 0.034340
N3    N     N_2   0.501360 0.000000 0.147810 -0.136124
N4    N     N_2   0.001360 0.500000 0.147810 -0.136129
O1    O     O_R   0.409520 0.909540 0.613040 -0.640278
O2    O     O_R   0.590440 0.909540 0.613100 -0.598962
O3    O     O_R   0.090440 0.590460 0.613100 -0.568032
O4    O     O_R   0.090440 0.409540 0.613100 -0.598938
O5    O     O_R   0.590480 0.090460 0.386960 -0.628512
O6    O     O_R   0.590480 0.909540 0.386960 -0.616425
O7    O     O_R   0.090480 0.590460 0.386960 -0.628510
O8    O     O_R   0.090480 0.409540 0.386960 -0.616430
O9    O     O_3   0.248224 0.126481 0.304670 -0.778316
O10   O     O_3   0.403802 0.723550 0.372775 -0.814346
O11   O     O_3   0.748217 0.626474 0.304682 -0.778316
O12   O     O_R   0.409520 0.090460 0.613040 -0.637381
O13   O     O_3   0.903808 0.223545 0.372791 -0.814346
O14   O     O_3   0.329768 0.260383 0.591023 -0.814339
O15   O     O_3   0.222556 0.851541 0.506313 -0.814326
O16   O     O_3   0.829773 0.760388 0.591016 -0.814341
O17   O     O_3   0.722556 0.351542 0.506291 -0.814330
O18   O     O_3   0.629047 0.082144 0.875839 -0.777422
O19   O     O_3   0.129084 0.582086 0.875833 -0.777411
O20   O     O_3   0.468595 0.924489 0.895175 -0.742849
O21   O     O_3   0.968567 0.424499 0.895168 -0.742818
O22   O     O_R   0.909520 0.409540 0.613040 -0.640238
O23   O     O_R   0.909520 0.590460 0.613040 -0.637395
O24   O     O_R   0.409560 0.909540 0.386900 -0.606907
O25   O     O_R   0.409560 0.090460 0.386900 -0.577906
O26   O     O_R   0.909560 0.409540 0.386900 -0.606914
O27   O     O_R   0.909560 0.590460 0.386900 -0.577906
O28   O     O_R   0.590440 0.090460 0.613100 -0.568016
Zn1   Zn    Zn3+2 0.499970 0.000000 0.650990 1.015786
Zn2   Zn    Zn3+2 0.999970 0.500000 0.650990 1.015796
Zn3   Zn    Zn3+2 0.500030 0.000000 0.349010 0.976655
Zn4   Zn    Zn3+2 0.000030 0.500000 0.349010 0.976653

loop_
_geom_bond_atom_site_label_1
_geom_bond_atom_site_label_2
_ccdc_geom_bond_type
O23   Zn2   S    
O4    Zn2   S    
C6    C45   S    
C4    H34   S    
C7    C36   S    
C23   O22   A    
H28   O17   S    
C4    C8    D    
C63   O8    A    
C36   C41   A    
C60   H42   S    
C53   C54   A    
O3    Zn2   S    
O8    Zn4   S    
C26   C27   A    
C59   H41   S    
C36   C37   A    
C19   C21   S    
C8    C42   S    
C3    C7    D    
C10   C15   D    
C38   H10   S    
C38   C39   A    
O12   Zn1   S    
C47   H18   S    
C55   N4    S    
C43   H15   S    
C49   C54   A    
N3    Zn3   S    
C34   O23   A    
C12   O25   A    
C18   N1    D    
O1    Zn1   S    
N2    O21   S    
N1    Zn1   S    
C2    C13   S    
C5    C56   S    
C16   C34   S    
C5    C22   S    
C47   C48   A    
C53   H37   S    
N1    O20   S    
C45   O28   A    
O5    Zn3   S    
C23   O26   A    
C1    C15   S    
C39   H11   S    
C29   C30   A    
C59   C60   A    
C22   C28   A    
H21   O10   S    
C2    C6    D    
H24   O13   S    
C21   N4    D    
C61   H43   S    
O24   Zn3   S    
C62   O7    A    
C44   C46   A    
C50   C51   A    
C51   H35   S    
O27   Zn4   S    
C57   H39   S    
C34   O27   A    
C3    H23   S    
C51   C52   A    
O26   Zn4   S    
C44   H16   S    
C28   H3    S    
C24   H46   S    
C24   C25   A    
N2    Zn2   S    
C11   C64   S    
C41   H14   S    
N4    Zn4   S    
O25   Zn3   S    
C32   H6    S    
H27   O16   S    
C19   N2    D    
C45   O5    A    
C25   C26   A    
C52   H36   S    
C9    O9    S    
H25   O14   S    
C5    C64   D    
C60   C61   A    
C56   O6    A    
C42   C48   A    
C11   O11   S    
C9    C14   D    
C37   C38   A    
C3    C9    S    
C46   H17   S    
C11   C16   D    
C31   C32   A    
H30   O19   S    
C17   C23   S    
O6    Zn3   S    
C7    C63   S    
C62   O3    A    
C1    O24   A    
H26   O15   S    
C40   C41   A    
C49   N3    S    
C12   C14   S    
C35   H8    S    
H29   O18   S    
C55   C57   A    
C43   C44   A    
C17   O17   S    
C22   C24   A    
C58   H40   S    
C42   C43   A    
C4    C10   S    
C26   H48   S    
H32   O21   S    
C2    H12   S    
C52   C53   A    
C14   O14   S    
H20   O9    S    
C37   H9    S    
C46   C47   A    
C50   H33   S    
H22   O11   S    
C56   O2    A    
C54   H38   S    
O2    Zn1   S    
O28   Zn1   S    
C20   N3    D    
C21   H45   S    
C12   O12   A    
C29   C35   A    
C48   H19   S    
C13   C17   D    
C32   C33   A    
C58   C59   A    
C27   H2    S    
C64   H1    S    
C63   O4    A    
C57   C58   A    
C30   C31   A    
O22   Zn2   S    
C55   C61   A    
H31   O20   S    
C33   C35   A    
C18   O18   S    
C18   C20   S    
C16   O16   S    
C25   H47   S    
C33   H7    S    
C39   C40   A    
C31   H5    S    
C6    C29   S    
C15   O15   S    
O7    Zn4   S    
C49   C50   A    
C27   C28   A    
C13   O13   S    
C40   H13   S    
C1    O1    A    
C10   O10   S    
C19   O19   S    
C30   H4    S    
C8    C62   S    
C20   H44   S    
