data_mof_unit_pretest_1432.cif
_audit_creation_date              2012-12-10T16:35:55-0500
_audit_creation_method            fapswitch 2.2
_symmetry_space_group_name_H-M    P1
_symmetry_Int_Tables_number       1
_space_group_crystal_system       triclinic
_cell_length_a                    14.246276
_cell_length_b                    16.518224
_cell_length_c                    12.969912
_cell_angle_alpha                 89.809507
_cell_angle_beta                  106.892361
_cell_angle_gamma                 90.063845
_cell_volume                      2920.41284113

loop_
_atom_site_label
_atom_site_type_symbol
_atom_type_description
_atom_site_fract_x
_atom_site_fract_y
_atom_site_fract_z
_atom_type_partial_charge
C1    C     C_R   0.314845 0.845078 0.476308 0.971137
C2    C     C_R   0.685173 0.843156 0.523282 0.767718
C3    C     C_R   0.185440 0.656597 0.522673 0.770863
C4    C     C_R   0.185173 0.343156 0.523282 0.767718
C5    C     C_R   0.546454 0.997590 0.787055 0.822260
C6    C     C_R   0.046454 0.497592 0.787055 0.822244
C7    C     C_R   0.455163 0.000211 0.214121 0.695387
C8    C     C_R   0.955164 0.500211 0.214121 0.695385
C9    C     C_2   0.447639 0.001158 0.098092 0.301867
C10   C     C_2   0.947645 0.501158 0.098092 0.301864
C11   C     C_2   0.501215 0.948509 0.059838 -0.242380
C12   C     C_R   0.315045 0.155334 0.475885 0.973783
C13   C     C_2   0.001224 0.448508 0.059841 -0.242384
C14   C     C_2   0.562041 0.988633 0.906001 -0.061626
C15   C     C_2   0.062042 0.488641 0.906001 -0.061591
C16   C     C_2   0.494956 0.946583 0.943553 0.143692
C17   C     C_2   0.994968 0.446579 0.943557 0.143698
C18   C     C_2   0.759050 0.220175 0.528218 0.206860
C19   C     C_2   0.756259 0.776846 0.533478 0.221059
C20   C     C_2   0.259047 0.720178 0.528224 0.206853
C21   C     C_2   0.256259 0.276846 0.533479 0.221057
C22   C     C_3   0.410623 0.898201 0.869134 -0.321951
C23   C     C_R   0.814845 0.345078 0.476308 0.971134
C24   C     C_3   0.358835 0.839599 0.927256 -0.376633
C25   C     C_3   0.278407 0.792140 0.846514 -0.851441
C26   C     C_3   0.910651 0.398178 0.869143 -0.321994
C27   C     C_3   0.858881 0.339566 0.927271 -0.376617
C28   C     C_3   0.778468 0.292088 0.846537 -0.851423
C29   C     C_3   0.649290 0.028673 0.988016 -0.447624
C30   C     C_3   0.725551 0.069736 0.942508 -0.300118
C31   C     C_3   0.804998 0.111314 0.031564 -0.928140
C32   C     C_3   0.149278 0.528698 0.988012 -0.447626
C33   C     C_3   0.225512 0.569790 0.942492 -0.300147
C34   C     C_R   0.815045 0.655334 0.475885 0.973782
C35   C     C_3   0.304942 0.611387 0.031544 -0.928103
C36   C     C_3   0.638972 0.305426 0.380777 -0.454808
C37   C     C_3   0.633759 0.386958 0.321361 -0.391871
C38   C     C_3   0.532787 0.399639 0.240753 -0.849230
C39   C     C_3   0.653032 0.710503 0.357499 -0.459944
C40   C     C_3   0.657926 0.640837 0.280587 -0.379448
C41   C     C_3   0.567547 0.640686 0.182258 -0.877476
C42   C     C_3   0.138982 0.805415 0.380753 -0.454810
C43   C     C_3   0.133776 0.886939 0.321321 -0.391876
C44   C     C_3   0.032812 0.899611 0.240693 -0.849225
C45   C     C_2   0.237982 0.786586 0.463268 -0.092451
C46   C     C_3   0.153033 0.210503 0.357499 -0.459944
C47   C     C_3   0.157927 0.140837 0.280588 -0.379438
C48   C     C_3   0.067547 0.140684 0.182260 -0.877488
C49   C     C_2   0.239867 0.215755 0.460190 -0.095942
C50   C     C_2   0.737980 0.286587 0.463271 -0.092457
C51   C     C_2   0.739867 0.715754 0.460190 -0.095943
C52   C     C_R   0.685441 0.156596 0.522672 0.770863
H1    H     H_    0.549311 0.905291 0.113278 0.110363
H2    H     H_    0.726670 0.333897 0.790625 0.270242
H3    H     H_    0.811116 0.250458 0.799335 0.279324
H4    H     H_    0.736607 0.256018 0.890416 0.253075
H5    H     H_    0.912944 0.296305 0.977653 0.220540
H6    H     H_    0.824446 0.374061 0.980189 0.244096
H7    H     H_    0.854453 0.441214 0.821972 0.248419
H8    H     H_    0.939693 0.361872 0.813073 0.195583
H9    H     H_    0.772547 0.159848 0.069491 0.269979
H10   H     H_    0.842480 0.066560 0.094062 0.266252
H11   H     H_    0.860299 0.138867 0.996934 0.264993
H12   H     H_    0.049317 0.405290 0.113283 0.110366
H13   H     H_    0.761726 0.023598 0.904848 0.249735
H14   H     H_    0.689277 0.115767 0.881324 0.229796
H15   H     H_    0.620087 0.074827 0.032892 0.234816
H16   H     H_    0.688000 0.981691 0.046639 0.203203
H17   H     H_    0.272473 0.659911 0.069470 0.269974
H18   H     H_    0.342444 0.566642 0.094045 0.266244
H19   H     H_    0.360231 0.638956 0.996909 0.264990
H20   H     H_    0.261703 0.523669 0.904827 0.249745
H21   H     H_    0.189210 0.615813 0.881309 0.229784
H22   H     H_    0.120063 0.574839 0.032894 0.234830
H23   H     H_    0.226624 0.833963 0.790607 0.270246
H24   H     H_    0.188013 0.481724 0.046630 0.203202
H25   H     H_    0.355361 0.090305 0.070676 0.333392
H26   H     H_    0.855368 0.590304 0.070672 0.333392
H27   H     H_    0.357159 0.662132 0.641651 0.350395
H28   H     H_    0.342423 0.322223 0.666713 0.353820
H29   H     H_    0.857171 0.162116 0.641622 0.350393
H30   H     H_    0.842425 0.822225 0.666711 0.353819
H31   H     H_    0.516819 0.350865 0.179336 0.267344
H32   H     H_    0.475138 0.399867 0.282891 0.263700
H33   H     H_    0.530999 0.458666 0.199176 0.250128
H34   H     H_    0.311040 0.750504 0.799305 0.279325
H35   H     H_    0.647951 0.437363 0.380436 0.226737
H36   H     H_    0.689911 0.388721 0.277132 0.217789
H37   H     H_    0.622436 0.257128 0.318556 0.242482
H38   H     H_    0.581408 0.306667 0.423149 0.246803
H39   H     H_    0.500334 0.631093 0.207636 0.269106
H40   H     H_    0.561358 0.699055 0.137956 0.261759
H41   H     H_    0.573596 0.591046 0.127049 0.250550
H42   H     H_    0.724041 0.647693 0.252282 0.234881
H43   H     H_    0.661979 0.581822 0.323022 0.211819
H44   H     H_    0.584578 0.702285 0.381124 0.253304
H45   H     H_    0.236532 0.756080 0.890387 0.253085
H46   H     H_    0.649195 0.767792 0.311126 0.231107
H47   H     H_    0.016858 0.850828 0.179288 0.267345
H48   H     H_    0.975153 0.899846 0.282816 0.263698
H49   H     H_    0.031030 0.958632 0.199103 0.250123
H50   H     H_    0.147956 0.937352 0.380384 0.226721
H51   H     H_    0.189939 0.888696 0.277107 0.217801
H52   H     H_    0.122459 0.757108 0.318543 0.242475
H53   H     H_    0.081407 0.806662 0.423109 0.246807
H54   H     H_    0.000336 0.131088 0.207641 0.269122
H55   H     H_    0.061353 0.199053 0.137958 0.261755
H56   H     H_    0.412885 0.796325 0.977630 0.220540
H57   H     H_    0.073596 0.091044 0.127051 0.250547
H58   H     H_    0.224041 0.147694 0.252280 0.234879
H59   H     H_    0.161983 0.081822 0.323024 0.211817
H60   H     H_    0.084579 0.202284 0.381124 0.253305
H61   H     H_    0.149195 0.267792 0.311126 0.231105
H62   H     H_    0.324412 0.874099 0.980179 0.244102
H63   H     H_    0.354437 0.941250 0.821972 0.248424
H64   H     H_    0.439651 0.861890 0.813059 0.195596
O1    O     O_3   0.500010 1.000000 0.500000 -0.475445
O2    O     O_R   0.103010 0.337110 0.452470 -0.664379
O3    O     O_R   0.316670 0.095240 0.537470 -0.637864
O4    O     O_R   0.316670 0.904760 0.537470 -0.664064
O5    O     O_R   0.816670 0.595240 0.537470 -0.637864
O6    O     O_R   0.816670 0.404760 0.537470 -0.664072
O7    O     O_R   0.703490 0.904800 0.585920 -0.642375
O8    O     O_R   0.703490 0.095200 0.585920 -0.645387
O9    O     O_R   0.203490 0.404800 0.585920 -0.642373
O10   O     O_R   0.203490 0.595200 0.585920 -0.645388
O11   O     O_R   0.458050 0.000000 0.725250 -0.641651
O12   O     O_3   0.000010 0.500000 0.500000 -0.475446
O13   O     O_R   0.958050 0.500000 0.725250 -0.641638
O14   O     O_R   0.461630 0.932310 0.264690 -0.654692
O15   O     O_R   0.461630 0.067690 0.264690 -0.643675
O16   O     O_R   0.961630 0.432310 0.264690 -0.654690
O17   O     O_R   0.961630 0.567690 0.264690 -0.643677
O18   O     O_R   0.618750 1.000000 0.745380 -0.651307
O19   O     O_R   0.118750 0.500000 0.745380 -0.651309
O20   O     O_3   0.391053 0.058327 0.029506 -0.752429
O21   O     O_3   0.891060 0.558325 0.029504 -0.752424
O22   O     O_3   0.352201 0.713314 0.600503 -0.797508
O23   O     O_R   0.376880 0.837120 0.424150 -0.642676
O24   O     O_3   0.341726 0.275443 0.618981 -0.780091
O25   O     O_3   0.852210 0.213303 0.600483 -0.797503
O26   O     O_3   0.841727 0.775444 0.618979 -0.780092
O27   O     O_R   0.376880 0.162880 0.424150 -0.659833
O28   O     O_R   0.876880 0.337120 0.424150 -0.642666
O29   O     O_R   0.876880 0.662880 0.424150 -0.659831
O30   O     O_R   0.603010 0.162890 0.452470 -0.664750
O31   O     O_R   0.603010 0.837110 0.452470 -0.664379
O32   O     O_R   0.103010 0.662890 0.452470 -0.664750
Zn1   Zn    Zn3+2 0.485630 0.096680 0.411850 0.955654
Zn2   Zn    Zn3+2 0.485630 0.903320 0.411850 0.955180
Zn3   Zn    Zn3+2 0.985630 0.596680 0.411850 0.955652
Zn4   Zn    Zn3+2 0.985630 0.403320 0.411850 0.955185
Zn5   Zn    Zn3+2 0.399590 0.000000 0.573760 0.984134
Zn6   Zn    Zn3+2 0.899590 0.500000 0.573760 0.984136
Zn7   Zn    Zn3+2 0.629190 1.000000 0.602520 0.974062
Zn8   Zn    Zn3+2 0.129190 0.500000 0.602520 0.974063

loop_
_geom_bond_atom_site_label_1
_geom_bond_atom_site_label_2
_ccdc_geom_bond_type
C36   H37   S    
C39   C51   S    
C24   H62   S    
C46   H60   S    
C38   H31   S    
C44   H48   S    
C31   H9    S    
C37   H36   S    
O17   Zn3   S    
O32   Zn3   S    
H30   O26   S    
O11   Zn5   S    
C21   C49   D    
C12   C49   S    
C28   H4    S    
C3    O10   A    
C18   C52   S    
C15   C32   S    
O7    Zn7   S    
C2    O7    A    
C46   C49   S    
C34   C51   S    
C37   C38   S    
C4    O9    A    
C17   C26   S    
C33   H21   S    
C36   C37   S    
O30   Zn1   S    
C32   H22   S    
O13   Zn6   S    
C34   O29   A    
C48   H55   S    
C12   O3    A    
C15   C17   D    
C20   O22   S    
O4    Zn5   S    
C7    O14   A    
C33   H20   S    
C33   C35   S    
C6    C15   S    
C29   H15   S    
O12   Zn4   S    
C48   H54   S    
O14   Zn2   S    
C47   C48   S    
C35   H18   S    
C8    O16   A    
C16   C22   S    
O1    Zn2   S    
C24   H56   S    
C10   O21   S    
C26   H7    S    
C7    O15   A    
C20   C45   D    
C11   H1    S    
O9    Zn8   S    
O12   Zn6   S    
C38   H32   S    
C22   H64   S    
C48   H57   S    
C2    C19   S    
C35   H19   S    
C3    O32   A    
O3    Zn5   S    
O6    Zn6   S    
C31   H10   S    
C4    O2    A    
C6    O13   A    
C28   H3    S    
C23   O6    A    
C5    O18   A    
C41   H41   S    
O5    Zn6   S    
C38   H33   S    
C31   H11   S    
O31   Zn2   S    
C24   C25   S    
C27   H5    S    
C39   C40   S    
C28   H2    S    
C39   H46   S    
C2    O31   A    
H28   O24   S    
C27   H6    S    
O19   Zn8   S    
C42   H52   S    
C25   H23   S    
C42   C45   S    
C43   C44   S    
O1    Zn7   S    
C29   C30   S    
C29   H16   S    
C11   C16   S    
O12   Zn3   S    
O18   Zn7   S    
C5    O11   A    
C26   C27   S    
C3    C20   S    
O29   Zn3   S    
O2    Zn4   S    
C9    C11   D    
C5    C14   S    
C30   H14   S    
C25   H45   S    
C22   H63   S    
H25   O20   S    
C34   O5    A    
O1    Zn5   S    
O16   Zn4   S    
C14   C16   D    
C23   O28   A    
O15   Zn1   S    
C6    O19   A    
C42   C43   S    
C14   C29   S    
H26   O21   S    
C36   C50   S    
C18   C50   D    
C36   H38   S    
C7    C9    S    
C46   C47   S    
C40   C41   S    
C52   O30   A    
C46   H61   S    
C41   H39   S    
C8    O17   A    
C37   H35   S    
C18   O25   S    
C40   H42   S    
C23   C50   S    
C10   C13   D    
C1    O23   A    
C32   H24   S    
C44   H49   S    
C19   O26   S    
C47   H58   S    
O23   Zn2   S    
C12   O27   A    
C13   C17   S    
C32   C33   S    
C43   H50   S    
O28   Zn4   S    
C4    C21   S    
C52   O8    A    
C1    C45   S    
C30   C31   S    
C13   H12   S    
C47   H59   S    
H29   O25   S    
C25   H34   S    
C44   H47   S    
C22   C24   S    
C42   H53   S    
C43   H51   S    
C39   H44   S    
C30   H13   S    
O12   Zn8   S    
C9    O20   S    
C19   C51   D    
O27   Zn1   S    
H27   O22   S    
C41   H40   S    
C35   H17   S    
C8    C10   S    
O8    Zn7   S    
C27   C28   S    
O1    Zn1   S    
C40   H43   S    
C21   O24   S    
C26   H8    S    
C1    O4    A    
O10   Zn8   S    
