data_mof_unit_pretest_1420.cif
_audit_creation_date              2012-12-10T17:57:54-0500
_audit_creation_method            fapswitch 2.2
_symmetry_space_group_name_H-M    P1
_symmetry_Int_Tables_number       1
_space_group_crystal_system       triclinic
_cell_length_a                    10.910919
_cell_length_b                    9.667422
_cell_length_c                    15.018633
_cell_angle_alpha                 90.000237
_cell_angle_beta                  102.037744
_cell_angle_gamma                 90.005328
_cell_volume                      1549.33701082

loop_
_atom_site_label
_atom_site_type_symbol
_atom_type_description
_atom_site_fract_x
_atom_site_fract_y
_atom_site_fract_z
_atom_type_partial_charge
C1    C     C_R   0.263317 0.499714 0.503530 0.894494
C2    C     C_R   0.130096 0.497745 0.507622 -0.332054
C3    C     C_R   0.413945 0.075544 0.434486 0.334369
C4    C     C_R   0.587517 0.924464 0.564095 0.304222
C5    C     C_R   0.586054 0.075569 0.565513 0.333827
C6    C     C_R   0.412483 0.924437 0.435903 0.314713
C7    C     C_R   0.501435 0.500003 0.329334 0.830893
C8    C     C_R   0.498473 0.500004 0.670654 0.829260
C9    C     C_R   0.608051 0.515575 0.828947 -0.123139
C10   C     C_R   0.391634 0.514457 0.171029 -0.127756
C11   C     C_R   0.495129 0.500611 0.766785 -0.155854
C12   C     C_R   0.736668 0.499723 0.496429 0.899941
C13   C     C_R   0.504680 0.500613 0.233194 -0.154820
C14   C     C_R   0.380406 0.493753 0.796138 0.373842
C15   C     C_R   0.619430 0.494915 0.203844 0.399457
C16   C     C_R   0.379819 0.514753 0.889453 -0.029785
C17   C     C_R   0.619856 0.515988 0.110511 -0.023038
C18   C     C_R   0.497335 0.518763 0.952729 -0.024376
C19   C     C_R   0.502310 0.518785 0.047232 -0.035645
C20   C     C_R   0.610434 0.520086 0.921642 0.041738
C21   C     C_R   0.389207 0.518950 0.078325 0.049884
C22   C     C_R   0.267308 0.528219 0.922969 0.388390
C23   C     C_R   0.274251 0.526782 0.016873 -0.202805
C24   C     C_R   0.732259 0.530663 0.076994 0.464992
C25   C     C_R   0.725323 0.529087 0.983089 -0.215194
C26   C     C_R   0.064197 0.370844 0.499643 0.323433
C27   C     C_R   0.935274 0.623047 0.488685 0.378082
C28   C     C_R   0.935690 0.370840 0.500033 0.326775
C29   C     C_R   0.064731 0.623023 0.511278 0.401363
C30   C     C_R   0.869858 0.497764 0.492235 -0.322577
Cu1   Cu    Cu3+1 0.500000 0.640660 0.500000 1.117858
Cu2   Cu    Cu3+1 0.500000 0.359340 0.500000 1.148451
H1    H     H_    0.694972 0.520771 0.805044 0.172208
H2    H     H_    0.806692 0.731245 0.413017 0.344987
H3    H     H_    0.932485 0.181416 0.543429 0.380741
H4    H     H_    0.193304 0.731060 0.587103 0.346650
H5    H     H_    0.216057 0.352972 0.284496 0.363546
H6    H     H_    0.805141 0.645979 0.697069 0.377046
H7    H     H_    0.783115 0.353262 0.715908 0.366294
H8    H     H_    0.195668 0.646020 0.301827 0.352634
H9    H     H_    0.304690 0.518821 0.194938 0.169368
H10   H     H_    0.188816 0.532319 0.042732 0.224013
H11   H     H_    0.810689 0.535438 0.957218 0.226260
H12   H     H_    0.289079 0.410937 0.682992 0.316681
H13   H     H_    0.711287 0.412380 0.316879 0.313902
H14   H     H_    0.169865 0.754733 0.801205 0.359508
H15   H     H_    0.950749 0.673904 0.273177 0.379165
H16   H     H_    0.067301 0.181517 0.456053 0.380669
N1    N     N_R   0.500000 0.852070 0.500000 -0.317678
N2    N     N_R   0.500000 0.147930 0.500000 -0.313205
O1    O     O_R   0.319640 0.618740 0.499990 -0.534782
O2    O     O_3   0.729688 0.462431 0.263834 -0.666957
O3    O     O_2   0.062788 0.426092 0.811284 -0.202386
O4    O     O_2   0.029178 0.619138 0.908076 -0.262093
O5    O     O_3   0.127517 0.672512 0.769431 -0.463487
O6    O     O_2   0.937289 0.430713 0.189183 -0.248568
O7    O     O_2   0.969207 0.624156 0.091644 -0.256773
O8    O     O_3   0.869092 0.677514 0.229511 -0.471319
O9    O     O_3   0.126271 0.247871 0.492827 -0.648162
O10   O     O_3   0.876287 0.747923 0.465963 -0.587952
O11   O     O_3   0.873560 0.247842 0.506698 -0.647525
O12   O     O_R   0.680360 0.381260 0.500010 -0.480183
O13   O     O_3   0.123773 0.747848 0.534132 -0.583687
O14   O     O_2   0.373447 0.146544 0.257644 -0.247365
O15   O     O_2   0.183612 0.103741 0.314429 -0.181941
O16   O     O_3   0.278931 0.334029 0.341010 -0.504239
O17   O     O_2   0.833081 0.873371 0.620331 -0.184481
O18   O     O_2   0.710452 0.888205 0.739769 -0.198622
O19   O     O_3   0.720124 0.664010 0.660253 -0.518789
O20   O     O_2   0.626514 0.146557 0.742351 -0.250458
O21   O     O_2   0.816389 0.103886 0.685594 -0.184857
O22   O     O_3   0.721043 0.334098 0.659014 -0.500942
O23   O     O_R   0.680360 0.618740 0.500010 -0.532938
O24   O     O_2   0.166908 0.873149 0.379625 -0.207553
O25   O     O_2   0.289587 0.888156 0.260219 -0.196974
O26   O     O_3   0.279999 0.663935 0.339734 -0.522178
O27   O     O_R   0.319640 0.381260 0.499990 -0.478882
O28   O     O_R   0.499970 0.618800 0.370260 -0.523195
O29   O     O_R   0.500030 0.381200 0.629740 -0.526396
O30   O     O_R   0.500030 0.618800 0.629740 -0.528055
O31   O     O_R   0.499970 0.381200 0.370260 -0.526903
O32   O     O_3   0.270369 0.460262 0.736200 -0.652772
S1    S     S_3+6 0.116803 0.559944 0.852924 0.071732
S2    S     S_3+6 0.882364 0.563981 0.147073 0.066458
S3    S     S_3+6 0.312297 0.165410 0.337753 0.134770
S4    S     S_3+6 0.711264 0.835525 0.645804 0.137825
S5    S     S_3+6 0.687685 0.165472 0.662254 0.133498
S6    S     S_3+6 0.288764 0.835446 0.354176 0.125400

loop_
_geom_bond_atom_site_label_1
_geom_bond_atom_site_label_2
_ccdc_geom_bond_type
H2    O10   S    
C29   O13   S    
C3    S3    S    
C1    O27   A    
C3    C6    A    
C25   H11   S    
O16   S3    S    
Cu1   O30   S    
Cu2   O31   S    
C23   H10   S    
Cu1   O28   S    
C2    C29   A    
C19   C21   A    
C18   C19   A    
H12   O32   S    
C27   O10   S    
C11   C14   A    
Cu1   O23   S    
C4    S4    S    
C12   O12   A    
C6    S6    S    
C27   C29   A    
C1    C2    S    
Cu2   O27   S    
H14   O5    S    
C8    O29   A    
H7    O22   S    
H4    O13   S    
C26   O9    S    
O26   S6    S    
C28   O11   S    
H6    O19   S    
C12   O23   A    
C27   C30   A    
C9    H1    S    
Cu1   N1    S    
O20   S5    D    
O4    S1    D    
C3    N2    A    
O6    S2    D    
C10   C21   A    
C17   C24   A    
C24   C25   A    
C2    C26   A    
H13   O2    S    
H8    O26   S    
O8    S2    S    
C9    C11   A    
C9    C20   A    
Cu1   Cu2   S    
C13   C15   A    
H5    O16   S    
O7    S2    D    
H3    O11   S    
C15   O2    S    
C1    O1    A    
Cu2   N2    S    
C7    O28   A    
O21   S5    D    
O18   S4    D    
C7    O31   A    
C21   C23   A    
C14   C16   A    
C5    N2    A    
C14   O32   S    
O5    S1    S    
O14   S3    D    
O22   S5    S    
H16   O9    S    
C15   C17   A    
O17   S4    D    
C16   C22   A    
C12   C30   S    
Cu1   O1    S    
C4    C5    A    
C10   C13   A    
O15   S3    D    
C26   C28   A    
C4    N1    A    
O3    S1    D    
C22   S1    S    
C28   C30   A    
C24   S2    S    
Cu2   O12   S    
Cu2   O29   S    
C8    C11   S    
C10   H9    S    
C17   C19   A    
C18   C20   A    
C6    N1    A    
C5    S5    S    
O25   S6    D    
C7    C13   S    
C16   C18   A    
C20   C25   A    
C8    O30   A    
C22   C23   A    
O24   S6    D    
O19   S4    S    
H15   O8    S    
