data_mof_unit_pretest_971.cif
_audit_creation_date              2012-12-10T18:32:49-0500
_audit_creation_method            fapswitch 2.2
_symmetry_space_group_name_H-M    P1
_symmetry_Int_Tables_number       1
_space_group_crystal_system       triclinic
_cell_length_a                    14.993269
_cell_length_b                    15.488196
_cell_length_c                    15.737752
_cell_angle_alpha                 89.979598
_cell_angle_beta                  105.358466
_cell_angle_gamma                 80.907554
_cell_volume                      3476.38338424

loop_
_atom_site_label
_atom_site_type_symbol
_atom_type_description
_atom_site_fract_x
_atom_site_fract_y
_atom_site_fract_z
_atom_type_partial_charge
C1    C     C_R   0.440596 0.662206 0.486499 0.863359
C2    C     C_3   0.424227 0.445131 0.027693 0.276761
C3    C     C_3   0.492407 0.505706 0.080380 0.180681
C4    C     C_3   0.591322 0.460617 0.073982 -0.508015
C5    C     C_3   0.596052 0.461984 0.977511 -0.520412
C6    C     C_1   0.492184 0.503294 0.172182 -0.052302
C7    C     C_1   0.504305 0.502846 0.826552 -0.057579
C8    C     C_1   0.504658 0.501841 0.751315 -0.207100
C9    C     C_R   0.403938 0.755808 0.484750 -0.115825
C10   C     C_R   0.595607 0.247826 0.499481 -0.076499
C11   C     C_R   0.384476 0.852997 0.600823 0.122040
C12   C     C_R   0.501590 0.500327 0.661703 0.883867
C13   C     C_R   0.354287 0.784620 0.546797 0.100754
C14   C     C_R   0.447693 0.814492 0.447536 0.085299
C15   C     C_R   0.465214 0.892460 0.492807 0.006044
C16   C     C_R   0.450617 0.898371 0.578658 0.043179
C17   C     C_R   0.504112 0.961173 0.462698 0.098709
C18   C     C_R   0.545151 0.019983 0.524747 0.079189
C19   C     C_R   0.560042 0.999855 0.614532 -0.226015
C20   C     C_R   0.506971 0.945323 0.641106 -0.225859
C21   C     C_R   0.498908 0.977402 0.373348 -0.243498
C22   C     C_R   0.550163 0.035681 0.349384 -0.251708
C23   C     C_R   0.559183 0.338174 0.511758 0.858710
C24   C     C_R   0.587263 0.094951 0.409773 0.147573
C25   C     C_R   0.571204 0.096034 0.494714 0.075446
C26   C     C_R   0.628710 0.160109 0.382008 -0.229822
C27   C     C_R   0.636169 0.235178 0.428981 -0.232683
C28   C     C_R   0.567047 0.177677 0.537512 0.098385
C29   C     C_R   0.836900 0.640601 0.635314 0.076432
C30   C     C_R   0.749437 0.613388 0.609995 -0.003847
C31   C     C_R   0.798102 0.511108 0.513993 -0.067952
C32   C     C_R   0.889344 0.532000 0.538111 -0.064565
C33   C     C_R   0.906790 0.605187 0.592071 0.041952
C34   C     C_R   0.498269 0.500066 0.338148 0.885408
C35   C     C_R   0.961658 0.483024 0.507177 0.101058
C36   C     C_R   0.047087 0.514717 0.516333 0.089603
C37   C     C_R   0.059350 0.592418 0.560841 -0.283696
C38   C     C_R   0.991628 0.638579 0.597712 0.176307
C39   C     C_R   0.951788 0.401033 0.470181 -0.251933
C40   C     C_R   0.018678 0.356661 0.433409 -0.165920
C41   C     C_R   0.098557 0.391761 0.432140 -0.019074
C42   C     C_R   0.116426 0.468629 0.478317 -0.041657
C43   C     C_R   0.163236 0.348227 0.389214 0.283566
C44   C     C_R   0.249950 0.376695 0.401307 0.498547
C45   C     C_3   0.423315 0.450387 0.928320 0.328115
C46   C     C_R   0.204530 0.494085 0.486761 -0.196575
C47   C     C_3   0.477438 0.600084 0.942584 -0.394398
C48   C     C_3   0.465593 0.604182 0.038553 0.315377
C49   C     C_1   0.494020 0.501391 0.248051 -0.213497
C50   C     C_3   0.499898 0.503877 0.916929 0.171051
H1    H     H_    0.443819 0.381596 0.910030 -0.019927
H2    H     H_    0.455250 0.376353 0.053256 0.002594
H3    H     H_    0.650308 0.487375 0.116717 0.218787
H4    H     H_    0.513216 0.937763 0.710883 0.157653
H5    H     H_    0.659131 0.289010 0.401128 0.150289
H6    H     H_    0.551848 0.040911 0.281142 0.145038
H7    H     H_    0.610931 0.027401 0.664196 0.142428
H8    H     H_    0.455367 0.946610 0.320729 0.183016
H9    H     H_    0.646448 0.157058 0.319507 0.139273
H10   H     H_    0.227103 0.547593 0.525291 0.168704
H11   H     H_    0.007216 0.293913 0.406212 0.182622
H12   H     H_    0.694904 0.638925 0.640974 0.153336
H13   H     H_    0.776973 0.463734 0.465736 0.134392
H14   H     H_    0.533957 0.635989 0.935723 0.169502
H15   H     H_    0.121480 0.620619 0.566699 0.154271
H16   H     H_    0.893678 0.368115 0.470840 0.138089
H17   H     H_    0.413338 0.633326 0.893325 0.195757
H18   H     H_    0.615804 0.393893 0.958300 0.180267
H19   H     H_    0.651621 0.499197 0.970607 0.205634
H20   H     H_    0.605263 0.391164 0.099027 0.167107
N1    N     N_R   0.731690 0.552720 0.548990 -0.119133
N2    N     N_R   0.268300 0.447240 0.450950 -0.158450
O1    O     O_R   0.383120 0.605620 0.475300 -0.612891
O2    O     O_R   0.531890 0.639510 0.506740 -0.624174
O3    O     O_R   0.425580 0.483050 0.607130 -0.617853
O4    O     O_R   0.574360 0.516930 0.638570 -0.615425
O5    O     O_R   0.468110 0.360490 0.493260 -0.540759
O6    O     O_R   0.616880 0.394380 0.524700 -0.624216
O7    O     O_R   0.425640 0.483070 0.361430 -0.609390
O8    O     O_R   0.574420 0.516950 0.392870 -0.614918
Zn1   Zn    Zn3+2 0.400660 0.477370 0.479010 0.955430
Zn2   Zn    Zn3+2 0.599340 0.522630 0.520990 0.927106
O9    O     O_3   0.332772 0.467320 0.039645 -0.602340
C51   C     C_3   0.291984 0.392008 0.044472 0.142350
H21   H     H_    0.330331 0.352818 0.105988 0.117669
H22   H     H_    0.293327 0.350891 0.986749 0.124172
C52   C     C_3   0.190600 0.419688 0.046116 -0.849937
H23   H     H_    0.150225 0.457238 0.984052 0.263982
H24   H     H_    0.158643 0.360872 0.052564 0.195538
H25   H     H_    0.187287 0.461343 0.102988 0.245158
C53   C     C_3   0.519453 0.197092 0.612483 -0.423878
C54   C     C_3   0.414815 0.191219 0.584372 -0.748303
H26   H     H_    0.402444 0.124016 0.567207 0.258370
H27   H     H_    0.383384 0.210585 0.639379 0.216204
H28   H     H_    0.378301 0.236069 0.526643 0.304497
H29   H     H_    0.554907 0.156611 0.673012 0.183376
H30   H     H_    0.525592 0.263645 0.636830 0.183947
C55   C     C_3   0.346861 0.878204 0.679948 -0.398083
C56   C     C_3   0.386602 0.809551 0.755884 -0.910914
H31   H     H_    0.366545 0.745009 0.736193 0.259066
H32   H     H_    0.464291 0.802333 0.777209 0.258700
H33   H     H_    0.358787 0.830602 0.812595 0.249363
H34   H     H_    0.363646 0.942456 0.704383 0.201022
H35   H     H_    0.269164 0.889024 0.661063 0.201299
C57   C     C_3   0.272018 0.741197 0.553577 -0.400554
C58   C     C_3   0.196632 0.751670 0.465316 -0.860753
H36   H     H_    0.175018 0.822032 0.444162 0.259655
H37   H     H_    0.222961 0.715729 0.413504 0.274269
H38   H     H_    0.133840 0.725768 0.471521 0.235033
H39   H     H_    0.295938 0.671219 0.574349 0.209478
H40   H     H_    0.237838 0.769314 0.603580 0.211599
C59   C     C_3   0.483196 0.785098 0.367604 -0.391676
C60   C     C_3   0.401483 0.791165 0.284321 -0.920206
H41   H     H_    0.363769 0.734858 0.284001 0.261024
H42   H     H_    0.350674 0.852492 0.280431 0.265341
H43   H     H_    0.428485 0.789853 0.225213 0.243178
H44   H     H_    0.539308 0.819397 0.358322 0.204587
H45   H     H_    0.519901 0.716693 0.375530 0.226582
O10   O     O_3   0.333602 0.490480 0.875746 -0.590013
C61   C     C_3   0.297072 0.436518 0.807091 0.107459
H46   H     H_    0.280402 0.376791 0.834601 0.124118
H47   H     H_    0.347334 0.416965 0.766924 0.144233
C62   C     C_3   0.207618 0.486604 0.746431 -0.791598
H48   H     H_    0.223717 0.544775 0.715849 0.248328
H49   H     H_    0.177093 0.443970 0.693523 0.214042
H50   H     H_    0.155728 0.508119 0.784230 0.255558
C63   C     C_3   0.009145 0.729444 0.626760 -0.417349
C64   C     C_3   0.089776 0.726242 0.710844 -0.877622
H51   H     H_    0.082178 0.681704 0.762769 0.260969
H52   H     H_    0.157983 0.702940 0.696677 0.250704
H53   H     H_    0.091283 0.792925 0.736462 0.253071
H54   H     H_    0.027996 0.763672 0.573470 0.202408
H55   H     H_    0.945896 0.772121 0.633881 0.225566
O11   O     O_3   0.323113 0.324034 0.378898 -0.578411
C65   C     C_3   0.312104 0.326275 0.286939 0.181685
H56   H     H_    0.368456 0.357840 0.273094 0.165300
H57   H     H_    0.244774 0.364418 0.247179 0.075718
C66   C     C_3   0.324805 0.232684 0.256637 -0.843181
H58   H     H_    0.397641 0.199423 0.287287 0.258858
H59   H     H_    0.275754 0.195154 0.276195 0.295291
H60   H     H_    0.311276 0.232499 0.183893 0.183119
C67   C     C_3   0.853011 0.694188 0.717104 -0.436204
C68   C     C_3   0.793085 0.785543 0.700415 -0.876618
H61   H     H_    0.718270 0.781177 0.693391 0.256370
H62   H     H_    0.816957 0.826534 0.757200 0.250888
H63   H     H_    0.798000 0.818362 0.639529 0.258512
H64   H     H_    0.927298 0.698450 0.746254 0.230894
H65   H     H_    0.833371 0.659532 0.769652 0.199749
O12   O     O_3   0.149265 0.270340 0.348237 -0.590750
C69   C     C_3   0.082361 0.287205 0.265009 0.066807
H66   H     H_    0.115637 0.307043 0.214737 0.144529
H67   H     H_    0.022186 0.339431 0.265395 0.130766
C70   C     C_3   0.043800 0.203717 0.235849 -0.837730
H68   H     H_    0.008398 0.182280 0.283943 0.249674
H69   H     H_    0.992271 0.215618 0.170088 0.204082
H70   H     H_    0.101708 0.151002 0.231376 0.257793
C71   C     C_3   0.359470 0.641744 0.032726 -0.347658
C72   C     C_3   0.326972 0.739944 0.008547 -0.988739
H71   H     H_    0.353882 0.779859 0.065279 0.260190
H72   H     H_    0.349678 0.759724 0.950917 0.264145
H73   H     H_    0.249194 0.754678 0.991457 0.270876
H74   H     H_    0.312271 0.609163 0.981137 0.296064
H75   H     H_    0.344187 0.628805 0.096479 0.226980
C73   C     C_3   0.525246 0.670710 0.094037 -0.347212
C74   C     C_3   0.632329 0.652185 0.116213 -0.924983
H76   H     H_    0.661605 0.610201 0.177487 0.260274
H77   H     H_    0.657831 0.623998 0.060686 0.262854
H78   H     H_    0.659825 0.714653 0.130753 0.246508
H79   H     H_    0.505460 0.735142 0.057307 0.215559
H80   H     H_    0.506169 0.680446 0.157276 0.208162

loop_
_geom_bond_atom_site_label_1
_geom_bond_atom_site_label_2
_ccdc_geom_bond_type
C10   C27   A    
C65   C66   S    
C57   H39   S    
C71   C72   S    
C4    H3    S    
C68   H63   S    
C41   C42   A    
C36   C42   A    
C35   C36   A    
C51   C52   S    
C52   H23   S    
C3    C6    S    
C64   H51   S    
C4    H20   S    
C30   N1    A    
C73   H79   S    
C62   H48   S    
C19   H7    S    
C25   C28   A    
C14   C59   S    
C26   C27   A    
C74   H76   S    
C11   C55   S    
C1    O2    A    
C73   C74   S    
C51   H22   S    
C59   H44   S    
C27   H5    S    
C68   H61   S    
C62   H49   S    
C58   H36   S    
C45   H1    S    
C15   C16   A    
C29   C33   A    
C3    C48   S    
C68   H62   S    
C18   C19   A    
C42   C46   A    
O1    Zn1   S    
C9    C13   A    
C63   H54   S    
C5    H19   S    
C72   H73   S    
C34   O8    A    
C53   H29   S    
C73   H80   S    
O9    C51   S    
C69   C70   S    
C37   H15   S    
C47   C48   S    
C63   C64   S    
C70   H69   S    
C29   C30   A    
C26   H9    S    
C71   H75   S    
C46   N2    A    
N2    Zn1   S    
C43   O12   S    
C61   C62   S    
C8    C12   S    
C60   H43   S    
C45   O10   S    
C31   N1    A    
C57   H40   S    
C74   H77   S    
C21   C22   A    
C72   H72   S    
C41   C43   A    
C2    O9    S    
C18   C25   A    
O2    Zn2   S    
C5    H18   S    
C47   H17   S    
C59   C60   S    
C61   H47   S    
C38   C63   S    
C47   C50   S    
C2    C45   S    
C44   O11   S    
C32   C35   A    
C31   H13   S    
C65   H56   S    
C1    C9    S    
C24   C25   A    
C20   H4    S    
O4    Zn2   S    
C53   C54   S    
O7    Zn1   S    
O3    Zn1   S    
C62   H50   S    
C22   H6    S    
C54   H28   S    
C53   H30   S    
C40   H11   S    
C35   C39   A    
C9    C14   A    
C37   C38   A    
C67   H65   S    
C34   O7    A    
C11   C16   A    
O6    Zn2   S    
C31   C32   A    
O5    Zn1   S    
C16   C20   A    
C54   H27   S    
C17   C18   A    
C51   H21   S    
C70   H70   S    
C2    H2    S    
C48   C73   S    
C13   C57   S    
C40   C41   A    
C56   H32   S    
C74   H78   S    
C30   H12   S    
C43   C44   A    
C72   H71   S    
C39   H16   S    
C22   C24   A    
C5    C50   S    
C12   O3    A    
C3    C4    S    
C64   H53   S    
C39   C40   A    
C61   H46   S    
C60   H41   S    
C57   C58   S    
C10   C28   A    
C65   H57   S    
C23   O5    A    
C34   C49   S    
C46   H10   S    
C69   H66   S    
C67   H64   S    
C63   H55   S    
C7    C50   S    
C24   C26   A    
C4    C5    S    
C66   H60   S    
C64   H52   S    
O10   C61   S    
C47   H14   S    
C15   C17   A    
O11   C65   S    
C66   H59   S    
C10   C23   S    
C48   C71   S    
C33   C38   A    
C56   H31   S    
C1    O1    A    
C32   C33   A    
N1    Zn2   S    
C19   C20   A    
C12   O4    A    
C2    C3    S    
C21   H8    S    
O12   C69   S    
C59   H45   S    
C11   C13   A    
C58   H37   S    
C45   C50   S    
C55   H35   S    
C29   C67   S    
C54   H26   S    
O8    Zn2   S    
C44   N2    A    
C28   C53   S    
C69   H67   S    
C23   O6    A    
C17   C21   A    
C7    C8    T    
C66   H58   S    
C56   H33   S    
C36   C37   A    
C55   C56   S    
C52   H25   S    
C67   C68   S    
C52   H24   S    
C14   C15   A    
C70   H68   S    
C71   H74   S    
C6    C49   T    
C55   H34   S    
C60   H42   S    
C58   H38   S    
