data_mof_unit_pretest_778.cif
_audit_creation_date              2012-12-10T17:06:41-0500
_audit_creation_method            fapswitch 2.2
_symmetry_space_group_name_H-M    P1
_symmetry_Int_Tables_number       1
_space_group_crystal_system       triclinic
_cell_length_a                    15.856422
_cell_length_b                    11.094525
_cell_length_c                    10.166275
_cell_angle_alpha                 112.615538
_cell_angle_beta                  99.615999
_cell_angle_gamma                 92.250488
_cell_volume                      1617.16836845

loop_
_atom_site_label
_atom_site_type_symbol
_atom_type_description
_atom_site_fract_x
_atom_site_fract_y
_atom_site_fract_z
_atom_type_partial_charge
C1    C     C_R   0.493763 0.253750 0.439171 0.775552
C2    C     C_R   0.505657 0.746207 0.560961 0.779766
C3    C     C_2   0.493456 0.069233 0.512116 -0.165153
C4    C     C_2   0.493261 0.930130 0.487969 -0.155182
C5    C     C_2   0.503785 0.516844 0.084660 0.367357
C6    C     C_2   0.488183 0.496819 0.919417 0.366965
C7    C     C_R   0.340260 0.499709 0.499006 0.816651
C8    C     C_R   0.659731 0.500433 0.501014 0.825950
C9    C     C_3   0.964359 0.376614 0.466256 -0.239164
C10   C     C_3   0.035614 0.624105 0.534039 -0.239641
C11   C     C_3   0.010787 0.421551 0.367489 0.175788
C12   C     C_3   0.989170 0.579160 0.632800 0.176757
C13   C     C_1   0.250285 0.499573 0.497440 -0.134836
C14   C     C_1   0.749698 0.500788 0.502666 -0.146894
C15   C     C_3   0.037250 0.455604 0.598151 0.165201
C16   C     C_3   0.962715 0.545110 0.402140 0.167894
C17   C     C_3   0.082950 0.499462 0.499057 0.018071
C18   C     C_3   0.917030 0.501239 0.501227 0.019242
C19   C     C_1   0.174713 0.499651 0.497820 -0.052959
C20   C     C_1   0.825274 0.500900 0.502394 -0.054022
C21   C     C_2   0.491345 0.112047 0.404152 0.191028
C22   C     C_2   0.507215 0.887935 0.596880 0.194033
Cu1   Cu    Cu3+1 0.514700 0.521810 0.644910 1.037239
Cu2   Cu    Cu3+1 0.485300 0.478190 0.355090 1.029251
H1    H     H_    0.933739 0.275960 0.438651 0.154918
H2    H     H_    0.066230 0.724761 0.561650 0.153213
H3    H     H_    0.480907 0.859168 0.376225 0.236242
H4    H     H_    0.495352 0.139244 0.622295 0.226874
N1    N     N_2   0.463210 0.445420 0.137360 -0.148235
N2    N     N_2   0.536790 0.554580 0.862640 -0.148009
O1    O     O_R   0.507840 0.332340 0.577400 -0.552114
O2    O     O_R   0.492160 0.667660 0.422600 -0.542270
O3    O     O_R   0.483020 0.295500 0.332650 -0.548361
O4    O     O_R   0.516980 0.704500 0.667350 -0.540979
O5    O     O_R   0.391490 0.518400 0.622350 -0.490067
O6    O     O_R   0.608510 0.481600 0.377650 -0.501965
O7    O     O_R   0.366660 0.481570 0.377600 -0.598920
O8    O     O_R   0.633340 0.518430 0.622400 -0.591749
C23   C     C_3   0.029218 0.327902 0.221752 -0.405138
C24   C     C_3   0.946887 0.259588 0.110675 -0.812643
H5    H     H_    0.905297 0.207901 0.154855 0.257208
H6    H     H_    0.910842 0.331542 0.080148 0.257368
H7    H     H_    0.963619 0.186211 0.010979 0.241728
H8    H     H_    0.068722 0.382773 0.178066 0.204690
H9    H     H_    0.067289 0.252036 0.240519 0.202965
C25   C     C_3   0.970595 0.672741 0.778466 -0.404125
C26   C     C_3   0.052844 0.741136 0.889684 -0.816310
H10   H     H_    0.088955 0.669193 0.920146 0.258109
H11   H     H_    0.094409 0.793004 0.845645 0.255587
H12   H     H_    0.036009 0.814368 0.989393 0.241433
H13   H     H_    0.932497 0.748556 0.759638 0.204388
H14   H     H_    0.931051 0.617818 0.822046 0.202022
C27   C     C_3   0.915983 0.601854 0.298328 -0.371504
C28   C     C_3   0.976513 0.642130 0.216664 -0.846250
H15   H     H_    0.031192 0.713066 0.294162 0.254797
H16   H     H_    0.001691 0.555037 0.143002 0.253896
H17   H     H_    0.940810 0.689709 0.149721 0.245171
H18   H     H_    0.862815 0.528710 0.219630 0.213113
H19   H     H_    0.887088 0.689778 0.362714 0.211058
C29   C     C_3   0.083911 0.398853 0.701994 -0.366941
C30   C     C_3   0.023289 0.358586 0.783537 -0.846828
H20   H     H_    0.998145 0.445701 0.857260 0.253523
H21   H     H_    0.968577 0.287758 0.705944 0.255320
H22   H     H_    0.058900 0.310850 0.850406 0.246078
H23   H     H_    0.112822 0.310924 0.637651 0.211149
H24   H     H_    0.137064 0.471994 0.780752 0.217956
Cl1   Cl    Cl    0.527582 0.997240 0.782084 -0.594725
Cl2   Cl    Cl    0.490141 0.003668 0.222680 -0.598478
Cl3   Cl    Cl    0.399699 0.390927 0.790919 -0.671957
Cl4   Cl    Cl    0.580918 0.641544 0.219389 -0.653825
C31   C     C_3   0.612002 0.647421 0.957920 -0.138769
C32   C     C_3   0.676650 0.702364 0.893427 -0.698081
H25   H     H_    0.721089 0.629642 0.847342 0.226139
H26   H     H_    0.647772 0.745506 0.818282 0.286841
H27   H     H_    0.719114 0.784744 0.984191 0.202179
H28   H     H_    0.588074 0.736109 0.032194 0.251251
H29   H     H_    0.653647 0.595663 0.013026 0.192369
C33   C     C_3   0.398321 0.335868 0.037761 -0.170517
C34   C     C_3   0.362844 0.236453 0.090404 -0.666097
H30   H     H_    0.410498 0.167915 0.097721 0.303670
H31   H     H_    0.336409 0.279839 0.189447 0.252276
H32   H     H_    0.307737 0.173394 0.005295 0.193115
H33   H     H_    0.340749 0.377671 0.001614 0.203743
H34   H     H_    0.428452 0.271213 0.948771 0.235572

loop_
_geom_bond_atom_site_label_1
_geom_bond_atom_site_label_2
_ccdc_geom_bond_type
C6    Cl3   S    
C1    C21   S    
C15   C29   S    
N2    C31   S    
C27   H19   S    
C9    H1    S    
C26   H11   S    
C27   C28   S    
Cu2   O6    S    
C3    H4    S    
C5    C6    S    
C10   C17   S    
C25   H14   S    
C1    O1    A    
C2    O2    A    
C8    O6    A    
C30   H21   S    
C16   C27   S    
C25   C26   S    
C33   H33   S    
C24   H7    S    
N1    C33   S    
C2    C22   S    
Cu1   Cu2   S    
C23   H9    S    
C10   H2    S    
C24   H6    S    
C29   H24   S    
C8    O8    A    
C32   H27   S    
C26   H12   S    
C5    N1    D    
C28   H16   S    
C13   C19   T    
C1    O3    A    
Cu1   N2    S    
C14   C20   T    
C32   H26   S    
C23   C24   S    
C34   H31   S    
C33   C34   S    
C25   H13   S    
C29   C30   S    
Cu1   O1    S    
C30   H22   S    
Cu2   O2    S    
C5    Cl4   S    
C4    C22   D    
C11   C16   S    
C26   H10   S    
C12   C15   S    
C7    C13   S    
Cu1   O4    S    
Cu2   O7    S    
C7    O7    A    
C11   C23   S    
C9    C11   S    
C10   C12   S    
C12   C25   S    
C24   H5    S    
C6    N2    D    
C29   H23   S    
Cu1   O5    S    
C21   Cl2   S    
C3    C21   D    
C3    C4    S    
C31   H29   S    
C4    H3    S    
C15   C17   S    
C28   H15   S    
C11   C17   S    
C8    C14   S    
C7    O5    A    
C32   H25   S    
C34   H32   S    
C27   H18   S    
C23   H8    S    
Cu1   O8    S    
Cu2   O3    S    
C9    C15   S    
C31   C32   S    
C10   C16   S    
C2    O4    A    
C31   H28   S    
C17   C19   S    
C18   C20   S    
C30   H20   S    
C22   Cl1   S    
C34   H30   S    
C33   H34   S    
C9    C18   S    
Cu2   N1    S    
C16   C18   S    
C12   C18   S    
C28   H17   S    
