data_mof_unit_pretest_187.cif
_audit_creation_date              2012-12-11T20:22:16-0500
_audit_creation_method            fapswitch 2.2
_symmetry_space_group_name_H-M    P1
_symmetry_Int_Tables_number       1
_space_group_crystal_system       triclinic
_cell_length_a                    8.225115
_cell_length_b                    17.459959
_cell_length_c                    26.97315
_cell_angle_alpha                 99.863832
_cell_angle_beta                  92.669017
_cell_angle_gamma                 81.424906
_cell_volume                      3772.81676157

loop_
_atom_site_label
_atom_site_type_symbol
_atom_type_description
_atom_site_fract_x
_atom_site_fract_y
_atom_site_fract_z
_atom_type_partial_charge
Ba1   Ba    Ba6+2 0.860160 0.462360 0.521850 1.644023
Ba2   Ba    Ba6+2 0.329680 0.537570 0.478140 1.653001
C1    C     C_3   0.729143 0.184890 0.648436 -0.078587
C2    C     C_R   0.907106 0.580319 0.181395 0.580166
C3    C     C_2   0.760372 0.554690 0.275149 -0.090997
C4    C     C_3   0.176823 0.286707 0.651554 0.273401
C5    C     C_3   0.735893 0.579941 0.331105 -0.088827
C6    C     C_1   0.986610 0.488684 0.343097 0.032248
C7    C     C_2   0.030759 0.486473 0.295758 -0.095125
C8    C     C_2   0.909839 0.518596 0.257895 0.202470
C9    C     C_R   0.031483 0.510219 0.102934 -0.081311
C10   C     C_R   0.086037 0.445694 0.127548 -0.035227
C11   C     C_R   0.181855 0.379666 0.100750 -0.059175
C12   C     C_3   0.701776 0.264078 0.630197 0.392731
C13   C     C_R   0.939517 0.577431 0.130099 -0.024133
C14   C     C_2   0.847863 0.529229 0.361968 -0.265685
C15   C     C_2   0.353831 0.482330 0.640219 -0.283091
C16   C     C_3   0.142069 0.268425 0.702760 -0.351274
C17   C     C_R   0.212098 0.440143 0.973778 0.019937
C18   C     C_R   0.040748 0.569330 0.974720 0.020514
C19   C     C_R   0.145679 0.503866 0.948781 0.049806
C20   C     C_R   0.319610 0.377591 0.946493 -0.099576
C21   C     C_R   0.357291 0.376858 0.896504 -0.060182
C22   C     C_R   0.290374 0.438504 0.871156 -0.033251
C23   C     C_3   0.483084 0.660154 0.634418 0.302397
C24   C     C_R   0.184640 0.502228 0.897269 -0.077998
C25   C     C_R   0.118067 0.564473 0.871899 -0.032236
C26   C     C_R   0.159788 0.562923 0.821359 0.588711
C27   C     C_R   0.327352 0.437640 0.820220 0.580566
C28   C     C_3   0.217839 0.298061 0.410283 0.312503
C29   C     C_2   0.462121 0.486171 0.728468 -0.066291
C30   C     C_3   0.502864 0.490086 0.674589 -0.053335
C31   C     C_1   0.208714 0.515834 0.657367 0.039495
C32   C     C_2   0.170062 0.515594 0.704660 -0.105086
C33   C     C_2   0.303158 0.499133 0.743350 0.199428
C34   C     C_3   0.452724 0.691005 0.689948 -0.373926
C35   C     C_R   0.169759 0.441141 0.024892 0.019808
C36   C     C_R   0.069561 0.507875 0.051269 0.049570
C37   C     C_R   0.007262 0.572515 0.026630 0.019996
C38   C     C_R   0.223703 0.377513 0.050882 -0.099440
C39   C     C_R   0.882537 0.641346 0.105690 -0.058143
C40   C     C_3   0.238246 0.209202 0.395520 -0.375729
C41   C     C_R   0.972259 0.629595 0.947503 -0.099926
C42   C     C_R   0.010782 0.627285 0.897518 -0.060860
C43   C     C_R   0.914444 0.638896 0.055239 -0.100790
C44   C     C_2   0.442966 0.278460 0.512029 -0.257692
C45   C     C_3   0.955135 0.726354 0.350767 0.358673
C46   C     C_3   0.374249 0.227615 0.543233 -0.024882
C47   C     C_2   0.421979 0.141459 0.525697 -0.116272
C48   C     C_2   0.556252 0.115878 0.497169 0.005547
C49   C     C_2   0.637288 0.174373 0.476438 -0.121353
C50   C     C_1   0.573490 0.249733 0.484232 0.060592
C51   C     C_R   0.802177 0.864926 0.478800 -0.169301
C52   C     C_3   0.978300 0.703037 0.589730 0.307887
C53   C     C_R   0.855488 0.784293 0.470927 -0.000867
C54   C     C_R   0.623163 0.763035 0.516431 0.032161
C55   C     C_R   0.573059 0.844974 0.527099 0.092305
C56   C     C_3   0.929437 0.763122 0.303355 -0.339039
C57   C     C_R   0.659498 0.895867 0.506393 0.049085
C58   C     C_2   0.622367 0.031113 0.485629 -0.088205
C59   C     C_2   0.606886 0.981712 0.517773 -0.057981
C60   C     C_R   0.761270 0.733540 0.487236 -0.303518
C61   C     C_3   0.959742 0.791671 0.605989 -0.387074
C62   C     C_3   0.697691 0.363506 0.369294 0.302155
C63   C     C_3   0.702707 0.343885 0.312204 -0.350326
C64   C     C_3   0.463756 0.735451 0.334014 0.503449
C65   C     C_3   0.388451 0.785466 0.294837 -0.066699
C66   C     C_R   0.042549 0.448173 0.178288 0.593805
H1    H     H_    0.324920 0.189969 0.363980 0.122959
H2    H     H_    0.601709 0.414784 0.379893 0.086501
H3    H     H_    0.766644 0.137134 0.615978 0.042045
H4    H     H_    0.801707 0.294200 0.300628 0.129386
H5    H     H_    0.727131 0.395444 0.296353 0.074039
H6    H     H_    0.582722 0.327452 0.296830 0.137122
H7    H     H_    0.592175 0.267034 0.604892 -0.050923
H8    H     H_    0.366021 0.644045 0.616563 0.032327
H9    H     H_    0.578769 0.607640 0.630574 0.034907
H10   H     H_    0.364996 0.746449 0.694225 0.137740
H11   H     H_    0.399108 0.647829 0.707472 0.076363
H12   H     H_    0.287167 0.180878 0.427934 0.070762
H13   H     H_    0.570164 0.702358 0.709803 0.125530
H14   H     H_    0.831062 0.184445 0.677388 0.115705
H15   H     H_    0.209296 0.304183 0.732343 0.135575
H16   H     H_    0.998417 0.662481 0.340195 0.047040
H17   H     H_    0.834146 0.735499 0.369327 -0.100202
H18   H     H_    0.035134 0.741382 0.278020 0.137333
H19   H     H_    0.815612 0.746840 0.283018 0.126560
H20   H     H_    0.915674 0.828450 0.313142 0.104840
H21   H     H_    0.595841 0.719811 0.325367 -0.103465
H22   H     H_    0.455368 0.836664 0.296605 0.062284
H23   H     H_    0.117371 0.190178 0.383738 0.131334
H24   H     H_    0.258389 0.809037 0.303705 0.129522
H25   H     H_    0.126241 0.349063 0.650716 0.075301
H26   H     H_    0.156332 0.464146 0.284863 0.136392
H27   H     H_    0.226359 0.328995 0.118449 0.122369
H28   H     H_    0.562025 0.478108 0.755709 0.105708
H29   H     H_    0.440459 0.327324 0.877697 0.123169
H30   H     H_    0.379053 0.328163 0.962819 0.069433
H31   H     H_    0.297198 0.324132 0.033571 0.069761
H32   H     H_    0.664757 0.575614 0.249578 0.102377
H33   H     H_    0.885935 0.679512 0.963439 0.069484
H34   H     H_    0.857393 0.685355 0.578010 0.006317
H35   H     H_    0.955030 0.675407 0.878842 0.121951
H36   H     H_    0.042537 0.528322 0.715767 0.133962
H37   H     H_    0.866655 0.691213 0.040166 0.070108
H38   H     H_    0.827493 0.539334 0.402232 0.077909
H39   H     H_    0.366110 0.450944 0.601857 0.071735
H40   H     H_    0.548515 0.004593 0.553569 0.096239
H41   H     H_    0.746503 0.154359 0.454016 0.085615
H42   H     H_    0.876662 0.903365 0.465810 0.079789
H43   H     H_    0.684995 0.009618 0.450364 0.074346
H44   H     H_    0.354632 0.101123 0.539857 0.079556
H45   H     H_    0.062776 0.686464 0.557624 0.069953
H46   H     H_    0.008803 0.282797 0.710251 0.134793
H47   H     H_    0.401770 0.341204 0.519920 0.071122
H48   H     H_    0.802669 0.670924 0.480584 0.066176
H49   H     H_    0.182716 0.205407 0.704188 0.127002
H50   H     H_    0.137550 0.315025 0.443456 0.076190
H51   H     H_    0.810552 0.267934 0.608282 0.077538
H52   H     H_    0.608478 0.121541 0.687781 0.183776
H53   H     H_    0.496244 0.155382 0.640549 0.161946
H54   H     H_    0.511180 0.829662 0.386593 0.115366
H55   H     H_    0.500830 0.748823 0.410565 0.170995
H56   H     H_    0.868128 0.810327 0.636199 0.132266
H57   H     H_    0.328170 0.694584 0.241107 0.203893
H58   H     H_    0.521124 0.716262 0.236563 0.206704
H59   H     H_    0.811124 0.694010 0.125563 0.122697
H60   H     H_    0.312254 0.278868 0.647216 0.014972
H61   H     H_    0.334853 0.853057 0.547273 0.211525
H62   H     H_    0.471480 0.863131 0.595789 0.181871
H63   H     H_    0.339510 0.316414 0.419954 0.001911
H64   H     H_    0.918296 0.822004 0.573912 0.059269
H65   H     H_    0.079798 0.809346 0.620195 0.122417
H66   H     H_    0.818700 0.378228 0.383941 0.006532
N1    N     N_R   0.953398 0.515257 0.205101 -0.420085
N2    N     N_R   0.262748 0.499695 0.795730 -0.425350
N3    N     N_3   0.578557 0.170854 0.670238 -0.463889
N4    N     N_3   0.444583 0.782524 0.384385 -0.435155
N5    N     N_3   0.398171 0.740857 0.243618 -0.495826
N6    N     N_3   0.439902 0.877582 0.560373 -0.513631
O1    O     O_2   0.906370 0.542040 0.619810 -0.464635
O2    O     O_2   0.197497 0.778436 0.473274 -0.470709
O3    O     O_3   0.074500 0.761535 0.381875 -0.559113
O4    O     O_3   0.138370 0.541980 0.559630 -0.493635
O5    O     O_3   0.572820 0.404940 0.471170 -0.494155
O6    O     O_2   0.345130 0.693150 0.532000 -0.469755
O7    O     O_3   0.537834 0.719040 0.613038 -0.647675
O8    O     O_2   0.444336 0.516810 0.326695 -0.490620
O9    O     O_3   0.383273 0.668555 0.330542 -0.567894
O10   O     O_2   0.082540 0.390076 0.198160 -0.598564
O11   O     O_2   0.416088 0.381185 0.797591 -0.589233
O12   O     O_3   0.662275 0.298128 0.388107 -0.634651
O13   O     O_2   0.839185 0.641755 0.205125 -0.638058
O14   O     O_2   0.106291 0.618703 0.800479 -0.599605
O15   O     O_3   0.686580 0.398330 0.583860 -0.493842
O16   O     O_2   0.845301 0.439470 0.670046 -0.499586
O17   O     O_3   0.039622 0.667752 0.630779 -0.626066
O18   O     O_3   0.677377 0.325887 0.671546 -0.585574
O19   O     O_2   0.844570 0.306830 0.467970 -0.462824
O20   O     O_3   0.101900 0.357890 0.557750 -0.487569
O21   O     O_2   0.039395 0.215021 0.515802 -0.483858
O22   O     O_3   0.102692 0.236402 0.613672 -0.611738
O23   O     O_2   0.283330 0.457940 0.380160 -0.451070
O24   O     O_3   0.051340 0.457960 0.440360 -0.501246
O25   O     O_3   0.503130 0.601610 0.416130 -0.462055
O26   O     O_3   0.149201 0.332113 0.369411 -0.625015
O27   O     O_3   0.616890 0.595000 0.528820 -0.475614
O28   O     O_3   0.087820 0.642040 0.442240 -0.480305
P1    P     P_3+3 0.071770 0.565500 0.613330 0.996000
P2    P     P_3+3 0.664870 0.318630 0.453960 0.979421
P3    P     P_3+3 0.152261 0.257276 0.555573 0.933946
P4    P     P_3+3 0.117940 0.434440 0.386660 0.993613
P5    P     P_3+3 0.054881 0.743080 0.442826 0.997701
P6    P     P_3+3 0.678195 0.415153 0.649813 0.965753
P7    P     P_3+3 0.531754 0.693815 0.547446 0.942593
P8    P     P_3+3 0.517502 0.591309 0.350575 0.960838

loop_
_geom_bond_atom_site_label_1
_geom_bond_atom_site_label_2
_ccdc_geom_bond_type
C51   H42   S    
C19   C24   A    
C52   H45   S    
O26   P4    S    
C20   H30   S    
O19   P2    D    
C44   C50   D    
Ba2   O4    S    
C39   H59   S    
Ba1   O5    S    
H62   N6    S    
C56   H19   S    
C16   H46   S    
C38   H31   S    
C61   H56   S    
C51   C57   A    
H57   N5    S    
O25   P8    S    
C40   H12   S    
C10   C66   A    
H55   N4    S    
O16   P6    D    
C24   C25   A    
O8    P8    D    
C44   H47   S    
C62   O12   S    
C23   H9    S    
C61   H65   S    
C17   C19   A    
C22   C24   A    
Ba1   Ba2   S    
C35   C38   A    
C15   H39   S    
C36   C37   A    
O7    P7    S    
C55   C57   A    
C52   C61   S    
Ba1   O27   S    
C28   H63   S    
C53   C60   A    
C45   O3    S    
Ba1   P2    S    
C63   H5    S    
C54   C55   A    
C32   C33   S    
H53   N3    S    
Ba1   O15   S    
C59   H40   S    
C22   C27   A    
C53   P5    S    
C11   C38   A    
C17   C35   A    
O17   P1    S    
C9    C13   A    
C25   C42   A    
O18   P6    S    
O22   P3    S    
C4    O22   S    
Ba1   O24   S    
C6    C7    D    
C21   C22   A    
C1    N3    S    
C62   H2    S    
C64   H21   S    
C65   N5    S    
C7    C8    S    
C14   H38   S    
C37   C43   A    
C64   C65   S    
C31   P1    S    
C49   H41   S    
C5    P8    S    
C26   O14   D    
C15   C31   D    
C56   H18   S    
C20   C21   A    
C42   H35   S    
C43   H37   S    
C48   C49   S    
O2    P5    D    
C44   C46   S    
C51   C53   A    
O28   P5    S    
C4    C16   S    
C62   H66   S    
H58   N5    S    
C57   C59   S    
C54   P7    S    
C49   C50   D    
Ba1   O19   S    
C17   C20   A    
C66   O10   D    
C8    N1    S    
C13   C39   A    
C64   O9    S    
Ba2   O24   S    
C3    C5    S    
C18   C37   A    
C28   H50   S    
C45   H16   S    
C30   P6    S    
O4    P1    S    
C65   H22   S    
C32   H36   S    
C63   H6    S    
C55   N6    S    
C56   H20   S    
C58   C59   D    
Ba2   O5    S    
C33   N2    S    
C9    C36   A    
C1    H3    S    
C41   C42   A    
C41   H33   S    
C60   H48   S    
C35   C36   A    
C27   O11   D    
C46   P3    S    
O12   P2    S    
C29   C30   S    
C64   N4    S    
C3    H32   S    
C34   H13   S    
C4    H25   S    
O6    P7    D    
C1    H14   S    
O1    P1    D    
C16   H15   S    
C23   O7    S    
C61   H64   S    
C18   C19   A    
O23   P4    D    
C16   H49   S    
H54   N4    S    
C1    C12   S    
C2    N1    Am   
O15   P6    S    
C46   C47   S    
C21   H29   S    
C12   O18   S    
C47   C48   D    
C47   H44   S    
C54   C60   A    
O24   P4    S    
O3    P5    S    
C50   P2    S    
Ba2   O28   S    
C18   C41   A    
O27   P7    S    
C28   O26   S    
O5    P2    S    
C5    C14   S    
C26   N2    Am   
C52   H34   S    
Ba1   O20   S    
C34   H11   S    
C45   H17   S    
Ba2   O23   S    
C9    C10   A    
Ba2   O6    S    
C63   H4    S    
C23   H8    S    
C48   C58   S    
C62   C63   S    
O9    P8    S    
C2    C13   A    
C4    H60   S    
C3    C8    D    
Ba1   O4    S    
C34   H10   S    
C12   H7    S    
C45   C56   S    
C11   H27   S    
H61   N6    S    
C66   N1    Am   
C7    H26   S    
Ba1   P1    S    
C65   H24   S    
O20   P3    S    
C31   C32   D    
C2    O13   D    
C29   C33   D    
C40   H1    S    
Ba1   O1    S    
C23   C34   S    
O21   P3    D    
C6    P4    S    
C27   N2    Am   
C10   C11   A    
C6    C14   D    
C12   H51   S    
C25   C26   A    
C58   H43   S    
C15   C30   S    
C39   C43   A    
Ba2   O25   S    
C28   C40   S    
H52   N3    S    
Ba2   O27   S    
C40   H23   S    
Ba2   P4    S    
C29   H28   S    
C52   O17   S    
