data_mof_unit_pretest_611.cif
_audit_creation_date              2012-12-10T20:34:49-0500
_audit_creation_method            fapswitch 2.2
_symmetry_space_group_name_H-M    P1
_symmetry_Int_Tables_number       1
_space_group_crystal_system       triclinic
_cell_length_a                    10.707651
_cell_length_b                    10.716044
_cell_length_c                    9.982944
_cell_angle_alpha                 89.106211
_cell_angle_beta                  90.941871
_cell_angle_gamma                 89.550461
_cell_volume                      1145.14779402

loop_
_atom_site_label
_atom_site_type_symbol
_atom_type_description
_atom_site_fract_x
_atom_site_fract_y
_atom_site_fract_z
_atom_type_partial_charge
C1    C     C_R   0.498926 0.260948 0.501320 0.868818
C2    C     C_3   0.877789 0.491950 0.496656 0.179687
C3    C     C_3   0.923111 0.608927 0.419641 -0.366915
C4    C     C_3   0.927246 0.373566 0.426219 -0.397707
C5    C     C_R   0.530613 0.061985 0.614888 0.133715
C6    C     C_R   0.484724 0.130265 0.505740 -0.120289
C7    C     C_R   0.419337 0.071943 0.403288 -0.317893
C8    C     C_R   0.418189 0.942737 0.397727 0.213341
C9    C     C_R   0.481888 0.873086 0.500350 -0.173839
C10   C     C_R   0.529377 0.934566 0.611996 0.097388
C11   C     C_3   0.656672 0.924927 0.675296 -0.446947
C12   C     C_R   0.257527 0.497705 0.498683 0.780432
C13   C     C_3   0.657129 0.066088 0.679238 -0.517595
C14   C     C_R   0.462003 0.398043 0.073081 0.014287
C15   C     C_R   0.558305 0.591871 0.072633 0.359860
C16   C     C_R   0.571255 0.582170 0.928249 0.354368
C17   C     C_R   0.453762 0.401029 0.932287 -0.040227
C18   C     C_3   0.325744 0.340416 0.940334 0.444061
C19   C     C_3   0.344632 0.330671 0.092456 -0.497577
C20   C     C_R   0.496248 0.740011 0.499049 0.882270
C21   C     C_R   0.741675 0.494972 0.500028 0.815588
C22   C     C_3   0.071878 0.488341 0.639571 -0.394159
C23   C     C_3   0.931052 0.493655 0.639850 -0.433843
C24   C     C_3   0.065917 0.612705 0.425075 -0.437858
C25   C     C_3   0.071586 0.377421 0.420786 -0.395111
C26   C     C_3   0.120078 0.494086 0.495374 0.188235
H1    H     H_    0.109128 0.566914 0.699698 0.188926
H2    H     H_    0.887964 0.368269 0.322569 0.175723
H3    H     H_    0.100418 0.619380 0.320914 0.184517
H4    H     H_    0.890567 0.606971 0.313128 0.197191
H5    H     H_    0.373665 0.126605 0.324686 0.156967
H6    H     H_    0.654229 0.881345 0.776321 0.239709
H7    H     H_    0.727354 0.885314 0.607067 0.187836
H8    H     H_    0.654051 0.103203 0.782532 0.201426
H9    H     H_    0.728216 0.109272 0.613420 0.192334
H10   H     H_    0.102085 0.398864 0.686047 0.216004
H11   H     H_    0.279726 0.384783 0.154764 0.211244
H12   H     H_    0.362548 0.234042 0.129504 0.168088
H13   H     H_    0.894608 0.414138 0.700449 0.169683
H14   H     H_    0.903415 0.583055 0.683263 0.207023
H15   H     H_    0.093831 0.696228 0.482641 0.165915
H16   H     H_    0.884086 0.695327 0.464133 0.150644
H17   H     H_    0.101039 0.380621 0.314515 0.170944
H18   H     H_    0.111886 0.290757 0.467429 0.151558
H19   H     H_    0.897620 0.288298 0.481908 0.151134
N1    N     N_R   0.499150 0.499140 0.142800 -0.136022
N2    N     N_R   0.499150 0.499180 0.857150 -0.160686
O1    O     O_R   0.500020 0.316790 0.614690 -0.616471
O2    O     O_R   0.500000 0.316760 0.385350 -0.617870
O3    O     O_R   0.314800 0.500000 0.614670 -0.628695
O4    O     O_R   0.314790 0.499960 0.385330 -0.633010
O5    O     O_R   0.500000 0.683240 0.614650 -0.581274
O6    O     O_R   0.499980 0.683210 0.385310 -0.541157
O7    O     O_R   0.685210 0.500040 0.614670 -0.592419
O8    O     O_R   0.685200 0.500000 0.385330 -0.599579
Zn1   Zn    Zn3+2 0.500010 0.500020 0.653130 0.973767
Zn2   Zn    Zn3+2 0.499990 0.499980 0.346870 0.980007
N3    N     N_2   0.363075 0.887063 0.283199 -0.283385
H20   H     H_    0.353658 0.946707 0.201343 0.211531
C27   C     C_3   0.248782 0.822739 0.308336 -0.807004
H21   H     H_    0.176509 0.888636 0.344447 0.228564
H22   H     H_    0.214849 0.779446 0.214322 0.231769
H23   H     H_    0.267139 0.748696 0.384027 0.249110
O9    O     O_3   0.620786 0.682044 0.145802 -0.582344
C28   C     C_3   0.592043 0.803578 0.096925 0.137500
H24   H     H_    0.489994 0.819813 0.095228 0.139345
H25   H     H_    0.624669 0.820761 0.994418 0.165927
C29   C     C_3   0.658401 0.898699 0.184072 -0.836275
H26   H     H_    0.760182 0.896674 0.164556 0.230394
H27   H     H_    0.621419 0.993860 0.160893 0.204852
H28   H     H_    0.645522 0.876876 0.291594 0.273723
O10   O     O_3   0.660180 0.650683 0.860883 -0.599512
C30   C     C_3   0.781287 0.621764 0.913914 0.120735
H29   H     H_    0.814788 0.534378 0.869573 0.132115
H30   H     H_    0.787147 0.603030 0.023345 0.162522
C31   C     C_3   0.869826 0.729747 0.886386 -0.912572
H31   H     H_    0.967766 0.699045 0.906443 0.217763
H32   H     H_    0.848299 0.808849 0.952749 0.251101
H33   H     H_    0.860640 0.763356 0.781065 0.257372
N4    N     N_2   0.221015 0.422523 0.902372 -0.273291
H34   H     H_    0.242073 0.516277 0.898034 0.216118
C32   C     C_3   0.102169 0.398657 0.966208 -0.876761
H35   H     H_    0.024828 0.438708 0.904409 0.237030
H36   H     H_    0.098313 0.445117 0.064625 0.227187
H37   H     H_    0.086170 0.297023 0.979836 0.265788
N5    N     N_2   0.321757 0.216563 0.880842 -0.292079
H38   H     H_    0.404438 0.166449 0.887763 0.207850
C33   C     C_3   0.252030 0.197835 0.757577 -0.742447
H39   H     H_    0.271103 0.102706 0.719921 0.218474
H40   H     H_    0.279260 0.266620 0.680019 0.256771
H41   H     H_    0.150438 0.204432 0.775874 0.236585

loop_
_geom_bond_atom_site_label_1
_geom_bond_atom_site_label_2
_ccdc_geom_bond_type
C8    C9    A    
C3    H16   S    
C30   H29   S    
C16   O10   S    
C31   H33   S    
C25   H17   S    
C4    C25   S    
C7    C8    A    
C14   N1    A    
C18   N5    S    
C27   H23   S    
C24   C26   S    
C13   H9    S    
C5    C6    A    
N4    H34   S    
N5    C33   S    
N3    C27   S    
C23   H14   S    
O2    Zn2   S    
C25   H18   S    
C27   H22   S    
C18   C19   S    
C24   H3    S    
C19   H11   S    
C8    N3    S    
C29   H26   S    
C28   H25   S    
C15   O9    S    
O4    Zn2   S    
C9    C10   A    
C5    C13   S    
C24   H15   S    
C30   H30   S    
C14   C17   A    
C3    C24   S    
C16   N2    A    
C4    H2    S    
C4    H19   S    
O7    Zn1   S    
C7    H5    S    
C15   C16   A    
C1    C6    S    
C11   H7    S    
C31   H31   S    
N4    C32   S    
C21   O8    A    
O6    Zn2   S    
N5    H38   S    
C20   O6    A    
C25   C26   S    
O3    Zn1   S    
C12   C26   S    
C27   H21   S    
C3    H4    S    
C2    C4    S    
C19   H12   S    
C9    C20   S    
C33   H41   S    
C28   C29   S    
C2    C21   S    
C17   C18   S    
C18   N4    S    
C33   H40   S    
C11   H6    S    
C32   H35   S    
C32   H36   S    
C22   H1    S    
O8    Zn2   S    
N1    Zn2   S    
C30   C31   S    
C12   O4    A    
O1    Zn1   S    
C14   C19   S    
C17   N2    A    
C31   H32   S    
O10   C30   S    
C12   O3    A    
C1    O1    A    
C6    C7    A    
C32   H37   S    
C22   H10   S    
O9    C28   S    
C2    C3    S    
N3    H20   S    
C5    C10   A    
C20   O5    A    
C11   C13   S    
C21   O7    A    
C29   H28   S    
C23   H13   S    
C10   C11   S    
C13   H8    S    
C33   H39   S    
C29   H27   S    
C28   H24   S    
C22   C26   S    
C2    C23   S    
C22   C23   S    
C15   N1    A    
C1    O2    A    
O5    Zn1   S    
N2    Zn1   S    
