data_mof_unit_pretest_445.cif
_audit_creation_date              2012-12-11T20:24:19-0500
_audit_creation_method            fapswitch 2.2
_symmetry_space_group_name_H-M    P1
_symmetry_Int_Tables_number       1
_space_group_crystal_system       triclinic
_cell_length_a                    8.376421
_cell_length_b                    17.335791
_cell_length_c                    19.078508
_cell_angle_alpha                 102.87632
_cell_angle_beta                  91.407388
_cell_angle_gamma                 98.677963
_cell_volume                      2664.97026104

loop_
_atom_site_label
_atom_site_type_symbol
_atom_type_description
_atom_site_fract_x
_atom_site_fract_y
_atom_site_fract_z
_atom_type_partial_charge
Ba1   Ba    Ba6+2 0.854170 0.535040 0.467640 1.626462
Ba2   Ba    Ba6+2 0.335670 0.465030 0.532370 1.619312
C1    C     C_3   0.716980 0.817516 0.285034 -0.371959
C2    C     C_R   0.019395 0.536411 0.732424 0.044419
C3    C     C_R   0.843155 0.438427 0.809636 -0.172412
C4    C     C_3   0.112572 0.708397 0.285134 0.380193
C5    C     C_R   0.774577 0.450526 0.746019 0.021412
C6    C     C_R   0.341204 0.569862 0.194458 -0.167861
C7    C     C_R   0.408879 0.558710 0.258780 -0.000705
C8    C     C_R   0.127002 0.460535 0.196441 -0.139311
C9    C     C_R   0.168694 0.469156 0.270551 0.079963
C10   C     C_R   0.979200 0.492212 0.846993 0.006428
C11   C     C_R   0.867806 0.495761 0.706151 -0.214768
C12   C     C_3   0.655695 0.739836 0.307243 0.349188
C13   C     C_R   0.207518 0.514839 0.156605 -0.002409
C14   C     C_R   0.315998 0.514239 0.299197 -0.211700
C15   C     C_R   0.757805 0.451664 0.964290 -0.078010
C16   C     C_3   0.092385 0.741579 0.218583 -0.384551
C17   C     C_R   0.656860 0.428967 0.015223 -0.085990
C18   C     C_R   0.708887 0.452030 0.086858 -0.065711
C19   C     C_R   0.866178 0.491255 0.105999 -0.073430
C20   C     C_R   0.983078 0.493495 0.054597 0.010213
C21   C     C_R   0.925957 0.479089 0.980229 0.039711
C22   C     C_R   0.150904 0.513844 0.077803 -0.017351
C23   C     C_3   0.522399 0.318238 0.301022 0.400963
C24   C     C_R   0.260201 0.527856 0.023428 0.040176
C25   C     C_R   0.202997 0.512464 0.949046 0.011657
C26   C     C_R   0.035348 0.492963 0.925881 -0.018331
C27   C     C_R   0.428336 0.556021 0.039151 -0.078196
C28   C     C_3   0.246081 0.708834 0.625677 0.332208
C29   C     C_R   0.528723 0.577636 0.987433 -0.086413
C30   C     C_R   0.476435 0.552597 0.915753 -0.069702
C31   C     C_R   0.319529 0.512760 0.897490 -0.079416
C32   C     C_2   0.452054 0.714752 0.473949 -0.251947
C33   C     C_3   0.372534 0.762263 0.429345 -0.054099
C34   C     C_3   0.597734 0.289735 0.229738 -0.321514
C35   C     C_2   0.425898 0.851081 0.453239 -0.118973
C36   C     C_2   0.552792 0.881624 0.501208 0.005083
C37   C     C_2   0.638762 0.826084 0.532008 -0.133242
C38   C     C_1   0.579789 0.748654 0.518912 0.074644
C39   C     C_R   0.811259 0.136741 0.530199 -0.141943
C40   C     C_3   0.306450 0.798715 0.645495 -0.389924
C41   C     C_R   0.862654 0.219050 0.545217 0.018422
C42   C     C_R   0.614819 0.236803 0.484606 0.058704
C43   C     C_R   0.564200 0.153595 0.469710 -0.122966
C44   C     C_R   0.659002 0.103860 0.495229 0.012285
C45   C     C_3   0.052117 0.298935 0.719167 0.374504
C46   C     C_2   0.602541 0.969710 0.525526 0.071590
C47   C     C_2   0.608699 0.016178 0.476816 -0.067009
C48   C     C_R   0.759405 0.269395 0.526581 -0.203166
C49   C     C_3   0.950307 0.287227 0.369373 0.297633
C50   C     C_3   0.915217 0.196179 0.347438 -0.389696
C51   C     C_3   0.771361 0.679843 0.698884 0.423770
C52   C     C_3   0.860165 0.737836 0.765808 -0.051043
C53   C     C_3   0.631654 0.005332 0.605428 -0.385570
C54   C     C_3   0.809025 0.357385 0.551367 -0.269785
C55   C     C_3   0.085073 0.281980 0.792632 -0.376539
C56   C     C_3   0.546301 0.259870 0.692981 0.353577
C57   C     C_3   0.598332 0.207680 0.741742 -0.132465
C58   C     C_R   0.063122 0.544762 0.806244 -0.145359
H1    H     H_    0.690897 0.747766 0.365314 0.056398
H2    H     H_    0.863178 0.651837 0.665555 0.037320
H3    H     H_    0.848865 0.835446 0.298328 0.150607
H4    H     H_    0.934184 0.704548 0.794039 0.059409
H5    H     H_    0.771436 0.762543 0.803592 0.069535
H6    H     H_    0.521878 0.729070 0.298675 -0.060802
H7    H     H_    0.654619 0.866034 0.314577 0.065551
H8    H     H_    0.597437 0.375588 0.328848 0.103093
H9    H     H_    0.525206 0.233075 0.198221 0.104424
H10   H     H_    0.603109 0.336049 0.197582 0.085970
H11   H     H_    0.722322 0.278867 0.239714 0.125824
H12   H     H_    0.416862 0.812230 0.682310 0.122032
H13   H     H_    0.691648 0.810004 0.226278 0.109183
H14   H     H_    0.140618 0.703329 0.171819 0.071436
H15   H     H_    0.104498 0.362343 0.721109 0.055518
H16   H     H_    0.919194 0.289734 0.708047 -0.082223
H17   H     H_    0.215918 0.298669 0.808902 0.142458
H18   H     H_    0.017819 0.317636 0.833844 0.067122
H19   H     H_    0.045995 0.217391 0.790802 0.116836
H20   H     H_    0.654851 0.280294 0.665678 -0.100688
H21   H     H_    0.456902 0.223096 0.649940 0.076531
H22   H     H_    0.675392 0.166241 0.711923 0.070895
H23   H     H_    0.334674 0.820686 0.596347 0.070349
H24   H     H_    0.038416 0.647797 0.276215 0.073594
H25   H     H_    0.672990 0.246086 0.789264 0.103317
H26   H     H_    0.165720 0.589507 0.829813 0.070897
H27   H     H_    0.788341 0.387298 0.828846 0.054803
H28   H     H_    0.395087 0.621162 0.175109 0.065768
H29   H     H_    0.027530 0.414320 0.171861 0.069750
H30   H     H_    0.821108 0.500391 0.654251 0.039645
H31   H     H_    0.361975 0.512188 0.352156 0.065084
H32   H     H_    0.694433 0.451750 0.915399 0.076437
H33   H     H_    0.531237 0.403446 0.000162 0.079528
H34   H     H_    0.212284 0.831340 0.672051 0.149963
H35   H     H_    0.623334 0.443937 0.127054 0.099292
H36   H     H_    0.242260 0.702766 0.290758 -0.083012
H37   H     H_    0.898300 0.519842 0.161296 0.124801
H38   H     H_    0.491855 0.557622 0.088545 0.076643
H39   H     H_    0.654161 0.603805 0.002115 0.078071
H40   H     H_    0.560844 0.559530 0.874751 0.100287
H41   H     H_    0.286604 0.482565 0.842697 0.128230
H42   H     H_    0.575364 0.988790 0.420374 0.054107
H43   H     H_    0.747096 0.850361 0.567239 0.086143
H44   H     H_    0.892759 0.098249 0.542911 0.078798
H45   H     H_    0.838570 0.310168 0.387644 -0.002482
H46   H     H_    0.359917 0.890089 0.430626 0.071458
H47   H     H_    0.963103 0.741953 0.205387 0.148558
H48   H     H_    0.454128 0.127398 0.436551 0.079516
H49   H     H_    0.413899 0.650329 0.461398 0.074854
H50   H     H_    0.160008 0.803549 0.227769 0.109249
H51   H     H_    0.346060 0.677652 0.603504 0.009921
H52   H     H_    0.145215 0.696404 0.584035 0.087974
H53   H     H_    0.608997 0.577309 0.675648 0.216474
H54   H     H_    0.569046 0.644279 0.749198 0.195625
H55   H     H_    0.035588 0.836287 0.791971 0.170875
H56   H     H_    0.045127 0.304924 0.414108 0.076780
H57   H     H_    0.893850 0.842135 0.730765 0.190240
H58   H     H_    0.286419 0.277057 0.264809 0.195427
H59   H     H_    0.316686 0.355502 0.335982 0.172441
H60   H     H_    0.386350 0.127058 0.721290 0.184694
H61   H     H_    0.391372 0.200152 0.796942 0.210647
H62   H     H_    0.594665 0.959623 0.636963 0.112832
H63   H     H_    0.761457 0.029284 0.619633 0.109575
H64   H     H_    0.557684 0.053592 0.621642 0.116184
H65   H     H_    0.846957 0.369338 0.608835 0.042473
H66   H     H_    0.718065 0.393197 0.555273 0.164570
H67   H     H_    0.815524 0.176407 0.304789 0.126190
H68   H     H_    0.895369 0.380799 0.515031 0.126814
H69   H     H_    0.879197 0.171261 0.394291 0.066178
H70   H     H_    0.025207 0.172410 0.326792 0.123671
N1    N     N_3   0.661626 0.618223 0.722049 -0.536826
N2    N     N_3   0.965704 0.803424 0.745806 -0.481159
N3    N     N_3   0.359668 0.332240 0.286228 -0.528365
N4    N     N_3   0.459593 0.160877 0.766128 -0.491129
O1    O     O_2   0.873520 0.443690 0.322540 -0.469202
O2    O     O_2   0.195295 0.223556 0.532285 -0.478229
O3    O     O_3   0.123454 0.246509 0.666764 -0.584507
O4    O     O_3   0.122020 0.450920 0.411670 -0.501329
O5    O     O_3   0.580730 0.598500 0.542710 -0.496519
O6    O     O_2   0.336360 0.303040 0.452600 -0.453916
O7    O     O_3   0.516617 0.258607 0.340807 -0.648164
O8    O     O_2   0.455688 0.474788 0.751449 -0.492505
O9    O     O_3   0.474980 0.322599 0.734074 -0.591548
O10   O     O_3   0.663590 0.591680 0.375790 -0.465138
O11   O     O_2   0.716532 0.520711 0.248353 -0.503341
O12   O     O_3   0.681273 0.722095 0.662073 -0.646848
O13   O     O_3   0.002617 0.316084 0.309532 -0.641586
O14   O     O_3   0.722725 0.676214 0.265680 -0.596816
O15   O     O_2   0.853350 0.696990 0.547450 -0.468060
O16   O     O_3   0.086060 0.635230 0.414460 -0.482981
O17   O     O_2   0.066150 0.782598 0.487707 -0.479080
O18   O     O_3   0.063261 0.759743 0.346187 -0.586217
O19   O     O_2   0.316180 0.556340 0.677510 -0.460629
O20   O     O_3   0.067690 0.549150 0.588340 -0.506404
O21   O     O_3   0.526120 0.408390 0.624220 -0.478533
O22   O     O_3   0.192866 0.683946 0.687360 -0.624280
O23   O     O_3   0.608980 0.401570 0.457310 -0.514109
O24   O     O_3   0.103650 0.364840 0.585560 -0.488256
P1    P     P_3+3 0.040700 0.421000 0.332140 0.959560
P2    P     P_3+3 0.677490 0.686860 0.568200 0.968612
P3    P     P_3+3 0.147124 0.736915 0.422525 0.955738
P4    P     P_3+3 0.149010 0.579070 0.667870 0.968976
P5    P     P_3+3 0.071716 0.261785 0.582055 0.960721
P6    P     P_3+3 0.625660 0.587793 0.285597 0.934569
P7    P     P_3+3 0.518543 0.299385 0.434033 0.930813
P8    P     P_3+3 0.560700 0.413646 0.715227 0.947975

loop_
_geom_bond_atom_site_label_1
_geom_bond_atom_site_label_2
_ccdc_geom_bond_type
C46   C53   S    
Ba2   O21   S    
C11   H30   S    
H54   N1    S    
C55   H19   S    
C5    P8    S    
C17   C18   A    
C57   H22   S    
O13   P1    S    
Ba2   P4    S    
C9    P1    S    
C52   H5    S    
C43   C44   A    
C25   C31   A    
C15   H32   S    
C44   C47   S    
C24   C25   A    
C33   P3    S    
C52   H4    S    
C27   H38   S    
C10   C26   S    
C31   H41   S    
C50   H69   S    
C33   C35   S    
C7    C14   A    
C22   C24   A    
C45   H16   S    
C32   C33   S    
C8    C13   A    
C36   C37   S    
O12   P2    S    
O21   P8    S    
C12   O14   S    
Ba1   Ba2   S    
C9    C14   A    
C2    C11   A    
H57   N2    S    
C16   H47   S    
H59   N3    S    
C56   O9    S    
C8    H29   S    
C6    C7    A    
O17   P3    D    
C39   C44   A    
Ba1   O15   S    
C51   N1    S    
C29   H39   S    
H61   N4    S    
C23   N3    S    
C36   C46   S    
O18   P3    S    
C17   H33   S    
C34   H11   S    
C49   H45   S    
C4    O18   S    
C28   O22   S    
C53   H62   S    
O22   P4    S    
Ba2   O20   S    
C19   C20   A    
O10   P6    S    
C39   C41   A    
C2    C58   A    
C23   H8    S    
O4    P1    S    
C50   H67   S    
C34   H10   S    
H55   N2    S    
C4    C16   S    
C53   H63   S    
O1    P1    D    
C49   C50   S    
Ba2   O4    S    
C55   H17   S    
Ba1   P1    S    
C4    H24   S    
C3    C10   A    
C56   H21   S    
O23   P7    S    
C37   C38   D    
O3    P5    S    
C58   H26   S    
C56   C57   S    
C51   C52   S    
C12   H1    S    
C48   C54   S    
C30   H40   S    
C28   H52   S    
C6    H28   S    
O14   P6    S    
C7    P6    S    
C57   H25   S    
O9    P8    S    
C35   C36   D    
O8    P8    D    
C19   H37   S    
C51   H2    S    
C29   C30   A    
C49   O13   S    
Ba2   O24   S    
C45   O3    S    
C40   H12   S    
C12   H6    S    
Ba1   O16   S    
C15   C21   A    
C54   H65   S    
H58   N3    S    
C1    C12   S    
O24   P5    S    
C24   C27   A    
C2    P4    S    
C46   C47   D    
C18   H35   S    
O5    P2    S    
Ba2   O19   S    
C4    H36   S    
C20   C22   A    
C21   C26   A    
Ba2   O5    S    
C54   H66   S    
O20   P4    S    
C47   H42   S    
C3    H27   S    
C42   C43   A    
C3    C5    A    
C42   C48   A    
O6    P7    D    
O16   P3    S    
C53   H64   S    
C13   C22   S    
H53   N1    S    
C40   H34   S    
C28   C40   S    
C55   H18   S    
C38   P2    S    
Ba1   P2    S    
C23   O7    S    
C40   H23   S    
C16   H50   S    
Ba1   O5    S    
C43   H48   S    
C41   C48   A    
C37   H43   S    
O11   P6    D    
C1    H3    S    
C6    C13   A    
C52   N2    S    
O19   P4    D    
C57   N4    S    
O7    P7    S    
C49   H56   S    
C39   H44   S    
C28   H51   S    
Ba2   O6    S    
C30   C31   A    
Ba1   O23   S    
C34   H9    S    
C45   H15   S    
C35   H46   S    
C27   C29   A    
Ba1   O10   S    
C50   H70   S    
C1    H7    S    
Ba2   O23   S    
C51   O12   S    
C15   C17   A    
H60   N4    S    
C42   P7    S    
C54   H68   S    
Ba1   O20   S    
C1    H13   S    
O15   P2    D    
C56   H20   S    
C8    C9    A    
C23   C34   S    
C10   C58   A    
C5    C11   A    
C18   C19   A    
C14   H31   S    
C16   H14   S    
C45   C55   S    
C32   H49   S    
C20   C21   A    
C32   C38   D    
Ba1   O1    S    
Ba1   O4    S    
C25   C26   A    
O2    P5    D    
C41   P5    S    
