data_mof_unit_pretest_1676.cif
_audit_creation_date              2012-12-10T20:16:57-0500
_audit_creation_method            fapswitch 2.2
_symmetry_space_group_name_H-M    P1
_symmetry_Int_Tables_number       1
_space_group_crystal_system       triclinic
_cell_length_a                    19.316099
_cell_length_b                    18.708136
_cell_length_c                    19.19368
_cell_angle_alpha                 90.066457
_cell_angle_beta                  92.467941
_cell_angle_gamma                 89.997828
_cell_volume                      6929.54774447

loop_
_atom_site_label
_atom_site_type_symbol
_atom_type_description
_atom_site_fract_x
_atom_site_fract_y
_atom_site_fract_z
_atom_type_partial_charge
C1    C     C_R   0.365931 0.499943 0.501449 0.976801
C2    C     C_R   0.965555 0.503045 0.444725 -0.182337
C3    C     C_R   0.072238 0.504050 0.514210 0.180244
C4    C     C_R   0.929036 0.506011 0.505939 0.190245
C5    C     C_R   0.556425 0.727228 0.526639 0.074619
C6    C     C_R   0.475233 0.272692 0.442516 0.083324
C7    C     C_R   0.443640 0.727434 0.473596 0.070262
C8    C     C_R   0.524738 0.272655 0.557400 0.081037
C9    C     C_R   0.560238 0.802006 0.518328 0.585105
C10   C     C_R   0.483543 0.197871 0.439020 0.585264
C11   C     C_R   0.440335 0.802291 0.481593 0.585399
C12   C     C_R   0.634133 0.499948 0.499191 0.978545
C13   C     C_R   0.516837 0.197772 0.560480 0.584858
C14   C     C_R   0.500424 0.841828 0.499805 -0.078993
C15   C     C_R   0.500338 0.158156 0.499642 -0.078884
C16   C     C_R   0.458471 0.962515 0.451391 0.558403
C17   C     C_R   0.547257 0.037456 0.543235 0.558818
C18   C     C_R   0.542805 0.962734 0.547686 0.558205
C19   C     C_R   0.453926 0.037247 0.455725 0.558662
C20   C     C_R   0.500526 0.076952 0.499499 -0.291915
C21   C     C_R   0.500608 0.923027 0.499611 -0.292535
C22   C     C_R   0.500182 0.499929 0.365666 0.984232
C23   C     C_R   0.853759 0.503480 0.501728 -0.104602
C24   C     C_R   0.498992 0.500054 0.634269 0.978773
C25   C     C_R   0.462135 0.552448 0.252261 0.566558
C26   C     C_R   0.456161 0.445498 0.741286 0.553548
C27   C     C_R   0.521968 0.556278 0.749479 0.566185
C28   C     C_R   0.530637 0.443344 0.254939 0.546437
C29   C     C_R   0.456930 0.549820 0.179563 0.036833
C30   C     C_R   0.451012 0.444318 0.813586 0.031191
C31   C     C_R   0.515143 0.557795 0.821401 0.026688
C32   C     C_R   0.524009 0.438039 0.182564 0.020761
C33   C     C_R   0.487431 0.491900 0.144742 -0.093046
C34   C     C_R   0.147485 0.500292 0.517696 -0.095463
C35   C     C_R   0.481351 0.500402 0.853735 -0.093445
C36   C     C_R   0.498438 0.499206 0.289823 -0.366706
C37   C     C_R   0.493089 0.500206 0.709560 -0.368819
C38   C     C_R   0.482359 0.496293 0.929248 0.344459
C39   C     C_R   0.485402 0.491010 0.069120 0.345029
C40   C     C_R   0.747391 0.440774 0.523314 0.574324
C41   C     C_R   0.258284 0.558636 0.537400 0.555396
C42   C     C_R   0.252161 0.439629 0.486203 0.574004
C43   C     C_R   0.743894 0.559364 0.471107 0.554952
C44   C     C_R   0.819598 0.441437 0.524174 0.038781
C45   C     C_R   0.709540 0.499921 0.497744 -0.373590
C46   C     C_R   0.186297 0.560590 0.540390 0.038476
C47   C     C_R   0.180717 0.438517 0.492936 0.026751
C48   C     C_R   0.816061 0.562702 0.474928 0.036261
C49   C     C_3   0.420166 0.609497 0.139715 -0.706220
C50   C     C_3   0.414923 0.382428 0.847405 -0.704849
C51   C     C_3   0.543885 0.621791 0.861264 -0.678132
C52   C     C_3   0.555536 0.373638 0.148307 -0.676210
C53   C     C_3   0.859773 0.375938 0.548430 -0.719586
C54   C     C_3   0.151406 0.627598 0.565772 -0.722418
C55   C     C_3   0.142044 0.370746 0.472829 -0.709098
C56   C     C_R   0.290981 0.499687 0.507678 -0.373159
C57   C     C_3   0.852328 0.629668 0.451633 -0.718361
C58   C     C_3   0.614315 0.692153 0.568490 -0.543826
C59   C     C_3   0.435932 0.307986 0.382858 -0.561558
C60   C     C_3   0.384996 0.692371 0.432850 -0.538793
C61   C     C_3   0.563223 0.308055 0.617590 -0.554391
C62   C     C_R   0.963960 0.508940 0.571273 -0.186936
C63   C     C_R   0.037262 0.503363 0.448820 -0.187551
C64   C     C_R   0.035718 0.506542 0.575486 -0.175438
F1    F     F_    0.430423 0.606016 0.286495 -0.669910
F2    F     F_    0.475730 0.165172 0.375943 -0.575633
F3    F     F_    0.377999 0.835221 0.471803 -0.575649
F4    F     F_    0.524586 0.164898 0.623405 -0.575771
F5    F     F_    0.422183 0.929713 0.398376 -0.524916
F6    F     F_    0.598929 0.070238 0.581231 -0.524451
F7    F     F_    0.579126 0.930204 0.600763 -0.524524
F8    F     F_    0.402202 0.069798 0.417683 -0.524284
F9    F     F_    0.423740 0.394285 0.701535 -0.643580
F10   F     F_    0.557405 0.609533 0.718605 -0.658752
F11   F     F_    0.569243 0.394088 0.291366 -0.637264
F12   F     F_    0.714157 0.383001 0.548777 -0.655839
F13   F     F_    0.296587 0.613457 0.565137 -0.645425
F14   F     F_    0.283489 0.381883 0.458154 -0.647252
F15   F     F_    0.707144 0.613156 0.439558 -0.643712
F16   F     F_    0.622745 0.834559 0.528293 -0.574654
H1    H     H_    0.935531 0.511368 0.618658 0.155350
H2    H     H_    0.398890 0.340153 0.809464 0.286681
H3    H     H_    0.527338 0.624283 0.915773 0.218285
H4    H     H_    0.601367 0.620792 0.861600 0.253378
H5    H     H_    0.525163 0.671770 0.835574 0.265434
H6    H     H_    0.540055 0.368167 0.092316 0.218927
H7    H     H_    0.612907 0.376933 0.153683 0.258795
H8    H     H_    0.538242 0.324103 0.174266 0.261221
H9    H     H_    0.825685 0.329425 0.557449 0.290541
H10   H     H_    0.896460 0.359889 0.508260 0.229588
H11   H     H_    0.889120 0.387486 0.598097 0.223635
H12   H     H_    0.065632 0.501272 0.401372 0.161064
H13   H     H_    0.188401 0.672325 0.575018 0.290054
H14   H     H_    0.111734 0.645996 0.526195 0.229392
H15   H     H_    0.126357 0.616787 0.615586 0.226191
H16   H     H_    0.167050 0.324400 0.499859 0.271334
H17   H     H_    0.087226 0.371180 0.487644 0.221748
H18   H     H_    0.143574 0.362430 0.415632 0.249734
H19   H     H_    0.815568 0.673657 0.438369 0.290148
H20   H     H_    0.888286 0.649283 0.494139 0.228890
H21   H     H_    0.881998 0.618234 0.404696 0.227329
H22   H     H_    0.632304 0.727652 0.612059 0.244958
H23   H     H_    0.062725 0.506105 0.626118 0.157098
H24   H     H_    0.597032 0.642788 0.593633 0.268180
H25   H     H_    0.658807 0.682106 0.535409 0.267536
H26   H     H_    0.395865 0.271219 0.360001 0.246318
H27   H     H_    0.407071 0.355065 0.400650 0.263030
H28   H     H_    0.471533 0.321846 0.341246 0.263392
H29   H     H_    0.366206 0.727696 0.389538 0.245618
H30   H     H_    0.401924 0.642959 0.407525 0.274112
H31   H     H_    0.341185 0.682361 0.466831 0.267123
H32   H     H_    0.602773 0.271270 0.641275 0.246867
H33   H     H_    0.592581 0.354866 0.600067 0.265700
H34   H     H_    0.938487 0.499982 0.394192 0.158646
H35   H     H_    0.526955 0.322387 0.658525 0.263773
H36   H     H_    0.372410 0.588660 0.112659 0.238484
H37   H     H_    0.404705 0.653946 0.174060 0.286350
H38   H     H_    0.454864 0.632313 0.100794 0.226833
H39   H     H_    0.450291 0.357283 0.887410 0.225897
H40   H     H_    0.367606 0.401725 0.872294 0.241408
N1    N     N_R   0.423973 0.490550 0.032357 -0.163739
N2    N     N_R   0.543775 0.496047 0.966020 -0.159635
N3    N     N_R   0.422457 0.493304 0.963236 -0.161734
N4    N     N_R   0.545278 0.493809 0.035101 -0.156686
N5    N     N_R   0.500000 0.689440 0.500000 -0.140148
N6    N     N_R   0.500000 0.310560 0.500000 -0.137686
O1    O     O_R   0.398180 0.560840 0.499980 -0.600055
O2    O     O_R   0.601820 0.439160 0.500020 -0.565741
O3    O     O_R   0.601820 0.560840 0.500020 -0.600647
O4    O     O_R   0.398180 0.439160 0.499980 -0.565761
O5    O     O_R   0.499990 0.560830 0.398130 -0.574212
O6    O     O_R   0.500010 0.439170 0.601870 -0.604648
O7    O     O_R   0.500010 0.560830 0.601870 -0.575377
O8    O     O_R   0.499990 0.439170 0.398130 -0.607323
Zn1   Zn    Zn3+2 0.500000 0.581210 0.500000 1.034950
Zn2   Zn    Zn3+2 0.500000 0.418790 0.500000 1.038439

loop_
_geom_bond_atom_site_label_1
_geom_bond_atom_site_label_2
_ccdc_geom_bond_type
C24   O7    A    
C64   H23   S    
C16   C21   A    
C29   C33   A    
C22   O5    A    
C18   C21   A    
C19   C20   A    
C51   H5    S    
C48   C57   S    
C29   C49   S    
C3    C64   A    
C7    C11   A    
C17   C20   A    
C8    C13   A    
C30   C35   A    
C22   O8    A    
C50   H40   S    
C14   C21   S    
C1    C56   S    
O1    Zn1   S    
O5    Zn1   S    
C10   C15   A    
O2    Zn2   S    
C41   F13   S    
C11   C14   A    
C43   F15   S    
C57   H19   S    
C4    C62   A    
C26   F9    S    
C32   C52   S    
C54   H13   S    
C62   C64   A    
C60   H29   S    
C42   C56   A    
O3    Zn1   S    
C44   C53   S    
C49   H37   S    
C63   H12   S    
C53   H11   S    
C41   C46   A    
C34   C46   A    
C27   F10   S    
C43   C48   A    
C38   N3    A    
C8    C61   S    
N5    Zn1   S    
C30   C50   S    
N6    Zn2   S    
C17   F6    S    
C46   C54   S    
C19   F8    S    
C15   C20   S    
C11   F3    S    
C24   C37   S    
C10   F2    S    
C25   C29   A    
C40   C45   A    
C59   H26   S    
N1    N3    A    
C12   O3    A    
C27   C31   A    
C50   H39   S    
C52   H8    S    
C35   C38   S    
C25   F1    S    
C6    N6    A    
C1    O4    A    
C4    C23   S    
C61   H35   S    
C55   H16   S    
O8    Zn2   S    
C3    C34   S    
C57   H20   S    
C59   H27   S    
C39   N4    A    
C40   F12   S    
C9    F16   S    
C2    C4    A    
C9    C14   A    
C41   C56   A    
C5    C9    A    
C24   O6    A    
C49   H38   S    
C28   C32   A    
O6    Zn2   S    
C55   H17   S    
C17   C18   A    
C33   C39   S    
C7    N5    A    
C43   C45   A    
C54   H15   S    
C38   N2    A    
C58   H22   S    
C5    C58   S    
C8    N6    A    
C62   H1    S    
C26   C30   A    
C13   C15   A    
C53   H9    S    
C31   C35   A    
C58   H24   S    
N2    N4    A    
C51   H3    S    
C7    C60   S    
C57   H21   S    
C2    C63   A    
C50   H2    S    
C47   C55   S    
C18   F7    S    
C23   C48   A    
C6    C59   S    
C52   H7    S    
O4    Zn2   S    
C16   F5    S    
C1    O1    A    
C31   C51   S    
C12   C45   S    
C6    C10   A    
C26   C37   A    
C42   F14   S    
C12   O2    A    
C3    C63   A    
C22   C36   S    
C59   H28   S    
C39   N1    A    
C58   H25   S    
C32   C33   A    
C52   H6    S    
C60   H31   S    
C61   H33   S    
C2    H34   S    
C28   F11   S    
C27   C37   A    
C16   C19   A    
C55   H18   S    
C42   C47   A    
C54   H14   S    
C60   H30   S    
C23   C44   A    
C25   C36   A    
C40   C44   A    
C49   H36   S    
C28   C36   A    
C5    N5    A    
C53   H10   S    
O7    Zn1   S    
C34   C47   A    
C61   H32   S    
C51   H4    S    
C13   F4    S    
