data_mof_unit_pretest_570.cif
_audit_creation_date              2013-03-05T15:52:21-0500
_audit_creation_method            fapswitch 2.2
_symmetry_space_group_name_H-M    P1
_symmetry_Int_Tables_number       1
_space_group_crystal_system       triclinic
_cell_length_a                    14.763309
_cell_length_b                    15.396968
_cell_length_c                    10.011227
_cell_angle_alpha                 88.778085
_cell_angle_beta                  91.431599
_cell_angle_gamma                 89.486334
_cell_volume                      2274.32363752

loop_
_atom_site_label
_atom_site_type_symbol
_atom_site_description
_atom_site_fract_x
_atom_site_fract_y
_atom_site_fract_z
_atom_type_partial_charge
O1    O     O_R   0.408390 0.908380 0.614690 -0.650389
O2    O     O_R   0.408390 0.091620 0.614690 -0.639849
O3    O     O_R   0.908390 0.408380 0.614690 -0.650403
O4    O     O_R   0.908390 0.591620 0.614690 -0.639732
O5    O     O_R   0.408370 0.908380 0.385360 -0.577894
O6    O     O_R   0.408370 0.091620 0.385360 -0.597413
O7    O     O_R   0.908370 0.408380 0.385360 -0.577863
O8    O     O_R   0.908370 0.591620 0.385360 -0.597489
C1    C     C_R   0.387886 0.873664 0.500156 0.868734
C2    C     C_R   0.382309 0.121154 0.498046 0.941726
C3    C     C_R   0.887866 0.373675 0.500154 0.868636
C4    C     C_R   0.882331 0.621177 0.498043 0.942498
Zn1   Zn    Zn3+2 0.500010 0.000000 0.653130 0.909589
Zn2   Zn    Zn3+2 0.000010 0.500000 0.653130 0.909655
Zn3   Zn    Zn3+2 0.499980 0.000000 0.346870 0.982697
Zn4   Zn    Zn3+2 0.999980 0.500000 0.346870 0.982683
O9    O     O_R   0.591620 0.091610 0.614640 -0.672852
O10   O     O_R   0.591620 0.908390 0.614640 -0.665676
O11   O     O_R   0.091620 0.591610 0.614640 -0.672933
O12   O     O_R   0.091620 0.408390 0.614640 -0.665655
O13   O     O_R   0.591610 0.091610 0.385310 -0.614077
O14   O     O_R   0.591610 0.908390 0.385310 -0.602443
O15   O     O_R   0.091610 0.591610 0.385310 -0.614035
O16   O     O_R   0.091610 0.408390 0.385310 -0.602470
C5    C     C_R   0.616472 0.123398 0.500857 0.936064
C6    C     C_R   0.618526 0.879646 0.501951 0.853073
C7    C     C_R   0.116514 0.623367 0.500863 0.936632
C8    C     C_R   0.118545 0.379660 0.501954 0.852905
C9    C     C_R   0.196953 0.071545 0.504271 -0.163055
C10   C     C_R   0.355273 0.766141 0.744553 -0.133538
C11   C     C_R   0.696999 0.571549 0.504527 -0.163177
C12   C     C_R   0.855193 0.266172 0.744549 -0.133467
H1    H     H_    0.246392 0.019533 0.498559 0.141154
H2    H     H_    0.426667 0.781519 0.745544 0.157125
H3    H     H_    0.746438 0.519542 0.498760 0.141122
H4    H     H_    0.926593 0.281523 0.745548 0.157148
C13   C     C_R   0.105818 0.048831 0.509635 -0.070890
C14   C     C_R   0.314909 0.750544 0.866560 -0.100760
C15   C     C_R   0.605872 0.548822 0.510023 -0.070720
C16   C     C_R   0.814815 0.250588 0.866552 -0.100715
H5    H     H_    0.086653 0.981174 0.507844 0.169083
H6    H     H_    0.354622 0.756108 0.957894 0.153719
H7    H     H_    0.586714 0.481162 0.508270 0.169214
H8    H     H_    0.854524 0.256143 0.957893 0.153723
C17   C     C_R   0.539583 0.613103 0.518026 -0.135076
C18   C     C_R   0.722987 0.231599 0.869777 -0.074023
C19   C     C_R   0.039531 0.113122 0.517557 -0.135049
C20   C     C_R   0.223085 0.731537 0.869797 -0.074368
H9    H     H_    0.468896 0.595541 0.523493 0.140159
H10   H     H_    0.689765 0.224788 0.964575 0.117299
H11   H     H_    0.968836 0.095572 0.522908 0.140137
H12   H     H_    0.189871 0.724721 0.964600 0.117322
C21   C     C_R   0.564317 0.700220 0.518646 -0.124605
C22   C     C_R   0.674737 0.217842 0.750469 -0.070067
C23   C     C_R   0.064281 0.200236 0.518268 -0.124435
C24   C     C_R   0.174829 0.717778 0.750495 -0.070145
H13   H     H_    0.511596 0.748328 0.525572 0.119214
H14   H     H_    0.603259 0.204668 0.757520 0.152261
H15   H     H_    0.011562 0.248349 0.525148 0.119334
H16   H     H_    0.103352 0.704609 0.757564 0.152458
C25   C     C_R   0.655975 0.724434 0.509926 0.098795
C26   C     C_R   0.718480 0.223589 0.626055 0.095546
C27   C     C_R   0.155954 0.224436 0.509738 0.098738
C28   C     C_R   0.218564 0.723526 0.626073 0.095544
C29   C     C_R   0.222894 0.159933 0.503312 0.023429
C30   C     C_R   0.304072 0.761409 0.623676 0.083748
C31   C     C_R   0.722925 0.659943 0.503466 0.023389
C32   C     C_R   0.803995 0.261455 0.623665 0.083848
C33   C     C_R   0.313968 0.185884 0.493358 -0.132154
C34   C     C_R   0.334515 0.794871 0.500545 -0.161965
C35   C     C_R   0.813987 0.685910 0.493331 -0.132249
C36   C     C_R   0.834452 0.294909 0.500536 -0.162037
C37   C     C_R   0.339252 0.273900 0.486134 0.004097
C38   C     C_R   0.297805 0.764036 0.379156 -0.025446
C39   C     C_R   0.839229 0.773942 0.485766 0.003830
C40   C     C_R   0.797715 0.264105 0.379139 -0.025482
H17   H     H_    0.789854 0.904637 0.489156 0.126744
H18   H     H_    0.693942 0.190128 0.289031 0.166976
H19   H     H_    0.289947 0.404609 0.489757 0.126823
H20   H     H_    0.194057 0.690025 0.289053 0.166924
C41   C     C_R   0.772540 0.836230 0.494936 -0.310122
C42   C     C_R   0.721009 0.214476 0.382531 -0.282186
C43   C     C_R   0.272584 0.336209 0.495306 -0.309875
C44   C     C_R   0.221111 0.714389 0.382549 -0.282418
C45   C     C_R   0.682928 0.811691 0.506074 -0.066791
C46   C     C_R   0.681751 0.192645 0.503896 -0.084966
C47   C     C_R   0.182937 0.311690 0.506096 -0.066899
C48   C     C_R   0.181835 0.692579 0.503912 -0.084647
C49   C     C_R   0.335862 0.020351 0.126358 0.244731
C50   C     C_R   0.835878 0.520451 0.126354 0.244838
C51   C     C_R   0.259169 0.979955 0.071122 0.079216
C52   C     C_R   0.759159 0.480089 0.071143 0.079064
C53   C     C_R   0.256254 0.967801 0.931789 -0.042548
C54   C     C_R   0.756242 0.467878 0.931824 -0.042450
C55   C     C_R   0.334963 0.984702 0.859414 -0.161696
C56   C     C_R   0.834957 0.484728 0.859430 -0.161712
H21   H     H_    0.328502 0.988495 0.753207 0.244940
H22   H     H_    0.828495 0.488482 0.753221 0.244904
C57   C     C_R   0.419246 0.995359 0.925871 0.057587
C58   C     C_R   0.919244 0.495382 0.925875 0.057610
C59   C     C_R   0.419353 0.002200 0.068038 0.068633
C60   C     C_R   0.919356 0.502239 0.068038 0.068648
N1    N     N_R   0.498810 0.000000 0.142780 -0.118138
N2    N     N_R   0.998810 0.500000 0.142780 -0.118154
C61   C     C_R   0.579081 0.002924 0.074117 0.212971
C62   C     C_R   0.079083 0.502903 0.074119 0.212897
C63   C     C_R   0.578960 0.005066 0.929938 -0.010108
C64   C     C_R   0.078963 0.505047 0.929938 -0.010082
N3    N     N_R   0.498740 1.000000 0.857170 -0.170322
N4    N     N_R   0.998740 0.500000 0.857170 -0.170324
C65   C     C_2   0.433209 0.304455 0.467059 0.359097
H23   H     H_    0.452728 0.368259 0.501157 0.067401
O17   O     O_2   0.488035 0.261610 0.406867 -0.591009
C66   C     C_2   0.338668 0.777298 0.246887 0.448858
H24   H     H_    0.294805 0.787303 0.159462 0.024975
O18   O     O_2   0.420572 0.772414 0.233748 -0.561637
C67   C     C_2   0.933129 0.804583 0.466312 0.359543
H25   H     H_    0.952391 0.868783 0.499114 0.067164
O19   O     O_2   0.988227 0.761317 0.407272 -0.591330
C68   C     C_2   0.838564 0.277373 0.246860 0.448782
H26   H     H_    0.794694 0.287427 0.159454 0.024992
O20   O     O_2   0.920463 0.272437 0.233689 -0.561669
C69   C     C_2   0.171444 0.942539 0.860525 0.398020
H27   H     H_    0.108445 0.936438 0.913055 0.086967
O21   O     O_2   0.171082 0.926961 0.741527 -0.610435
C70   C     C_2   0.671426 0.442609 0.860590 0.397822
H28   H     H_    0.608413 0.436595 0.913108 0.087022
O22   O     O_2   0.671075 0.426916 0.741632 -0.610637
C71   C     C_2   0.665859 0.010025 0.856436 0.392391
H29   H     H_    0.670685 0.987888 0.757038 0.153977
O23   O     O_2   0.734840 0.040747 0.904439 -0.616648
C72   C     C_2   0.165864 0.509994 0.856431 0.392271
H30   H     H_    0.170666 0.487926 0.756996 0.153990
O24   O     O_2   0.234877 0.540631 0.904470 -0.616647
C73   C     C_3   0.669381 0.005648 0.148439 -0.717252
H31   H     H_    0.714012 0.952211 0.115373 0.233583
H32   H     H_    0.701433 0.069641 0.131033 0.229519
H33   H     H_    0.667333 0.998167 0.255700 0.260541
C74   C     C_3   0.169382 0.505615 0.148445 -0.717056
H34   H     H_    0.167329 0.498169 0.255709 0.260497
H35   H     H_    0.213994 0.452154 0.115414 0.233697
H36   H     H_    0.201455 0.569595 0.131008 0.229474
C75   C     C_3   0.317882 0.115565 0.150307 -0.798724
H37   H     H_    0.285622 0.146672 0.059553 0.218450
H38   H     H_    0.270711 0.123503 0.233643 0.249440
H39   H     H_    0.381313 0.152111 0.169027 0.261016
C76   C     C_3   0.817962 0.615679 0.150279 -0.798966
H40   H     H_    0.785749 0.646799 0.059500 0.218472
H41   H     H_    0.770774 0.623658 0.233587 0.249444
H42   H     H_    0.881416 0.652181 0.169035 0.260915
C77   C     C_3   0.177317 0.966489 0.155646 -0.922126
H43   H     H_    0.194375 0.976233 0.262774 0.254579
H44   H     H_    0.122642 0.013066 0.124150 0.255036
H45   H     H_    0.152872 0.898883 0.145761 0.233265
C78   C     C_3   0.677295 0.466702 0.155672 -0.921816
H46   H     H_    0.694351 0.476495 0.262790 0.254576
H47   H     H_    0.622643 0.513288 0.124116 0.255044
H48   H     H_    0.652819 0.399101 0.145864 0.233330

loop_
_geom_bond_atom_site_label_1
_geom_bond_atom_site_label_2
_geom_bond_distance
_ccdc_geom_bond_type
C75   H39   1.110793 S    
C43   C47   1.385707 A    
C27   C29   1.398381 A    
C58   N4    1.376694 A    
C70   H28   1.083664 S    
C23   H15   1.074149 S    
C73   H33   1.078739 S    
C76   H40   1.112393 S    
O10   C6    1.291091 A    
C20   C24   1.396389 A    
H20   C44   1.084130 S    
N2    C62   1.385382 A    
C66   H24   1.083158 S    
C69   H27   1.083663 S    
C30   C34   1.411276 A    
O7    C3    1.300760 A    
C26   C46   1.418801 A    
C40   C68   1.479766 S    
Zn1   O10   1.995550 S    
C12   H4    1.082201 S    
C76   H41   1.108090 S    
C14   H6    1.079170 S    
C67   O19   1.218976 D    
C60   N2    1.375259 A    
C74   H36   1.109161 S    
C55   C57   1.408823 A    
C69   O21   1.220117 D    
C78   H47   1.110192 S    
C75   H37   1.112398 S    
C38   C66   1.479755 S    
C9    H1    1.082063 S    
C10   C14   1.389652 A    
C75   H38   1.108067 S    
C77   H45   1.110368 S    
O2    Zn1   1.970858 S    
H18   C42   1.084139 S    
C50   C60   1.405352 A    
Zn1   N3    2.043245 S    
O6    Zn3   1.995658 S    
C21   C25   1.411126 A    
Zn4   N2    2.042833 S    
Zn3   O14   1.970849 S    
C19   H11   1.082794 S    
C65   H23   1.085868 S    
C56   H22   1.065471 S    
C72   H30   1.062524 S    
H19   C43   1.086718 S    
C39   C67   1.484431 S    
C34   C38   1.411484 A    
C77   H43   1.109143 S    
C24   C28   1.418730 A    
C33   C37   1.409725 A    
C61   C73   1.511747 S    
O15   C7    1.310951 A    
C13   C19   1.390572 A    
O11   C7    1.293046 A    
O4    C4    1.292508 A    
C16   H8    1.079173 S    
C14   C20   1.390427 A    
C36   C40   1.411518 A    
C15   C17   1.390557 A    
C49   C59   1.405363 A    
C12   C16   1.389669 A    
C17   C21   1.393414 A    
Zn4   O16   1.970849 S    
C73   H32   1.109163 S    
C78   H48   1.110368 S    
C13   H5    1.082304 S    
C63   N3    1.378538 A    
C63   C71   1.496570 S    
C58   C60   1.429343 A    
C68   O20   1.221395 D    
C37   C65   1.484245 S    
C54   C70   1.484535 S    
C51   C77   1.505782 S    
O5    Zn3   2.001176 S    
C10   H2    1.082192 S    
Zn2   O12   1.995550 S    
C73   H31   1.110611 S    
C76   H42   1.110800 S    
O1    C1    1.305291 A    
C1    C34   1.452500 S    
C65   O17   1.218692 D    
C40   C42   1.372519 A    
C21   H13   1.074153 S    
C3    C36   1.452493 S    
C39   C41   1.374376 A    
C15   H7    1.082307 S    
O12   C8    1.291086 A    
C42   C46   1.395143 A    
C24   H16   1.080099 S    
C23   C27   1.411128 A    
C32   C36   1.411298 A    
C28   C30   1.395881 A    
C11   C31   1.416997 A    
O5    C1    1.300766 A    
C50   C76   1.512726 S    
C51   C53   1.410983 A    
C61   C63   1.443036 A    
C25   C31   1.398375 A    
C50   C52   1.403767 A    
H17   C41   1.086741 S    
O8    C4    1.291473 A    
C18   C22   1.396390 A    
C8    C47   1.406769 S    
C52   C54   1.410980 A    
C17   H9    1.082794 S    
N1    C61   1.385379 A    
C54   C56   1.408004 A    
C10   C30   1.414266 A    
O3    Zn2   1.999754 S    
C25   C45   1.404605 A    
C9    C29   1.416973 A    
C72   O24   1.218879 D    
O7    Zn4   2.001176 S    
C57   C59   1.429357 A    
C4    C35   1.411124 S    
Zn4   O15   1.999742 S    
C11   H3    1.082059 S    
Zn3   O13   1.999742 S    
C49   C51   1.403787 A    
C16   C18   1.390435 A    
O2    C2    1.292448 A    
C68   H26   1.083171 S    
O16   C8    1.291917 A    
C19   C23   1.393433 A    
C71   H29   1.062556 S    
C22   H14   1.080113 S    
Zn2   N4    2.043245 S    
O13   C5    1.310929 A    
C70   O22   1.220109 D    
C27   C47   1.404658 A    
Zn2   O11   2.001066 S    
C53   C69   1.484562 S    
C38   C44   1.372526 A    
O6    C2    1.291474 A    
C66   O18   1.221394 D    
C74   H34   1.078724 S    
C55   H21   1.065468 S    
Zn1   O9    2.001066 S    
C22   C26   1.418717 A    
C18   H10   1.082666 S    
C59   N1    1.375289 A    
C12   C32   1.414273 A    
O9    C5    1.293078 A    
C49   C75   1.512715 S    
C67   H25   1.086282 S    
C35   C39   1.409920 A    
C74   H35   1.110612 S    
C62   C74   1.511743 S    
C53   C55   1.407984 A    
C44   C48   1.395158 A    
C62   C64   1.443053 A    
C6    C45   1.406704 S    
C29   C33   1.411388 A    
C56   C58   1.408826 A    
C5    C46   1.443897 S    
C64   N4    1.378555 A    
C52   C78   1.505787 S    
C31   C35   1.411455 A    
C26   C32   1.395874 A    
C77   H44   1.110189 S    
O4    Zn2   1.970858 S    
C7    C48   1.443918 S    
C64   C72   1.496608 S    
O3    C3    1.305296 A    
C2    C33   1.411064 S    
C20   H12   1.082666 S    
O1    Zn1   1.999754 S    
O8    Zn4   1.995658 S    
O14   C6    1.291880 A    
C9    C13   1.395241 A    
C78   H46   1.109152 S    
C11   C15   1.395251 A    
Zn3   N1    2.042833 S    
C37   C43   1.374373 A    
C28   C48   1.418842 A    
C41   C45   1.385634 A    
C71   O23   1.218885 D    
C57   N3    1.376672 A    
