data_mof_unit_pretest_731.cif
_audit_creation_date              2012-12-11T17:25:03-0500
_audit_creation_method            fapswitch 2.2
_symmetry_space_group_name_H-M    P1
_symmetry_Int_Tables_number       1
_space_group_crystal_system       triclinic
_cell_length_a                    6.949984
_cell_length_b                    20.466543
_cell_length_c                    24.568624
_cell_angle_alpha                 90.183518
_cell_angle_beta                  90.618737
_cell_angle_gamma                 90.193102
_cell_volume                      3494.45185718

loop_
_atom_site_label
_atom_site_type_symbol
_atom_type_description
_atom_site_fract_x
_atom_site_fract_y
_atom_site_fract_z
_atom_type_partial_charge
O1    O     O_R   0.507280 0.423750 0.460310 -0.540015
O2    O     O_R   0.171030 0.555650 0.437630 -0.537117
O3    O     O_R   0.004080 0.576250 0.539690 -0.534298
C1    C     C_R   0.339803 0.576022 0.422162 0.726362
O4    O     O_R   0.177330 0.422980 0.453960 -0.541850
O5    O     O_R   0.010420 0.442640 0.556140 -0.536053
C2    C     C_R   0.345110 0.398611 0.443563 0.695198
O6    O     O_R   0.500930 0.557360 0.443860 -0.535067
O7    O     O_3   0.340310 0.506600 0.533500 -0.362058
V1    V     V_3+5 0.064140 0.498780 0.493780 1.421365
O8    O     O_R   0.680890 0.444350 0.562370 -0.536333
C3    C     C_R   0.850163 0.424209 0.578056 0.718741
O9    O     O_R   0.674590 0.577020 0.546040 -0.536371
C4    C     C_R   0.844476 0.601130 0.556524 0.701453
V2    V     V_3+5 0.564550 0.501220 0.506220 1.427218
O10   O     O_3   0.838250 0.493400 0.466500 -0.368507
C5    C     C_R   0.961925 0.836302 0.912511 -0.067040
C6    C     C_R   0.860254 0.661690 0.588951 -0.046463
C7    C     C_R   0.878105 0.721194 0.909254 -0.121811
C8    C     C_R   0.903190 0.778757 0.939248 0.052662
C9    C     C_R   0.983128 0.835534 0.855607 -0.217345
C10   C     C_R   0.943406 0.778311 0.824011 0.038591
C11   C     C_R   0.896290 0.720050 0.852326 0.020984
C12   C     C_R   0.943949 0.777329 0.765426 0.064348
C13   C     C_R   0.903237 0.717724 0.736453 -0.012733
C14   C     C_R   0.866698 0.660915 0.766853 -0.215192
C15   C     C_R   0.862384 0.661714 0.823326 0.380432
C16   C     C_R   0.978560 0.834326 0.734760 -0.164054
C17   C     C_R   0.972455 0.833537 0.678248 -0.204957
C18   C     C_R   0.932788 0.776080 0.649586 0.142432
C19   C     C_R   0.898398 0.716960 0.677912 0.110500
C20   C     C_R   0.928772 0.777509 0.592448 -0.164811
C21   C     C_R   0.893963 0.720772 0.562477 -0.170909
C22   C     C_R   0.861670 0.659680 0.646139 -0.205419
H1    H     H_    0.838515 0.612433 0.664104 0.102268
H2    H     H_    0.896212 0.722740 0.518420 0.105007
H3    H     H_    0.999118 0.878737 0.656649 0.120024
H4    H     H_    0.836999 0.677485 0.930920 0.178697
H5    H     H_    0.024543 0.881103 0.837266 0.098802
H6    H     H_    0.837170 0.614459 0.747906 0.165999
H7    H     H_    0.008606 0.881091 0.753148 0.118763
H8    H     H_    0.955371 0.822653 0.570797 0.111622
H9    H     H_    0.619780 0.207441 0.794988 0.112872
C23   C     C_R   0.730055 0.270229 0.732309 -0.147693
H10   H     H_    0.587910 0.285667 0.719366 0.113295
C24   C     C_R   0.894050 0.294708 0.706250 0.138473
C25   C     C_R   0.076488 0.273990 0.724212 -0.148935
H11   H     H_    0.205003 0.292412 0.704936 0.118175
C26   C     C_R   0.094682 0.229379 0.767381 -0.146342
H12   H     H_    0.236834 0.214155 0.780527 0.111917
C27   C     C_R   0.930671 0.204800 0.793357 0.134417
C28   C     C_R   0.748241 0.225624 0.775482 -0.144349
C29   C     C_1   0.875622 0.340740 0.661249 -0.053438
C30   C     C_1   0.949051 0.158803 0.838390 -0.053994
C31   C     C_1   0.962226 0.120661 0.876190 -0.188813
C32   C     C_1   0.862165 0.378945 0.623510 -0.180911
H13   H     H_    0.684474 0.736638 0.321462 0.113394
C33   C     C_R   0.595593 0.789279 0.248906 0.087947
C34   C     C_R   0.445431 0.798596 0.210102 0.118859
C35   C     C_R   0.273859 0.762788 0.216068 -0.189327
H14   H     H_    0.156493 0.768350 0.187621 0.125578
C36   C     C_R   0.250050 0.718555 0.258857 -0.169339
H15   H     H_    0.115891 0.691765 0.261992 0.121493
C37   C     C_R   0.397475 0.708681 0.297021 0.116836
C38   C     C_R   0.569866 0.744147 0.291892 -0.184673
C39   C     C_1   0.464337 0.843504 0.163884 -0.067950
C40   C     C_1   0.371796 0.661728 0.340953 -0.051283
C41   C     C_1   0.352632 0.622445 0.377630 -0.194438
C42   C     C_1   0.476151 0.880613 0.125189 -0.206681
C43   C     C_R   0.476121 0.161142 0.090415 -0.049712
C44   C     C_R   0.348062 0.336088 0.412912 -0.067414
C45   C     C_R   0.549665 0.276256 0.098737 -0.153398
C46   C     C_R   0.538313 0.219623 0.067392 -0.161260
C47   C     C_R   0.426170 0.159601 0.145806 -0.215117
C48   C     C_R   0.440928 0.216670 0.179334 0.098541
C49   C     C_R   0.503107 0.275260 0.154188 0.134883
C50   C     C_R   0.399624 0.217719 0.236722 0.023644
C51   C     C_R   0.420077 0.277123 0.267431 0.060668
C52   C     C_R   0.481496 0.333720 0.239697 -0.175832
C53   C     C_R   0.521490 0.332611 0.184496 -0.198040
C54   C     C_R   0.340918 0.161066 0.264288 -0.224497
C55   C     C_R   0.304109 0.160594 0.320127 0.125248
C56   C     C_R   0.321824 0.219176 0.350789 0.076173
C57   C     C_R   0.379445 0.278069 0.324775 0.057727
C58   C     C_R   0.280769 0.220095 0.406995 -0.195105
C59   C     C_R   0.292340 0.277423 0.438054 0.075882
C60   C     C_R   0.392055 0.335986 0.357205 -0.230479
H16   H     H_    0.569227 0.377395 0.165328 0.129076
H17   H     H_    0.430433 0.382646 0.340342 0.101543
H18   H     H_    0.598155 0.320983 0.079672 0.126198
H19   H     H_    0.579259 0.221320 0.024986 0.115255
H20   H     H_    0.381386 0.112880 0.161299 0.094386
H21   H     H_    0.502471 0.380202 0.259447 0.123215
H22   H     H_    0.325165 0.115168 0.243281 0.126206
H23   H     H_    0.238111 0.176095 0.427809 0.113784
O11   O     O_R   0.323320 0.942780 0.056240 -0.533408
O12   O     O_R   0.647300 0.077050 0.046060 -0.536891
O13   O     O_R   0.813840 0.057330 0.943840 -0.533194
C61   C     C_R   0.479440 0.100878 0.057181 0.699826
O14   O     O_R   0.653250 0.944380 0.062400 -0.543012
O15   O     O_R   0.819830 0.923720 0.960300 -0.537622
C62   C     C_R   0.484956 0.924717 0.078594 0.714552
O16   O     O_R   0.317330 0.076390 0.039790 -0.534011
O17   O     O_3   0.483830 0.993470 0.966560 -0.365935
V3    V     V_3+5 0.760140 0.001210 0.006210 1.415802
O18   O     O_R   0.149290 0.922840 0.953850 -0.542154
C63   C     C_R   0.978846 0.898956 0.942932 0.701238
O19   O     O_R   0.143340 0.055500 0.937510 -0.537160
C64   C     C_R   0.974067 0.075539 0.921761 0.727984
V4    V     V_3+5 0.259690 0.998600 0.993650 1.418065
O20   O     O_3   0.986130 0.006520 0.033440 -0.364403
Cl1   Cl    Cl    0.810169 0.586959 0.855905 -0.630689
C65   C     C_3   0.784560 0.825695 0.244845 -0.372417
C66   C     C_3   0.765494 0.896573 0.264267 -0.293573
C67   C     C_3   0.955733 0.933373 0.258923 -0.775121
H24   H     H_    0.069290 0.909962 0.284282 0.232412
H25   H     H_    0.001961 0.933898 0.215770 0.233746
H26   H     H_    0.937321 0.984585 0.272905 0.212065
H27   H     H_    0.653896 0.922297 0.239835 0.198233
H28   H     H_    0.721381 0.897205 0.307629 0.194110
H29   H     H_    0.896717 0.801204 0.270030 0.176658
H30   H     H_    0.834691 0.824463 0.202138 0.181909
C68   C     C_3   0.244226 0.274500 0.498084 -0.381270
C69   C     C_3   0.427630 0.274172 0.533342 -0.299001
C70   C     C_3   0.379640 0.275566 0.593761 -0.768377
H31   H     H_    0.302709 0.321405 0.604021 0.234204
H32   H     H_    0.288376 0.232955 0.604512 0.227102
H33   H     H_    0.514666 0.273465 0.618174 0.217362
H34   H     H_    0.511855 0.229374 0.524429 0.190210
H35   H     H_    0.518833 0.317269 0.524069 0.199134
H36   H     H_    0.150819 0.316204 0.509372 0.181453
H37   H     H_    0.159772 0.229597 0.507008 0.167603
C71   C     C_3   0.246335 0.095560 0.345192 -0.355060
C72   C     C_3   0.413493 0.063589 0.376660 -0.304330
C73   C     C_3   0.574836 0.041650 0.339033 -0.737429
H38   H     H_    0.517045 0.008604 0.306821 0.219184
H39   H     H_    0.644505 0.084516 0.319762 0.235697
H40   H     H_    0.685707 0.014949 0.362956 0.205059
H41   H     H_    0.473796 0.097575 0.407803 0.189905
H42   H     H_    0.357254 0.020013 0.398268 0.178872
H43   H     H_    0.120213 0.101993 0.371991 0.135681
H44   H     H_    0.195061 0.060673 0.313366 0.167390
C74   C     C_3   0.855403 0.778262 0.999207 -0.370783
C75   C     C_3   0.035470 0.786710 0.035162 -0.289631
C76   C     C_3   0.981394 0.811873 0.091225 -0.768032
H45   H     H_    0.893059 0.856618 0.088067 0.245811
H46   H     H_    0.900977 0.773786 0.113767 0.220343
H47   H     H_    0.113697 0.825499 0.113644 0.218733
H48   H     H_    0.110390 0.739048 0.039267 0.197057
H49   H     H_    0.139058 0.821578 0.017205 0.198287
H50   H     H_    0.748436 0.817236 0.007153 0.186873
H51   H     H_    0.783468 0.731805 0.010853 0.171217

loop_
_geom_bond_atom_site_label_1
_geom_bond_atom_site_label_2
_ccdc_geom_bond_type
C13   C19   A    
C73   H40   S    
C61   O16   A    
O15   C63   A    
O11   C62   A    
C68   H37   S    
C4    C6    S    
C7    C11   A    
C7    C8    A    
C57   C60   A    
O14   V3    S    
C45   C49   A    
C21   H2    S    
C66   C67   S    
C68   C69   S    
C25   C26   A    
C50   C51   A    
C23   H10   S    
C71   H44   S    
C36   H15   S    
O13   V3    S    
O16   V4    S    
C16   C17   A    
C52   H21   S    
C5    C63   S    
C34   C39   S    
O5    C3    A    
C18   C19   A    
H9    C28   S    
C39   C42   T    
O18   C63   A    
C67   H24   S    
C16   H7    S    
C5    C8    A    
O19   C64   A    
C35   C36   A    
C22   H1    S    
C47   H20   S    
C48   C50   A    
V4    O20   S    
C36   C37   A    
O12   C61   A    
C24   C25   A    
O8    V2    S    
C65   H30   S    
C25   H11   S    
C67   H25   S    
C43   C47   A    
C33   C65   S    
C75   H49   S    
O1    V2    S    
C2    C44   S    
C11   C15   A    
C18   C20   A    
O7    V1    S    
C66   H27   S    
C1    O6    A    
O12   V3    S    
C23   C28   A    
C74   H50   S    
V3    O20   S    
C34   C35   A    
O13   C64   A    
O9    C4    A    
C31   C64   S    
C8    C74   S    
O17   V3    S    
C76   H46   S    
C23   C24   A    
C76   H45   S    
O15   V3    S    
C47   C48   A    
C27   C28   A    
C37   C40   S    
C49   C53   A    
C73   H38   S    
C12   C13   A    
C46   H19   S    
C72   H41   S    
C1    C41   S    
C42   C62   S    
C51   C52   A    
C45   C46   A    
C26   C27   A    
C13   C14   A    
C58   C59   A    
O11   V4    S    
C54   C55   A    
C40   C41   T    
C35   H14   S    
O2    C1    A    
C48   C49   A    
C17   C18   A    
C7    H4    S    
C70   H33   S    
C44   C59   A    
C45   H18   S    
C33   C38   A    
C56   C57   A    
C9    H5    S    
C50   C54   A    
C67   H26   S    
C43   C46   A    
O14   C62   A    
C14   C15   A    
C19   C22   A    
C69   H35   S    
C6    C22   A    
C3    C32   S    
O3    C4    A    
C44   C60   A    
C74   H51   S    
C56   C58   A    
C15   Cl1   S    
C55   C56   A    
O6    V2    S    
C60   H17   S    
C70   H31   S    
C10   C12   A    
O2    V1    S    
C76   H47   S    
C43   C61   S    
O4    C2    A    
C65   C66   S    
O18   V4    S    
C29   C32   T    
C73   H39   S    
C30   C31   T    
C75   H48   S    
C68   H36   S    
O1    C2    A    
C12   C16   A    
H13   C38   S    
C75   C76   S    
O5    V1    S    
O8    C3    A    
C72   C73   S    
C72   H42   S    
C71   H43   S    
C27   C30   S    
C20   C21   A    
C55   C71   S    
O9    V2    S    
C33   C34   A    
O4    V1    S    
C53   H16   S    
O3    V1    S    
V1    O10   S    
C37   C38   A    
O17   V4    S    
C54   H22   S    
C58   H23   S    
C14   H6    S    
C71   C72   S    
V2    O10   S    
C24   C29   S    
O19   V4    S    
C69   H34   S    
O7    V2    S    
C6    C21   A    
C5    C9    A    
C52   C53   A    
C51   C57   A    
C65   H29   S    
C26   H12   S    
C17   H3    S    
C59   C68   S    
C70   H32   S    
C20   H8    S    
C10   C11   A    
C9    C10   A    
C66   H28   S    
C74   C75   S    
C69   C70   S    
