data_mof_unit_pretest_560.cif
_audit_creation_date              2012-12-11T17:09:23-0500
_audit_creation_method            fapswitch 2.2
_symmetry_space_group_name_H-M    P1
_symmetry_Int_Tables_number       1
_space_group_crystal_system       monoclinic
_cell_length_a                    14.808718
_cell_length_b                    6.918077
_cell_length_c                    13.512307
_cell_angle_alpha                 90.0
_cell_angle_beta                  99.842518
_cell_angle_gamma                 90.0
_cell_volume                      1363.93164804

loop_
_atom_site_label
_atom_site_type_symbol
_atom_type_description
_atom_site_fract_x
_atom_site_fract_y
_atom_site_fract_z
_atom_type_partial_charge
O1    O     O_R   0.586930 0.505770 0.416350 -0.535740
O2    O     O_R   0.413070 0.005770 0.583650 -0.535740
O3    O     O_R   0.397900 0.173100 0.389630 -0.536266
O4    O     O_R   0.602100 0.673100 0.610370 -0.536266
C1    C     C_R   0.364292 0.345440 0.362747 0.724445
C2    C     C_R   0.635708 0.845440 0.637253 0.724445
O5    O     O_R   0.585280 0.175870 0.404330 -0.546311
O6    O     O_R   0.414720 0.675870 0.595670 -0.546311
O7    O     O_R   0.601790 0.008380 0.598460 -0.534066
O8    O     O_R   0.398210 0.508380 0.401540 -0.534066
C3    C     C_R   0.614886 0.344930 0.382951 0.693451
C4    C     C_R   0.385113 0.844930 0.617049 0.693451
O9    O     O_3   0.505200 0.340120 0.563670 -0.367387
O10   O     O_3   0.494800 0.840120 0.436330 -0.367387
V1    V     V_3+5 0.499040 0.064180 0.488190 1.417578
V2    V     V_3+5 0.500960 0.564180 0.511810 1.417579
C5    C     C_R   0.293364 0.030829 0.724951 0.027054
C6    C     C_R   0.706636 0.530830 0.275050 0.027054
C7    C     C_R   0.313271 0.855859 0.681072 -0.073334
C8    C     C_R   0.686729 0.355859 0.318928 -0.073334
C9    C     C_R   0.257945 0.695094 0.694612 -0.187564
C10   C     C_R   0.742055 0.195094 0.305388 -0.187565
H1    H     H_    0.266720 0.559411 0.657513 0.123126
H2    H     H_    0.733280 0.059411 0.342487 0.123126
C11   C     C_R   0.191716 0.706786 0.758156 -0.193609
C12   C     C_R   0.808284 0.206786 0.241844 -0.193610
H3    H     H_    0.151797 0.579441 0.768271 0.122960
H4    H     H_    0.848202 0.079441 0.231728 0.122960
C13   C     C_R   0.179148 0.879413 0.809979 -0.067062
C14   C     C_R   0.820852 0.379412 0.190021 -0.067063
C15   C     C_R   0.228491 0.042194 0.787981 0.030531
C16   C     C_R   0.771509 0.542194 0.212019 0.030531
C17   C     C_3   0.284834 0.182902 0.856526 0.336099
C18   C     C_3   0.715166 0.682904 0.143475 0.336100
C19   C     C_3   0.356240 0.168997 0.787664 -0.449766
C20   C     C_3   0.643760 0.668999 0.212337 -0.449766
H5    H     H_    0.250070 0.325767 0.856373 0.051157
H6    H     H_    0.749931 0.825768 0.143629 0.051156
H7    H     H_    0.421696 0.099848 0.822989 0.181292
H8    H     H_    0.578304 0.599850 0.177011 0.181292
H9    H     H_    0.364451 0.305893 0.747230 0.141903
H10   H     H_    0.635550 0.805894 0.252771 0.141903
C21   C     C_1   0.783438 0.877094 0.782898 -0.186517
C22   C     C_1   0.216561 0.377094 0.217102 -0.186517
C23   C     C_1   0.716143 0.860129 0.716891 -0.192906
C24   C     C_1   0.283857 0.360129 0.283108 -0.192905
O11   O     O_R   0.101720 0.231700 0.098560 -0.530557
O12   O     O_R   0.898280 0.731700 0.901440 -0.530557
O13   O     O_R   0.914700 0.558980 0.095690 -0.542712
O14   O     O_R   0.085300 0.058980 0.904310 -0.542712
C25   C     C_R   0.885607 0.389807 0.117677 0.723544
C26   C     C_R   0.114393 0.889807 0.882323 0.723544
O15   O     O_R   0.102080 0.561590 0.110390 -0.538868
O16   O     O_R   0.897920 0.061590 0.889610 -0.538868
O17   O     O_R   0.086950 0.728940 0.916330 -0.545659
O18   O     O_R   0.913050 0.228940 0.083670 -0.545659
C27   C     C_R   0.136122 0.391896 0.137477 0.732395
C28   C     C_R   0.863877 0.891896 0.862523 0.732395
O19   O     O_3   0.994770 0.394510 0.936380 -0.372304
O20   O     O_3   0.005230 0.894510 0.063620 -0.372304
V3    V     V_3+5 0.000970 0.670520 0.011800 1.435879
V4    V     V_3+5 0.999030 0.170520 0.988200 1.435878
O21   O     O_3   0.315355 0.101035 0.952236 -0.541353
C29   C     C_3   0.358567 0.245244 0.017363 -0.223850
H11   H     H_    0.309177 0.360465 0.029449 0.125482
H12   H     H_    0.418111 0.308877 0.988642 0.141121
H13   H     H_    0.384693 0.178526 0.091384 0.157814
O22   O     O_3   0.684645 0.601039 0.047764 -0.541353
C30   C     C_3   0.641434 0.745249 0.982638 -0.223845
H14   H     H_    0.690824 0.860474 0.970554 0.125481
H15   H     H_    0.581889 0.808881 0.011358 0.141120
H16   H     H_    0.615309 0.678534 0.908615 0.157813

loop_
_geom_bond_atom_site_label_1
_geom_bond_atom_site_label_2
_ccdc_geom_bond_type
C14   C25   S    
C2    C23   S    
C20   H10   S    
O1    C3    A    
O2    C4    A    
O11   V4    S    
O5    C3    A    
C10   H2    S    
C7    C9    A    
O20   V4    S    
C25   O18   A    
C30   H15   S    
C21   C28   S    
C5    C7    A    
O15   V3    S    
O22   C30   S    
O13   C25   A    
O14   C26   A    
C15   C17   S    
O10   V2    S    
C18   C20   S    
C26   O17   A    
C17   O21   S    
O5    V1    S    
O6    V2    S    
C2    O7    A    
C22   C24   T    
C11   C13   A    
C3    C8    S    
O19   V3    S    
O13   V3    S    
C29   H13   S    
C20   H8    S    
O4    C2    A    
C18   O22   S    
O15   C27   A    
O16   V4    S    
C17   H5    S    
O20   V3    S    
C16   C18   S    
O4    V2    S    
C30   H16   S    
C19   H7    S    
O11   C27   A    
C22   C27   S    
O6    C4    A    
O1    V2    S    
O2    V1    S    
C21   C23   T    
C8    C10   A    
C12   C14   A    
O9    V1    S    
O14   V4    S    
O18   V4    S    
C6    C16   A    
O3    V1    S    
O16   C28   A    
C9    C11   A    
O19   V4    S    
C18   H6    S    
O3    C1    A    
O12   C28   A    
C11   H3    S    
C1    C24   S    
C12   H4    S    
C29   H11   S    
C9    H1    S    
O7    V1    S    
C1    O8    A    
C13   C15   A    
O8    V2    S    
C14   C16   A    
O12   V3    S    
C5    C15   A    
O17   V3    S    
C4    C7    S    
C17   C19   S    
C6    C8    A    
C30   H14   S    
C19   H9    S    
O21   C29   S    
C10   C12   A    
O9    V2    S    
O10   V1    S    
C5    C19   S    
C6    C20   S    
C29   H12   S    
C13   C26   S    
