data_mof_unit_pretest_899.cif
_audit_creation_date              2012-12-10T18:13:51-0500
_audit_creation_method            fapswitch 2.2
_symmetry_space_group_name_H-M    P1
_symmetry_Int_Tables_number       1
_space_group_crystal_system       triclinic
_cell_length_a                    10.855779
_cell_length_b                    9.476938
_cell_length_c                    23.516394
_cell_angle_alpha                 89.816969
_cell_angle_beta                  90.312185
_cell_angle_gamma                 89.135554
_cell_volume                      2419.03165097

loop_
_atom_site_label
_atom_site_type_symbol
_atom_type_description
_atom_site_fract_x
_atom_site_fract_y
_atom_site_fract_z
_atom_type_partial_charge
C1    C     C_R   0.259859 0.501061 0.499161 0.779360
C2    C     C_R   0.323018 0.396017 0.967339 -0.235714
C3    C     C_R   0.319219 0.388241 0.026610 -0.042436
C4    C     C_R   0.423062 0.431580 0.059218 -0.028902
C5    C     C_R   0.534155 0.464631 0.030784 -0.050013
C6    C     C_R   0.641971 0.497999 0.062179 -0.030258
C7    C     C_R   0.754174 0.520334 0.032342 -0.016156
C8    C     C_R   0.753075 0.526799 0.972915 -0.235757
C9    C     C_R   0.419366 0.448814 0.118779 0.558018
C10   C     C_R   0.631476 0.512290 0.121797 0.563769
C11   C     C_R   0.509344 0.365228 0.240342 -0.084755
C12   C     C_R   0.500645 0.499984 0.391021 0.814584
C13   C     C_R   0.503226 0.368737 0.299406 -0.213734
C14   C     C_R   0.504606 0.498273 0.328396 -0.048120
C15   C     C_R   0.511985 0.624379 0.296993 -0.186421
C16   C     C_R   0.518320 0.620498 0.237667 -0.083560
C17   C     C_R   0.517187 0.490742 0.209240 0.342220
C18   C     C_R   0.466160 0.599912 0.765743 -0.117992
C19   C     C_R   0.455145 0.607880 0.706542 -0.044748
C20   C     C_R   0.513771 0.504263 0.672104 -0.093160
C21   C     C_R   0.592550 0.405413 0.698659 -0.141417
C22   C     C_R   0.603259 0.398217 0.757690 -0.057563
C23   C     C_R   0.739437 0.499418 0.498730 0.789709
C24   C     C_R   0.537411 0.493438 0.791477 0.307441
C25   C     C_3   0.066101 0.658297 0.486260 -0.083937
C26   C     C_3   0.070848 0.444031 0.558053 -0.081170
C27   C     C_3   0.922685 0.648515 0.477499 -0.205358
C28   C     C_3   0.928885 0.476196 0.560557 -0.224324
C29   C     C_3   0.071256 0.405659 0.451031 -0.415184
C30   C     C_3   0.121068 0.503896 0.499349 -0.041873
C31   C     C_3   0.877009 0.500261 0.498631 -0.062304
C32   C     C_3   0.930821 0.384840 0.458315 -0.401701
C33   C     C_3   0.602349 0.080503 0.537298 -0.063711
C34   C     C_3   0.615539 0.915490 0.527177 -0.073742
C35   C     C_3   0.382511 0.085194 0.522886 -0.168830
C36   C     C_3   0.391209 0.919628 0.530266 -0.186428
C37   C     C_3   0.513135 0.083115 0.442902 -0.229317
C38   C     C_3   0.497616 0.916958 0.442492 -0.223742
C39   C     C_R   0.501552 0.500848 0.609197 0.815661
C40   C     C_R   0.644683 0.507960 0.882030 0.552782
C41   C     C_R   0.433404 0.442897 0.879519 0.551083
C42   C     C_R   0.430130 0.435658 0.939096 -0.009694
C43   C     C_R   0.536849 0.466392 0.970612 -0.010454
C44   C     C_R   0.645596 0.501232 0.941790 -0.013719
Cu1   Cu    Cu3+1 0.499860 0.642410 0.500030 0.956872
Cu2   Cu    Cu3+1 0.499860 0.357590 0.500030 0.922150
H1    H     H_    0.242241 0.366351 0.943069 0.184191
H2    H     H_    0.648551 0.335690 0.673513 0.203657
H3    H     H_    0.661752 0.317829 0.777122 0.166686
H4    H     H_    0.877788 0.731247 0.504365 0.162791
H5    H     H_    0.913291 0.578046 0.583327 0.175728
H6    H     H_    0.089781 0.451981 0.408499 0.178931
H7    H     H_    0.118258 0.300577 0.451299 0.193420
H8    H     H_    0.884388 0.387339 0.416081 0.166996
H9    H     H_    0.914001 0.278421 0.476522 0.190524
H10   H     H_    0.690956 0.129266 0.525857 0.108591
H11   H     H_    0.693008 0.900908 0.496769 0.141148
H12   H     H_    0.357234 0.135364 0.563882 0.188601
H13   H     H_    0.395349 0.892886 0.575856 0.184217
H14   H     H_    0.442345 0.130312 0.413986 0.161818
H15   H     H_    0.409709 0.889970 0.420818 0.167685
H16   H     H_    0.604594 0.110634 0.425195 0.160598
H17   H     H_    0.572365 0.869210 0.416453 0.199757
H18   H     H_    0.305663 0.111554 0.492952 0.158807
H19   H     H_    0.306184 0.874536 0.512550 0.179918
H20   H     H_    0.838371 0.547596 0.950805 0.182114
H21   H     H_    0.508352 0.264705 0.218585 0.149196
H22   H     H_    0.497786 0.269710 0.322265 0.151396
H23   H     H_    0.513375 0.725630 0.318182 0.157959
H24   H     H_    0.523856 0.718033 0.213779 0.148357
H25   H     H_    0.418072 0.675859 0.792336 0.152111
N1    N     N_R   0.539176 0.480221 0.852297 -0.470354
N2    N     N_R   0.522731 0.485032 0.148311 -0.483815
N3    N     N_3   0.500250 0.143650 0.501250 -0.154022
N4    N     N_3   0.500250 0.856350 0.501250 -0.160192
O1    O     O_R   0.317570 0.620260 0.500030 -0.586916
O2    O     O_R   0.317570 0.379740 0.500030 -0.595731
O3    O     O_R   0.499840 0.620290 0.417900 -0.580677
O4    O     O_R   0.499840 0.379710 0.417900 -0.599561
O5    O     O_R   0.682190 0.620260 0.500010 -0.576132
O6    O     O_R   0.682190 0.379740 0.500010 -0.611981
O7    O     O_R   0.499920 0.620230 0.582140 -0.575879
O8    O     O_R   0.499920 0.379770 0.582140 -0.578295
O9    O     O_2   0.747736 0.543696 0.853927 -0.508609
O10   O     O_2   0.331651 0.412606 0.848911 -0.511223
O11   O     O_2   0.312534 0.436508 0.147201 -0.472399
O12   O     O_2   0.727023 0.557785 0.153250 -0.481068
C45   C     C_1   0.381340 0.722853 0.684130 0.316296
N5    N     N_1   0.320532 0.816045 0.668007 -0.244564
C46   C     C_1   0.125744 0.723001 0.435853 0.230337
N6    N     N_1   0.172140 0.773201 0.396632 -0.289388
C47   C     C_1   0.096809 0.289892 0.563278 0.268137
N7    N     N_1   0.114685 0.169696 0.567718 -0.285439
C48   C     C_1   0.089166 0.756041 0.534085 0.187967
N8    N     N_1   0.105190 0.832581 0.571578 -0.230574
C49   C     C_1   0.129850 0.505812 0.608522 0.273084
N9    N     N_1   0.173990 0.551938 0.649057 -0.230102
C50   C     C_2   0.879126 0.679815 0.416845 0.393877
H26   H     H_    0.909971 0.614590 0.381741 0.095140
O13   O     O_2   0.810964 0.780561 0.406827 -0.572168
C51   C     C_2   0.861722 0.368586 0.596195 0.361182
H27   H     H_    0.819963 0.277614 0.576805 0.080274
O14   O     O_2   0.863924 0.377655 0.647939 -0.523886
C52   C     C_1   0.581390 0.105992 0.598768 0.253038
N10   N     N_1   0.561928 0.116578 0.646856 -0.278373
C53   C     C_1   0.660162 0.837540 0.578145 0.296818
N11   N     N_1   0.697555 0.779077 0.618117 -0.257950
C54   C     C_2   0.206767 0.325914 0.050998 0.511876
H28   H     H_    0.117352 0.352177 0.032637 0.058227
O15   O     O_2   0.213552 0.236407 0.088387 -0.468779
C55   C     C_2   0.876856 0.529506 0.059882 0.459071
H29   H     H_    0.943300 0.604351 0.044053 0.048072
O16   O     O_2   0.908427 0.446356 0.097152 -0.467970

loop_
_geom_bond_atom_site_label_1
_geom_bond_atom_site_label_2
_ccdc_geom_bond_type
C37   N3    S    
C35   N3    S    
C8    H20   S    
C51   H27   S    
C33   C52   S    
C1    O2    A    
C41   C42   A    
C40   O9    S    
C19   C20   A    
C36   H13   S    
C37   H16   S    
C7    C8    A    
C27   C50   S    
Cu1   Cu2   S    
C25   C46   S    
C29   C30   S    
Cu1   O1    S    
C18   C24   A    
C29   C32   S    
C5    C6    A    
C10   N2    A    
C53   N11   T    
C26   C47   S    
C15   C16   A    
C12   O4    A    
C18   H25   S    
C54   H28   S    
C18   C19   A    
C1    C30   S    
C28   C51   S    
Cu1   O7    S    
C54   O15   D    
C16   C17   A    
C12   O3    A    
C34   H11   S    
C35   H18   S    
C23   O5    A    
C23   O6    A    
C32   H9    S    
C27   H4    S    
C34   N4    S    
C38   H15   S    
C33   H10   S    
C5    C43   A    
C25   C48   S    
C51   O14   D    
C21   C22   A    
C17   N2    S    
C9    N2    A    
C32   H8    S    
C52   N10   T    
C11   H21   S    
C38   N4    S    
C26   C49   S    
C15   H23   S    
C10   O12   S    
C27   C31   S    
C34   C53   S    
C16   H24   S    
C19   C45   S    
C20   C39   S    
C36   H19   S    
C35   C36   S    
C23   C31   S    
C43   C44   A    
C37   C38   S    
C36   N4    S    
C9    O11   S    
Cu2   O6    S    
C31   C32   S    
C49   N9    T    
C33   C34   S    
C55   O16   D    
C45   N5    T    
Cu1   O3    S    
C41   N1    A    
C12   C14   S    
C26   C30   S    
C50   O13   D    
C35   H12   S    
C3    C54   S    
C22   C24   A    
C42   C43   A    
C3    C4    A    
Cu2   N3    S    
C24   N1    S    
C38   H17   S    
C22   H3    S    
C25   C30   S    
C11   C17   A    
C40   N1    A    
C55   H29   S    
C1    O1    A    
C28   C31   S    
C8    C44   A    
C39   O7    A    
C4    C5    A    
C6    C10   A    
Cu2   O2    S    
C6    C7    A    
C2    H1    S    
C25   C27   S    
C41   O10   S    
C26   C28   S    
Cu1   N4    S    
C21   H2    S    
C2    C3    A    
C39   O8    A    
C11   C13   A    
C46   N6    T    
Cu2   O4    S    
C29   H7    S    
C2    C42   A    
C47   N7    T    
C28   H5    S    
C7    C55   S    
Cu1   O5    S    
C48   N8    T    
C37   H14   S    
Cu2   O8    S    
C33   N3    S    
C40   C44   A    
C20   C21   A    
C50   H26   S    
C14   C15   A    
C4    C9    A    
C13   C14   A    
C29   H6    S    
C13   H22   S    
