data_mof_unit_pretest_1985.cif
_audit_creation_date              2012-12-10T19:28:20-0500
_audit_creation_method            fapswitch 2.2
_symmetry_space_group_name_H-M    P1
_symmetry_Int_Tables_number       1
_space_group_crystal_system       triclinic
_cell_length_a                    17.726455
_cell_length_b                    16.474603
_cell_length_c                    15.906228
_cell_angle_alpha                 90.000199
_cell_angle_beta                  90.781542
_cell_angle_gamma                 89.999983
_cell_volume                      4644.76396856

loop_
_atom_site_label
_atom_site_type_symbol
_atom_type_description
_atom_site_fract_x
_atom_site_fract_y
_atom_site_fract_z
_atom_type_partial_charge
C1    C     C_R   0.355234 0.500000 0.499947 0.783070
C2    C     C_R   0.767737 0.426320 0.500638 -0.149971
C3    C     C_R   0.727713 0.500000 0.500476 -0.051269
C4    C     C_R   0.885596 0.500000 0.501060 0.134173
C5    C     C_1   0.966182 0.500000 0.501075 -0.038413
C6    C     C_R   0.499862 0.500000 0.339947 0.806838
C7    C     C_1   0.033833 0.500000 0.500976 -0.042085
C8    C     C_R   0.153627 0.573582 0.500589 -0.137940
C9    C     C_R   0.153627 0.426417 0.500570 -0.137968
C10   C     C_R   0.232266 0.573684 0.500271 -0.173661
C11   C     C_R   0.232266 0.426316 0.500252 -0.173729
C12   C     C_3   0.580162 0.500723 0.951720 -0.465530
C13   C     C_R   0.272281 0.500000 0.500124 -0.033729
C14   C     C_R   0.114416 0.500000 0.500751 0.139514
C15   C     C_R   0.543695 0.832592 0.549556 -0.271387
C16   C     C_R   0.543694 0.167408 0.549558 -0.271300
C17   C     C_R   0.545816 0.746940 0.551930 0.561584
C18   C     C_R   0.545815 0.253061 0.551932 0.561682
C19   C     C_R   0.451768 0.740144 0.445387 0.028497
C20   C     C_R   0.451770 0.259855 0.445386 0.028549
C21   C     C_R   0.448246 0.825776 0.441442 -0.248655
C22   C     C_R   0.448247 0.174223 0.441441 -0.248646
C23   C     C_3   0.580488 0.500725 0.049233 -0.341150
C24   C     C_R   0.494665 0.873249 0.494040 0.073206
C25   C     C_R   0.494665 0.126750 0.494040 0.073257
C26   C     C_R   0.644753 0.500000 0.500157 0.834120
C27   C     C_1   0.492681 0.962749 0.491803 0.010925
C28   C     C_1   0.492681 0.037251 0.491803 0.010942
C29   C     C_R   0.500198 0.500000 0.660048 0.876234
C30   C     C_3   0.455400 0.575849 0.048463 0.141304
C31   C     C_3   0.456582 0.423366 0.048480 0.141198
C32   C     C_3   0.460597 0.420762 0.950982 -0.018675
C33   C     C_3   0.459373 0.578524 0.950964 -0.018857
C34   C     C_1   0.499215 0.499995 0.824882 0.034897
C35   C     C_1   0.499915 0.500000 0.749495 -0.079763
C36   C     C_3   0.498492 0.499989 0.082799 0.064882
C37   C     C_3   0.497829 0.499983 0.916876 0.061231
C38   C     C_1   0.499078 0.499995 0.175032 0.074393
C39   C     C_1   0.499498 0.499998 0.250454 -0.106333
C40   C     C_R   0.846381 0.573581 0.500936 -0.142636
C41   C     C_R   0.846381 0.426419 0.500936 -0.142598
C42   C     C_R   0.767737 0.573680 0.500637 -0.150080
Cl1   Cl    Cl    0.609214 0.701411 0.623360 -0.603905
Cl2   Cl    Cl    0.609211 0.298590 0.623364 -0.603648
Cl3   Cl    Cl    0.493203 0.330783 0.092853 -0.585685
Cl4   Cl    Cl    0.490582 0.669077 0.092815 -0.585886
Cu1   Cu    Cu3+1 0.499980 0.580420 0.500000 1.010484
Cu2   Cu    Cu3+1 0.499980 0.419580 0.500000 1.010598
H1    H     H_    0.261626 0.631336 0.500148 0.157491
H2    H     H_    0.396540 0.426676 0.067570 0.146809
H3    H     H_    0.497181 0.369111 0.932166 0.203240
H4    H     H_    0.495151 0.630825 0.932134 0.203190
H5    H     H_    0.611209 0.555187 0.072845 0.221435
H6    H     H_    0.612047 0.446820 0.072855 0.221393
H7    H     H_    0.610751 0.555243 0.928742 0.210633
H8    H     H_    0.611594 0.446761 0.928752 0.210541
H9    H     H_    0.876571 0.630778 0.500998 0.145561
H10   H     H_    0.876570 0.369222 0.500998 0.145573
H11   H     H_    0.738396 0.631333 0.500456 0.188460
H12   H     H_    0.261625 0.368663 0.500114 0.157486
H13   H     H_    0.738395 0.368667 0.500456 0.188476
H14   H     H_    0.123438 0.630778 0.500696 0.141515
H15   H     H_    0.123437 0.369222 0.500662 0.141514
H16   H     H_    0.580416 0.867218 0.591108 0.179516
H17   H     H_    0.580413 0.132783 0.591112 0.179520
H18   H     H_    0.415429 0.704763 0.404327 0.150639
H19   H     H_    0.415431 0.295235 0.404325 0.150438
H20   H     H_    0.409445 0.854561 0.397528 0.162595
H21   H     H_    0.409447 0.145437 0.397525 0.162502
H22   H     H_    0.395417 0.571461 0.067555 0.146816
I1    I     I_    0.351595 0.610461 0.895442 -0.265172
I2    I     I_    0.353331 0.386892 0.895468 -0.264528
N1    N     N_R   0.499970 0.701220 0.499980 -0.203236
N2    N     N_R   0.499970 0.298780 0.499980 -0.203209
O1    O     O_R   0.391240 0.567930 0.499990 -0.594959
O2    O     O_R   0.391240 0.432070 0.499990 -0.594970
O3    O     O_R   0.499990 0.567940 0.379430 -0.577721
O4    O     O_R   0.499990 0.432060 0.379430 -0.577703
O5    O     O_R   0.608730 0.567880 0.500000 -0.551199
O6    O     O_R   0.608730 0.432120 0.500000 -0.551175
O7    O     O_R   0.499980 0.567880 0.620560 -0.534846
O8    O     O_R   0.499980 0.432120 0.620560 -0.534705

loop_
_geom_bond_atom_site_label_1
_geom_bond_atom_site_label_2
_ccdc_geom_bond_type
C3    C42   A    
C34   C37   S    
Cu2   O2    S    
C20   H19   S    
C24   C27   S    
Cu1   O5    S    
C32   I2    S    
C33   H4    S    
C12   C23   S    
C19   C21   A    
C41   H10   S    
C31   C36   S    
C38   C39   T    
C6    O4    A    
C4    C41   A    
C2    C41   A    
C19   H18   S    
C34   C35   T    
Cu2   O4    S    
C12   C37   S    
C7    C14   S    
C31   C32   S    
C22   C25   A    
C15   H16   S    
C22   H21   S    
C2    H13   S    
C40   C42   A    
C18   N2    A    
C17   N1    A    
C30   H22   S    
C23   H5    S    
C1    O1    A    
Cu2   N2    S    
C19   N1    A    
Cu1   N1    S    
C5    C7    T    
C6    O3    A    
C26   O6    A    
C25   C28   S    
C9    C14   A    
C17   Cl1   S    
C32   H3    S    
C29   O7    A    
C18   Cl2   S    
Cu1   Cu2   S    
C20   N2    A    
C32   C37   S    
C9    C11   A    
C12   H8    S    
C8    C10   A    
C15   C24   A    
C20   C22   A    
C21   H20   S    
C1    C13   S    
Cu1   O3    S    
C31   H2    S    
C11   H12   S    
C23   H6    S    
C16   C25   A    
C15   C17   A    
C8    C14   A    
C40   H9    S    
C30   C33   S    
C9    H15   S    
C1    O2    A    
C30   Cl4   S    
C3    C26   S    
C4    C5    S    
C10   C13   A    
C42   H11   S    
C29   C35   S    
C26   O5    A    
C30   C36   S    
C4    C40   A    
Cu2   O6    S    
C36   C38   S    
C2    C3    A    
Cu1   O1    S    
C29   O8    A    
C11   C13   A    
Cu2   O8    S    
Cu1   O7    S    
C33   C37   S    
C12   H7    S    
C33   I1    S    
C16   C18   A    
C23   C36   S    
C31   Cl3   S    
C21   C24   A    
C27   C28   T    
C6    C39   S    
C16   H17   S    
C10   H1    S    
C8    H14   S    
