data_mof_unit_pretest_614.cif
_audit_creation_date              2013-03-05T15:47:34-0500
_audit_creation_method            fapswitch 2.2
_symmetry_space_group_name_H-M    P1
_symmetry_Int_Tables_number       1
_space_group_crystal_system       triclinic
_cell_length_a                    7.214249
_cell_length_b                    15.70107
_cell_length_c                    22.159667
_cell_angle_alpha                 90.343512
_cell_angle_beta                  91.125502
_cell_angle_gamma                 88.108812
_cell_volume                      2508.17000141

loop_
_atom_site_label
_atom_site_type_symbol
_atom_site_description
_atom_site_fract_x
_atom_site_fract_y
_atom_site_fract_z
_atom_type_partial_charge
O1    O     O_R   0.390810 0.844810 0.447340 -0.559036
O2    O     O_R   0.109190 0.155190 0.947340 -0.581871
O3    O     O_R   0.890810 0.655190 0.552660 -0.586383
O4    O     O_R   0.609190 0.344810 0.052660 -0.577353
O5    O     O_R   0.720550 0.655820 0.440420 -0.576309
O6    O     O_R   0.779450 0.344180 0.940420 -0.570410
O7    O     O_R   0.220550 0.844180 0.559580 -0.590771
O8    O     O_R   0.279450 0.155820 0.059580 -0.548436
C1    C     C_R   0.553377 0.623642 0.428820 1.271703
C2    C     C_R   0.942804 0.371932 0.925469 1.110045
C3    C     C_R   0.051505 0.874831 0.572321 1.114596
C4    C     C_R   0.452124 0.130568 0.075386 1.176984
O9    O     O_R   0.720530 0.844130 0.440420 -0.607649
O10   O     O_R   0.779470 0.155870 0.940420 -0.514751
O11   O     O_R   0.220530 0.655870 0.559580 -0.570661
O12   O     O_R   0.279470 0.344130 0.059580 -0.532853
O13   O     O_R   0.890830 0.844810 0.552660 -0.546223
O14   O     O_R   0.609170 0.155190 0.052660 -0.603607
O15   O     O_R   0.390830 0.655190 0.447340 -0.572340
O16   O     O_R   0.109170 0.344810 0.947340 -0.570426
C5    C     C_R   0.550316 0.873781 0.426649 1.162946
C6    C     C_R   0.950643 0.129918 0.923946 1.016475
C7    C     C_R   0.055924 0.626509 0.573908 1.042817
C8    C     C_R   0.447024 0.368370 0.077173 1.038380
O17   O     O_3   0.557310 0.749980 0.536820 -0.267070
O18   O     O_3   0.942690 0.250020 0.036820 -0.276095
O19   O     O_3   0.057310 0.750020 0.463180 -0.296148
O20   O     O_3   0.442690 0.249980 0.963180 -0.266522
V1    V     V_3+5 0.832160 0.749980 0.493170 1.332457
V2    V     V_3+5 0.667840 0.250020 0.993170 1.374462
V3    V     V_3+5 0.332160 0.750020 0.506830 1.365429
V4    V     V_3+5 0.167840 0.249980 0.006830 1.369791
C9    C     C_R   0.679352 0.530297 0.832253 0.800428
C10   C     C_R   0.479751 0.395615 0.376303 0.808600
C11   C     C_R   0.677214 0.935817 0.136975 0.782231
C12   C     C_R   0.174061 0.087011 0.638845 0.784123
C13   C     C_R   0.920137 0.438352 0.877924 -0.634325
C14   C     C_R   0.544380 0.546375 0.388908 -0.700064
C15   C     C_R   0.483852 0.061902 0.119389 -0.672343
C16   C     C_R   0.048052 0.949564 0.613960 -0.658846
C17   C     C_R   0.199611 0.486484 0.600973 0.730412
C18   C     C_R   0.533354 0.514038 0.099433 0.759644
C19   C     C_R   0.488486 0.028172 0.413376 0.715698
C20   C     C_R   0.885954 0.980340 0.900758 0.809302
C21   C     C_R   0.230060 0.415706 0.637634 -0.357494
C22   C     C_R   0.618609 0.570991 0.138073 -0.336335
C23   C     C_R   0.484415 0.103717 0.380739 -0.323586
C24   C     C_R   0.892043 0.908206 0.864297 -0.361098
C25   C     C_R   0.138562 0.408673 0.691845 0.836512
C26   C     C_R   0.622063 0.557033 0.199705 0.859422
C27   C     C_R   0.519484 0.103719 0.319123 0.868479
C28   C     C_R   0.957235 0.912782 0.805858 0.867007
C29   C     C_R   0.013290 0.473380 0.711008 -0.048383
C30   C     C_R   0.519014 0.491614 0.224651 -0.050847
C31   C     C_R   0.556103 0.026754 0.288234 -0.089702
C32   C     C_R   0.008985 0.990939 0.781638 -0.031691
C33   C     C_R   0.964350 0.541412 0.669856 -0.234651
C34   C     C_R   0.433366 0.431247 0.185725 -0.326478
C35   C     C_R   0.584361 0.950720 0.323127 -0.236734
C36   C     C_R   0.049282 0.057061 0.823517 -0.246622
C37   C     C_R   0.930417 0.473382 0.769451 -0.143899
C38   C     C_R   0.507515 0.483479 0.288087 -0.209590
C39   C     C_R   0.570552 0.021205 0.223631 -0.140596
C40   C     C_R   0.042836 0.002193 0.718762 -0.165898
C41   C     C_R   0.760953 0.521069 0.775769 -0.526687
C42   C     C_R   0.456189 0.406561 0.313174 -0.551195
C43   C     C_R   0.674304 0.951053 0.199477 -0.521965
C44   C     C_R   0.136294 0.075330 0.700428 -0.538374
C45   C     C_R   0.687267 0.567359 0.726768 0.801547
C46   C     C_R   0.359286 0.349600 0.275793 0.952315
C47   C     C_R   0.754470 0.891098 0.238707 0.826949
C48   C     C_R   0.205628 0.131243 0.744312 0.944934
C49   C     C_R   0.812041 0.595371 0.684965 0.302831
C50   C     C_R   0.327348 0.367981 0.213797 0.348428
C51   C     C_R   0.668003 0.880334 0.293518 0.242586
C52   C     C_R   0.184273 0.114942 0.805926 0.188117
C53   C     C_R   0.009953 0.431898 0.821944 0.793477
C54   C     C_R   0.513711 0.554505 0.326528 0.905482
C55   C     C_R   0.477722 0.077962 0.182148 0.760435
C56   C     C_R   0.983643 0.944375 0.673308 0.803856
C57   C     C_R   0.762391 0.492746 0.882546 0.606903
C58   C     C_R   0.536724 0.464035 0.413171 0.583786
C59   C     C_R   0.576213 0.988740 0.098020 0.612596
C60   C     C_R   0.135161 0.023418 0.596713 0.613315
C61   C     C_R   0.067586 0.551022 0.615605 -0.326068
C62   C     C_R   0.455511 0.439861 0.121502 -0.305116
C63   C     C_R   0.536548 0.950133 0.385940 -0.382671
C64   C     C_R   0.966265 0.055628 0.882048 -0.306093
H1    H     H_    0.324746 0.364868 0.623384 0.259474
H2    H     H_    0.692136 0.623718 0.119773 0.249155
H3    H     H_    0.460268 0.163363 0.404236 0.282930
H4    H     H_    0.850556 0.847738 0.881988 0.239337
F1    F     F_    0.679450 0.504769 0.936343 -0.545161
F2    F     F_    0.565965 0.451574 0.473139 -0.580623
F3    F     F_    0.573252 0.970443 0.038158 -0.544432
F4    F     F_    0.179068 0.034528 0.538245 -0.573533
F5    F     F_    0.518600 0.608389 0.730090 -0.585293
F6    F     F_    0.266478 0.285711 0.301517 -0.551012
F7    F     F_    0.867538 0.827102 0.217406 -0.586131
F8    F     F_    0.331071 0.189236 0.728118 -0.554826
F9    F     F_    0.521963 0.578793 0.839944 -0.531039
F10   F     F_    0.443301 0.320486 0.402597 -0.584030
F11   F     F_    0.768712 0.866773 0.113275 -0.534307
F12   F     F_    0.256803 0.158058 0.619435 -0.550938
F13   F     F_    0.178079 0.390976 0.821037 -0.640212
F14   F     F_    0.428455 0.625383 0.305397 -0.585575
F15   F     F_    0.372512 0.145220 0.201504 -0.617638
F16   F     F_    0.849533 0.889450 0.684805 -0.588635
F17   F     F_    0.293874 0.489730 0.548736 -0.614527
F18   F     F_    0.539574 0.527926 0.039310 -0.567869
F19   F     F_    0.465563 0.032578 0.473843 -0.591041
F20   F     F_    0.819112 0.974112 0.957139 -0.577219
F21   F     F_    0.155439 0.333449 0.721036 -0.602696
F22   F     F_    0.738402 0.603387 0.234487 -0.607367
F23   F     F_    0.547824 0.179433 0.292538 -0.620640
F24   F     F_    0.005083 0.838974 0.778133 -0.566583
S1    S     S_3+6 0.839356 0.705228 0.689845 0.106823
O21   O     O_2   0.740804 0.748163 0.637877 -0.228069
O22   O     O_2   0.752956 0.738523 0.746911 -0.100671
O23   O     O_3   0.067559 0.724783 0.691748 -0.419535
H5    H     H_    0.090104 0.759213 0.655774 0.321810
S2    S     S_3+6 0.108248 0.339712 0.183275 0.042923
O24   O     O_2   0.036731 0.406263 0.139372 -0.288369
O25   O     O_2   0.123892 0.254661 0.152392 -0.220900
O26   O     O_3   0.954525 0.333423 0.239120 -0.456263
H6    H     H_    0.833877 0.323781 0.218478 0.362217
S3    S     S_3+6 0.582176 0.779423 0.299876 0.067327
O27   O     O_2   0.406060 0.780691 0.334915 -0.256948
O28   O     O_2   0.537977 0.747020 0.237356 -0.136012
O29   O     O_3   0.747688 0.716388 0.332201 -0.491054
H7    H     H_    0.862547 0.726994 0.310063 0.402358
S4    S     S_3+6 0.400276 0.117534 0.845572 0.053998
O30   O     O_2   0.396183 0.079464 0.907496 -0.205828
O31   O     O_2   0.539814 0.066390 0.809659 -0.261228
O32   O     O_3   0.470922 0.218441 0.848318 -0.443668
H8    H     H_    0.355217 0.254116 0.849833 0.378292

loop_
_geom_bond_atom_site_label_1
_geom_bond_atom_site_label_2
_geom_bond_distance
_ccdc_geom_bond_type
O17   V3    1.742840 S    
C25   F21   1.350867 S    
C5    C63   1.504115 S    
O1    C5    1.341285 A    
C58   F2    1.355755 S    
C31   C35   1.432983 A    
O19   V1    1.767042 S    
O13   V1    2.032259 S    
C16   C60   1.395875 A    
O3    C7    1.337346 A    
C48   C52   1.403014 A    
O15   V3    2.022554 S    
C10   C42   1.416692 A    
C48   F8    1.359387 S    
C36   C64   1.439871 A    
C9    C41   1.398355 A    
O32   H8    0.990787 S    
C39   C55   1.426147 A    
O7    C3    1.331065 A    
C10   F10   1.354573 S    
C2    C13   1.489796 S    
C9    F9    1.359065 S    
C40   C44   1.416254 A    
O9    V1    2.026162 S    
C12   C60   1.394410 A    
C11   F11   1.358777 S    
S1    O22   1.504147 D    
C30   C34   1.425540 A    
O4    C8    1.339613 A    
C25   C29   1.406609 A    
O1    V3    2.054007 S    
O2    V4    2.031764 S    
C18   C22   1.384760 A    
C33   C49   1.409548 A    
O3    V1    2.022867 S    
C46   C50   1.418318 A    
C29   C37   1.437059 A    
C1    O15   1.329291 A    
C2    O16   1.342614 A    
S4    O30   1.501223 D    
C31   C39   1.439328 A    
O2    C6    1.318582 A    
C46   F6    1.358553 S    
C32   C40   1.432244 A    
C45   C49   1.387652 A    
C18   C62   1.404199 A    
C21   C25   1.388734 A    
C21   H1    1.083006 S    
C43   C47   1.389418 A    
C44   C48   1.402215 A    
O11   C7    1.332741 A    
O12   C8    1.329685 A    
C17   F17   1.356072 S    
C14   C58   1.406334 A    
C40   C56   1.420820 A    
C13   C57   1.405113 A    
C19   F19   1.354389 S    
O10   V2    2.034173 S    
C34   C62   1.442855 A    
O5    V1    2.054573 S    
C28   F24   1.346472 S    
C39   C43   1.419235 A    
O7    V3    2.034227 S    
C38   C42   1.396548 A    
O9    C5    1.329289 A    
O8    V4    2.026222 S    
C49   S1    1.745018 S    
S1    O23   1.684299 S    
C37   C53   1.436938 A    
C11   C59   1.382203 A    
O18   V4    1.767001 S    
C23   C27   1.393510 A    
C14   C54   1.401524 A    
C13   C53   1.412326 A    
C36   C52   1.415563 A    
C27   F23   1.353235 S    
C32   C36   1.421742 A    
C26   F22   1.355141 S    
C15   C55   1.413194 A    
S3    O28   1.504930 D    
O5    C1    1.342499 A    
C37   C41   1.421225 A    
C57   F1    1.353778 S    
C11   C43   1.404563 A    
O8    C4    1.335519 A    
C59   F3    1.355512 S    
C16   C56   1.407091 A    
C55   F15   1.352672 S    
C26   C30   1.409476 A    
O14   V2    2.054504 S    
C20   F20   1.353250 S    
C50   S2    1.775837 S    
C19   C23   1.392113 A    
C6    C64   1.489203 S    
C24   H4    1.082807 S    
O26   H6    0.990934 S    
S2    O25   1.498840 D    
S3    O27   1.501495 D    
C35   C51   1.406684 A    
O23   H5    0.985007 S    
C34   C50   1.426508 A    
O16   V4    2.023353 S    
C56   F16   1.346122 S    
C3    O13   1.330182 A    
C29   C33   1.439232 A    
O6    V2    2.082466 S    
C23   H3    1.079555 S    
C38   C54   1.400601 A    
C10   C58   1.412759 A    
O6    C2    1.318868 A    
C12   C44   1.411058 A    
O11   V3    2.082414 S    
C22   H2    1.082882 S    
O12   V4    2.054518 S    
C17   C61   1.408418 A    
C22   C26   1.384107 A    
C54   F14   1.336331 S    
C12   F12   1.358486 S    
C19   C63   1.400906 A    
O10   C6    1.344228 A    
C4    C15   1.467346 S    
O20   V2    1.742876 S    
O29   H7    0.990484 S    
C18   F18   1.353166 S    
S3    O29   1.677887 S    
C15   C59   1.393947 A    
S1    O21   1.493848 D    
C47   C51   1.390002 A    
C52   S4    1.775327 S    
C42   C46   1.408679 A    
C8    C62   1.489174 S    
S2    O26   1.683343 S    
S4    O32   1.680643 S    
C41   C45   1.396844 A    
C53   F13   1.354156 S    
C1    C14   1.499450 S    
C33   C61   1.437854 A    
C27   C31   1.405253 A    
C47   F7    1.361315 S    
C3    C16   1.488245 S    
C35   C63   1.440739 A    
C20   C24   1.387318 A    
C24   C28   1.389472 A    
S4    O31   1.503991 D    
C7    C61   1.506354 S    
C4    O14   1.319224 A    
C17   C21   1.389570 A    
C30   C38   1.416561 A    
C60   F4    1.353490 S    
S2    O24   1.503801 D    
C20   C64   1.401949 A    
C9    C57   1.380894 A    
O4    V2    2.022069 S    
C28   C32   1.406892 A    
C51   S3    1.727544 S    
C45   F5    1.360976 S    
