data_mof_unit_pretest_1894.cif
_audit_creation_date              2012-12-10T21:05:44-0500
_audit_creation_method            fapswitch 2.2
_symmetry_space_group_name_H-M    P1
_symmetry_Int_Tables_number       1
_space_group_crystal_system       triclinic
_cell_length_a                    15.850541
_cell_length_b                    15.071436
_cell_length_c                    17.564434
_cell_angle_alpha                 89.999866
_cell_angle_beta                  89.966268
_cell_angle_gamma                 90.000042
_cell_volume                      4195.97418708

loop_
_atom_site_label
_atom_site_type_symbol
_atom_type_description
_atom_site_fract_x
_atom_site_fract_y
_atom_site_fract_z
_atom_type_partial_charge
Br1   Br    Br    0.484594 0.111151 0.336361 -0.429881
Br2   Br    Br    0.515166 0.888850 0.663653 -0.429226
Br3   Br    Br    0.515164 0.111149 0.663654 -0.429235
Br4   Br    Br    0.484595 0.888850 0.336360 -0.429885
C1    C     C_R   0.338861 0.500000 0.500028 0.910791
C2    C     C_R   0.493464 0.047114 0.431073 0.230543
C3    C     C_R   0.499936 0.905050 0.500002 -0.193422
C4    C     C_R   0.499938 0.094950 0.500002 -0.193421
C5    C     C_1   0.499972 0.807075 0.500000 0.265048
C6    C     C_1   0.499972 0.192925 0.500000 0.265048
C7    C     C_R   0.499249 0.500000 0.353047 0.868317
C8    C     C_R   0.499270 0.500000 0.646955 0.868484
C9    C     C_R   0.478858 0.580605 0.847543 -0.140322
C10   C     C_R   0.478755 0.419386 0.152484 -0.139933
C11   C     C_R   0.478765 0.580607 0.152481 -0.139932
C12   C     C_R   0.661140 0.500000 0.499972 0.912996
C13   C     C_R   0.478869 0.419387 0.847542 -0.140323
C14   C     C_R   0.488225 0.580742 0.769074 -0.168963
C15   C     C_R   0.488131 0.419252 0.230945 -0.168769
C16   C     C_R   0.488140 0.580744 0.230942 -0.168779
C17   C     C_R   0.488237 0.419254 0.769073 -0.168966
C18   C     C_R   0.492941 0.499999 0.729465 -0.061873
C19   C     C_R   0.492868 0.499999 0.270544 -0.062362
C20   C     C_R   0.474111 0.499995 0.886180 0.139147
C21   C     C_R   0.474016 0.499996 0.113850 0.138888
C22   C     C_1   0.469830 0.499995 0.966234 -0.039833
C23   C     C_1   0.824369 0.500000 0.499974 -0.053376
C24   C     C_1   0.469799 0.499995 0.033796 -0.039826
C25   C     C_R   0.956261 0.580770 0.499883 -0.166192
C26   C     C_R   0.043746 0.419230 0.500116 -0.166453
C27   C     C_R   0.043746 0.580770 0.499900 -0.166454
C28   C     C_R   0.956261 0.419230 0.500099 -0.166191
C29   C     C_R   0.913150 0.500000 0.499984 0.159360
C30   C     C_R   0.086856 0.500000 0.500015 0.159382
C31   C     C_1   0.175635 0.500000 0.500025 -0.053947
C32   C     C_1   0.250472 0.500000 0.500029 -0.157648
C33   C     C_1   0.749531 0.500000 0.499970 -0.157968
C34   C     C_R   0.493465 0.952886 0.431072 0.230542
C35   C     C_R   0.506374 0.047114 0.568935 0.230340
C36   C     C_R   0.506375 0.952886 0.568934 0.230342
H1    H     H_    0.476011 0.643024 0.878086 0.156942
H2    H     H_    0.922352 0.356780 0.500177 0.155175
H3    H     H_    0.922353 0.643220 0.499795 0.155173
H4    H     H_    0.077655 0.356780 0.500203 0.155010
H5    H     H_    0.475919 0.356966 0.121945 0.157171
H6    H     H_    0.475937 0.643026 0.121940 0.157170
H7    H     H_    0.476031 0.356967 0.878084 0.156943
H8    H     H_    0.491513 0.643761 0.739564 0.191245
H9    H     H_    0.491422 0.356236 0.260458 0.191527
H10   H     H_    0.491440 0.643761 0.260452 0.191524
H11   H     H_    0.491534 0.356236 0.739562 0.191246
H12   H     H_    0.077655 0.643219 0.499822 0.155013
N1    N     N_1   0.500000 0.270550 0.500000 -0.080712
N2    N     N_1   0.500000 0.729450 0.500000 -0.080712
O1    O     O_R   0.378020 0.573650 0.500020 -0.606010
O2    O     O_R   0.621980 0.426350 0.499980 -0.604841
O3    O     O_R   0.621980 0.573650 0.499980 -0.604841
O4    O     O_R   0.378020 0.426350 0.500020 -0.606009
O5    O     O_R   0.500000 0.573690 0.389120 -0.611265
O6    O     O_R   0.500000 0.426310 0.610880 -0.611249
O7    O     O_R   0.500000 0.573690 0.610880 -0.611245
O8    O     O_R   0.500000 0.426310 0.389120 -0.611265
Zn1   Zn    Zn3+2 0.500000 0.598370 0.500000 1.018981
Zn2   Zn    Zn3+2 0.500000 0.401630 0.500000 1.018979

loop_
_geom_bond_atom_site_label_1
_geom_bond_atom_site_label_2
_ccdc_geom_bond_type
C2    C4    A    
C3    C36   A    
C2    C34   A    
C4    C35   A    
C25   C29   A    
C15   H9    S    
C22   C24   T    
C31   C32   T    
C16   C19   A    
C27   H12   S    
O6    Zn2   S    
C7    O8    A    
C28   C29   A    
C9    H1    S    
O8    Zn2   S    
C27   C30   A    
Br3   C35   S    
C25   C27   A    
C17   C18   A    
C25   H3    S    
C21   C24   S    
C26   C28   A    
C8    O7    A    
C26   H4    S    
O2    Zn2   S    
O1    Zn1   S    
C9    C14   A    
C23   C33   T    
C7    O5    A    
C1    O4    A    
C7    C19   S    
C3    C34   A    
Br4   C34   S    
O3    Zn1   S    
C10   H5    S    
C12   O3    A    
C10   C21   A    
O4    Zn2   S    
C11   C16   A    
N1    Zn2   S    
C13   C17   A    
C11   C21   A    
C13   C20   A    
N2    Zn1   S    
C26   C30   A    
Br1   C2    S    
C8    O6    A    
C1    C32   S    
Br2   C36   S    
C12   O2    A    
C17   H11   S    
C8    C18   S    
C9    C20   A    
C4    C6    S    
C30   C31   S    
C35   C36   A    
C3    C5    S    
C6    N1    T    
C28   H2    S    
C15   C19   A    
C16   H10   S    
C5    N2    T    
C11   H6    S    
C14   C18   A    
O5    Zn1   S    
C10   C15   A    
C1    O1    A    
O7    Zn1   S    
C23   C29   S    
C13   H7    S    
C12   C33   S    
C20   C22   S    
C14   H8    S    
