data_mof_unit_pretest_933.cif
_audit_creation_date              2013-03-05T15:53:18-0500
_audit_creation_method            fapswitch 2.2
_symmetry_space_group_name_H-M    P1
_symmetry_Int_Tables_number       1
_space_group_crystal_system       triclinic
_cell_length_a                    27.175825
_cell_length_b                    7.198127
_cell_length_c                    22.743354
_cell_angle_alpha                 89.984389
_cell_angle_beta                  100.966894
_cell_angle_gamma                 89.985539
_cell_volume                      4367.69189806

loop_
_atom_site_label
_atom_site_type_symbol
_atom_site_description
_atom_site_fract_x
_atom_site_fract_y
_atom_site_fract_z
_atom_type_partial_charge
O1    O     O_R   0.207310 0.594030 0.676830 -0.572787
O2    O     O_R   0.792690 0.405970 0.323170 -0.593480
O3    O     O_R   0.292690 0.094030 0.823170 -0.572095
O4    O     O_R   0.707310 0.905970 0.176830 -0.586381
O5    O     O_R   0.197320 0.262370 0.795700 -0.598202
O6    O     O_R   0.802680 0.737630 0.204300 -0.591361
O7    O     O_R   0.302680 0.762370 0.704300 -0.598298
O8    O     O_R   0.697320 0.237630 0.295700 -0.591707
C1    C     C_R   0.184764 0.432506 0.812083 0.952178
C2    C     C_R   0.815193 0.567514 0.187859 0.963908
C3    C     C_R   0.315244 0.932507 0.687927 0.951384
C4    C     C_R   0.684791 0.067523 0.312121 0.962824
O9    O     O_R   0.201410 0.264250 0.675590 -0.593184
O10   O     O_R   0.798590 0.735750 0.324410 -0.576615
O11   O     O_R   0.298590 0.764250 0.824410 -0.593283
O12   O     O_R   0.701410 0.235750 0.175590 -0.579624
O13   O     O_R   0.296810 0.094940 0.702210 -0.587921
O14   O     O_R   0.703190 0.905060 0.297790 -0.594841
O15   O     O_R   0.203190 0.594940 0.797790 -0.588270
O16   O     O_R   0.796810 0.405060 0.202210 -0.599044
C5    C     C_R   0.189896 0.432584 0.653438 1.028523
C6    C     C_R   0.810138 0.566958 0.346473 1.035690
C7    C     C_R   0.310135 0.932493 0.846569 1.027490
C8    C     C_R   0.689886 0.067085 0.153493 1.018721
O17   O     O_3   0.281300 0.427390 0.758870 -0.274979
O18   O     O_3   0.718700 0.572610 0.241130 -0.281066
O19   O     O_3   0.218700 0.927390 0.741130 -0.275313
O20   O     O_3   0.781300 0.072610 0.258870 -0.283628
V1    V     V_3+5 0.244190 0.152150 0.748350 1.214715
V2    V     V_3+5 0.755810 0.847850 0.251650 1.207543
V3    V     V_3+5 0.255810 0.652150 0.751650 1.214461
V4    V     V_3+5 0.744190 0.347850 0.248350 1.202397
C9    C     C_R   0.655394 0.055708 0.094811 -0.292090
C10   C     C_R   0.345513 0.936349 0.904824 -0.275869
C11   C     C_R   0.845108 0.554812 0.404764 -0.278087
C12   C     C_R   0.154585 0.436979 0.595186 -0.275963
C13   C     C_R   0.642467 0.022410 0.986924 -0.178809
C14   C     C_R   0.361930 0.867269 0.011037 -0.186156
C15   C     C_R   0.857501 0.513648 0.512271 -0.191940
C16   C     C_R   0.138598 0.373193 0.488662 -0.186170
C17   C     C_R   0.675107 0.033694 0.042019 0.011885
C18   C     C_R   0.328996 0.869035 0.955793 0.005135
C19   C     C_R   0.825180 0.526042 0.456708 0.002490
C20   C     C_R   0.171373 0.372796 0.544026 0.004296
C21   C     C_R   0.602608 0.064874 0.091166 0.257260
C22   C     C_R   0.395642 0.999928 0.909578 0.251133
C23   C     C_R   0.897795 0.567817 0.408716 0.249957
C24   C     C_R   0.104343 0.499114 0.590555 0.251147
C25   C     C_R   0.569332 0.029262 0.035232 -0.041312
C26   C     C_R   0.431107 0.973980 0.964519 -0.041258
C27   C     C_R   0.930942 0.529669 0.464532 -0.041391
C28   C     C_R   0.069083 0.475112 0.535392 -0.041046
C29   C     C_R   0.590476 0.019355 0.982988 0.129306
C30   C     C_R   0.412288 0.917171 0.015706 0.136213
C31   C     C_R   0.909578 0.514312 0.516540 0.139424
C32   C     C_R   0.088160 0.422042 0.484020 0.136090
C33   C     C_R   0.516208 0.997661 0.028926 0.081261
C34   C     C_R   0.484585 0.995531 0.970635 0.086221
C35   C     C_R   0.984122 0.500049 0.470856 0.081376
C36   C     C_R   0.015572 0.495105 0.529206 0.086038
C37   C     C_R   0.508070 0.990681 0.920533 -0.085078
C38   C     C_R   0.494751 0.944529 0.078066 -0.082350
C39   C     C_R   0.991940 0.485834 0.579144 -0.085941
C40   C     C_R   0.005819 0.451184 0.421498 -0.081234
C41   C     C_R   0.559776 0.000465 0.926715 -0.205722
C42   C     C_R   0.444129 0.903704 0.071415 -0.195281
C43   C     C_R   0.940184 0.493242 0.572793 -0.206761
C44   C     C_R   0.056503 0.411358 0.428124 -0.195874
H1    H     H_    0.575999 0.990039 0.886812 0.137936
H2    H     H_    0.429896 0.857524 0.110383 0.141364
H3    H     H_    0.923858 0.478950 0.612511 0.138345
H4    H     H_    0.070934 0.368234 0.388975 0.140975
H5    H     H_    0.658168 0.010774 0.946648 0.129024
H6    H     H_    0.348504 0.820471 0.050487 0.123090
H7    H     H_    0.841859 0.497564 0.552429 0.122027
H8    H     H_    0.152223 0.329099 0.449059 0.123055
H9    H     H_    0.487592 0.962835 0.876050 0.175633
H10   H     H_    0.517153 0.917322 0.121594 0.179215
H11   H     H_    0.012389 0.456010 0.623510 0.176015
H12   H     H_    0.983561 0.426454 0.377719 0.178110
C45   C     C_R   0.629719 0.881847 0.367905 -0.126299
C46   C     C_R   0.369860 0.118339 0.631578 -0.115327
C47   C     C_R   0.869721 0.381836 0.131353 -0.138066
C48   C     C_R   0.130319 0.618300 0.868669 -0.115833
H13   H     H_    0.644891 0.754172 0.353544 0.135471
H14   H     H_    0.354282 0.245918 0.645428 0.136730
H15   H     H_    0.854142 0.254213 0.145170 0.133084
H16   H     H_    0.146032 0.745858 0.855006 0.136426
C49   C     C_R   0.593813 0.868944 0.404430 -0.143799
C50   C     C_R   0.405802 0.131369 0.595101 -0.147669
C51   C     C_R   0.905627 0.368916 0.094828 -0.141360
C52   C     C_R   0.094374 0.631315 0.905142 -0.147177
H17   H     H_    0.582638 0.732233 0.416826 0.116271
H18   H     H_    0.416604 0.268070 0.582239 0.116476
H19   H     H_    0.916413 0.232251 0.081915 0.116245
H20   H     H_    0.083698 0.767987 0.918179 0.116429
C53   C     C_R   0.572794 0.029590 0.424745 0.119223
C54   C     C_R   0.427305 0.970837 0.575392 0.119132
C55   C     C_R   0.927136 0.529499 0.075165 0.119034
C56   C     C_R   0.072698 0.470806 0.924611 0.119054
C57   C     C_R   0.588667 0.203933 0.407199 -0.136840
C58   C     C_R   0.411889 0.796500 0.593506 -0.136661
C59   C     C_R   0.911739 0.703786 0.093342 -0.137324
C60   C     C_R   0.087951 0.296510 0.906273 -0.136663
H21   H     H_    0.573376 0.330882 0.421905 0.117887
H22   H     H_    0.427572 0.669635 0.579292 0.118624
H23   H     H_    0.927413 0.830685 0.079144 0.117908
H24   H     H_    0.072135 0.169664 0.920303 0.118734
C61   C     C_R   0.624684 0.216980 0.370546 -0.133235
C62   C     C_R   0.375860 0.783331 0.630139 -0.145614
C63   C     C_R   0.875730 0.716852 0.130005 -0.123481
C64   C     C_R   0.123990 0.283355 0.869653 -0.144774
H25   H     H_    0.636058 0.353548 0.358274 0.130399
H26   H     H_    0.364886 0.646757 0.642903 0.133965
H27   H     H_    0.864754 0.853387 0.142803 0.128612
H28   H     H_    0.134832 0.146809 0.856708 0.134007
C65   C     C_R   0.645836 0.055966 0.350411 -0.103556
C66   C     C_R   0.354214 0.944208 0.649658 -0.109078
C67   C     C_R   0.854108 0.555910 0.149515 -0.101264
C68   C     C_R   0.145801 0.444206 0.850362 -0.108388
N1    N     N_R   0.514109 0.168831 0.483839 -0.076169
N2    N     N_R   0.486018 0.831656 0.516336 -0.076489
N3    N     N_R   0.986153 0.668713 0.016516 -0.075929
N4    N     N_R   0.013659 0.331642 0.983231 -0.076368
N5    N     N_R   0.480199 0.154842 0.519026 -0.077575
N6    N     N_R   0.519921 0.845645 0.481143 -0.077783
N7    N     N_R   0.020079 0.654740 0.981351 -0.077495
N8    N     N_R   0.979736 0.345614 0.018398 -0.077742
C69   C     C_R   0.465354 0.985977 0.536119 0.105376
C70   C     C_R   0.534767 0.014504 0.464050 0.105799
C71   C     C_R   0.034634 0.485928 0.963866 0.105553
C72   C     C_R   0.965182 0.514422 0.035885 0.106062
N9    N     N_R   0.408192 0.108259 0.861429 0.220658
O21   O     O_R   0.428252 0.271854 0.872200 -0.386132
O22   O     O_R   0.399208 0.045548 0.806774 -0.443301
N10   N     N_R   0.583783 0.133279 0.142004 0.217693
O23   O     O_R   0.553218 0.274180 0.135927 -0.386553
O24   O     O_R   0.597355 0.057007 0.194466 -0.445532
N11   N     N_R   0.091455 0.604430 0.639134 0.220578
O25   O     O_R   0.071021 0.767718 0.629051 -0.385657
O26   O     O_R   0.100496 0.539278 0.693504 -0.443643
N12   N     N_R   0.916537 0.641626 0.358520 0.218380
O27   O     O_R   0.947038 0.782668 0.365886 -0.386345
O28   O     O_R   0.902813 0.570580 0.305325 -0.446970
N13   N     N_3   0.277921 0.809125 0.951478 -0.220721
H29   H     H_    0.274341 0.680054 0.930031 0.120150
H30   H     H_    0.269795 0.787461 0.994084 0.106754
N14   N     N_3   0.728091 0.027170 0.042089 -0.206404
H31   H     H_    0.749672 0.020665 0.085175 0.084337
H32   H     H_    0.737734 0.150742 0.022921 0.110122
N15   N     N_3   0.222559 0.314171 0.548296 -0.220649
H33   H     H_    0.226381 0.184888 0.569634 0.119240
H34   H     H_    0.230734 0.293319 0.505677 0.107069
N16   N     N_3   0.771772 0.516312 0.452837 -0.218817
H35   H     H_    0.759457 0.390948 0.431877 0.105689
H36   H     H_    0.762911 0.511137 0.495579 0.108063

loop_
_geom_bond_atom_site_label_1
_geom_bond_atom_site_label_2
_geom_bond_distance
_ccdc_geom_bond_type
O17   V3    1.755069 S    
C55   C59   1.409142 A    
O1    C5    1.327521 A    
N3    C72   1.359364 A    
O19   V1    1.755474 S    
C9    C21   1.422558 A    
O3    C7    1.327916 A    
C10   C18   1.406347 A    
O1    V3    1.988757 S    
N1    C70   1.359366 A    
O15   V3    1.971468 S    
C62   C66   1.408329 A    
N13   H29   1.045374 S    
C56   C71   1.493421 S    
C61   C65   1.408366 A    
C33   C38   1.408256 A    
C5    C12   1.480984 S    
C39   H11   1.076807 S    
O7    C3    1.342904 A    
C6    C11   1.479471 S    
C23   N12   1.437371 S    
C35   C40   1.408367 A    
C26   C30   1.417892 A    
C55   C72   1.493416 S    
C36   C39   1.408670 A    
C40   C44   1.386659 A    
O2    V4    1.988762 S    
O9    V1    2.001971 S    
N14   H32   1.045590 S    
C53   C70   1.493428 S    
C14   C18   1.397120 A    
O16   V4    1.971465 S    
O4    C8    1.324632 A    
C25   C29   1.416650 A    
N6    C70   1.360500 A    
C57   C61   1.404372 A    
C45   C65   1.409702 A    
C60   H24   1.082796 S    
C52   H20   1.082890 S    
O13   V1    1.971432 S    
C59   C63   1.404360 A    
C47   C67   1.409749 A    
O3    V1    1.988427 S    
C2    C67   1.495594 S    
C28   C36   1.441282 A    
N1    N5    1.334287 A    
C1    O15   1.336227 A    
C56   C60   1.409117 A    
C15   C31   1.400021 A    
C37   H9    1.076716 S    
C16   C32   1.399372 A    
O2    C6    1.324228 A    
N15   H33   1.045390 S    
C58   H22   1.082793 S    
C10   C22   1.421729 A    
C15   H7    1.084420 S    
C19   N16   1.438998 S    
C11   C19   1.405411 A    
C62   H26   1.082856 S    
N2    C69   1.359342 A    
N16   H36   1.045639 S    
O8    C4    1.342769 A    
N4    N8    1.334248 A    
C45   C49   1.399741 A    
C34   C37   1.408451 A    
O11   C7    1.326418 A    
C11   C23   1.420560 A    
C35   C36   1.435713 A    
O12   C8    1.328633 A    
C13   C17   1.393099 A    
C40   H12   1.077010 S    
O10   V2    2.001972 S    
N8    C72   1.360499 A    
N13   H30   1.045670 S    
C45   H13   1.082823 S    
C50   H18   1.082891 S    
O5    V1    1.983281 S    
C57   H21   1.082790 S    
C39   C43   1.387321 A    
C20   N15   1.439005 S    
O7    V3    1.983303 S    
C38   C42   1.386646 A    
C26   C34   1.441774 A    
N14   H31   1.042924 S    
N10   O24   1.301236 A    
C2    O16   1.336277 A    
C60   C64   1.404345 A    
O18   V4    1.755069 S    
C23   C27   1.436302 A    
C27   C31   1.417602 A    
C32   C44   1.395019 A    
O4    V2    1.988422 S    
C16   H8    1.084469 S    
N4    C71   1.359345 A    
C49   C53   1.406152 A    
C44   H4    1.084397 S    
O8    V4    1.983304 S    
N2    N6    1.334247 A    
O5    C1    1.342936 A    
C37   C41   1.387098 A    
C63   H27   1.082880 S    
N3    N7    1.334282 A    
C14   C30   1.399328 A    
C21   C25   1.436795 A    
C48   C68   1.409764 A    
C7    C10   1.481854 S    
O9    C5    1.326428 A    
N16   H35   1.045572 S    
O14   V2    1.971437 S    
C63   C67   1.408368 A    
O6    V2    1.983281 S    
C16   C20   1.397188 A    
N9    O21   1.301358 A    
N12   O28   1.301183 A    
C58   C62   1.404351 A    
C27   C35   1.440675 A    
C46   C66   1.409768 A    
C64   H28   1.082852 S    
C29   C41   1.395136 A    
C52   C56   1.406147 A    
C64   C68   1.408335 A    
C14   H6    1.084481 S    
C13   H5    1.084850 S    
C3    O13   1.336181 A    
C21   N10   1.437448 S    
C24   N11   1.437227 S    
C38   H10   1.076823 S    
C48   H16   1.082814 S    
N10   O23   1.301350 A    
C47   H15   1.082851 S    
O6    C2    1.342872 A    
C25   C33   1.441504 A    
C31   C43   1.395205 A    
N11   O25   1.301355 A    
O11   V3    2.002573 S    
C30   C42   1.395057 A    
C61   H25   1.082868 S    
O12   V4    2.002570 S    
C47   C51   1.399731 A    
C22   C26   1.437602 A    
C8    C9    1.480081 S    
C46   C50   1.399781 A    
C9    C17   1.413689 A    
O10   C6    1.328926 A    
O20   V2    1.755473 S    
C13   C29   1.398809 A    
C54   C58   1.409122 A    
C22   N9    1.437124 S    
C46   H14   1.082815 S    
N11   O26   1.301294 A    
C33   C34   1.436263 A    
C42   H2    1.084409 S    
C17   N14   1.440354 S    
C41   H1    1.084398 S    
C54   C69   1.493430 S    
C12   C24   1.421386 A    
C43   H3    1.084368 S    
N15   H34   1.045664 S    
C49   H17   1.082896 S    
N7    C71   1.360516 A    
C12   C20   1.406261 A    
C51   H19   1.082894 S    
C4    C65   1.495592 S    
N5    C69   1.360523 A    
C24   C28   1.436947 A    
C15   C19   1.397834 A    
C4    O14   1.336304 A    
N9    O22   1.301315 A    
C1    C68   1.495633 S    
N12   O27   1.301363 A    
C59   H23   1.082792 S    
C48   C52   1.399778 A    
C51   C55   1.406158 A    
C18   N13   1.438973 S    
C50   C54   1.406145 A    
C3    C66   1.495635 S    
C53   C57   1.409142 A    
C28   C32   1.417898 A    
