data_mof_unit_pretest_440.cif
_audit_creation_date              2013-03-05T15:48:17-0500
_audit_creation_method            fapswitch 2.2
_symmetry_space_group_name_H-M    P1
_symmetry_Int_Tables_number       1
_space_group_crystal_system       triclinic
_cell_length_a                    15.725155
_cell_length_b                    15.729346
_cell_length_c                    34.187445
_cell_angle_alpha                 89.731321
_cell_angle_beta                  90.184082
_cell_angle_gamma                 119.898351
_cell_volume                      7330.63862043

loop_
_atom_site_label
_atom_site_type_symbol
_atom_site_description
_atom_site_fract_x
_atom_site_fract_y
_atom_site_fract_z
_atom_type_partial_charge
O1    O     O_R   0.498680 0.159540 0.541860 -0.517481
O2    O     O_R   0.840460 0.339140 0.541860 -0.494278
O3    O     O_R   0.660860 0.501320 0.541860 -0.531318
O4    O     O_R   0.159540 0.498680 0.041860 -0.512178
O5    O     O_R   0.339140 0.840460 0.041860 -0.515072
O6    O     O_R   0.501320 0.660860 0.041860 -0.546400
O7    O     O_R   0.532760 0.358060 0.540030 -0.462985
O8    O     O_R   0.641940 0.174700 0.540030 -0.462995
O9    O     O_R   0.825300 0.467240 0.540030 -0.480182
O10   O     O_R   0.358060 0.532760 0.040030 -0.453321
O11   O     O_R   0.174700 0.641940 0.040030 -0.460161
O12   O     O_R   0.467240 0.825300 0.040030 -0.463241
C1    C     C_R   0.577399 0.441726 0.554999 0.548238
C2    C     C_R   0.557165 0.133149 0.553917 0.555387
C3    C     C_R   0.865582 0.422832 0.554554 0.552986
C4    C     C_R   0.443153 0.575669 0.053910 0.543163
C5    C     C_R   0.132898 0.556696 0.053810 0.561559
C6    C     C_R   0.423482 0.866276 0.054199 0.566771
O13   O     O_R   0.498590 0.161190 0.456930 -0.492565
O14   O     O_R   0.838810 0.337400 0.456930 -0.455819
O15   O     O_R   0.662600 0.501410 0.456930 -0.459765
O16   O     O_R   0.161190 0.498590 0.956930 -0.484326
O17   O     O_R   0.337400 0.838810 0.956930 -0.478299
O18   O     O_R   0.501410 0.662600 0.956930 -0.476954
O19   O     O_R   0.532680 0.359580 0.461300 -0.462152
O20   O     O_R   0.640420 0.173100 0.461300 -0.458989
O21   O     O_R   0.826900 0.467320 0.461300 -0.457634
O22   O     O_R   0.359580 0.532680 0.961300 -0.473447
O23   O     O_R   0.173100 0.640420 0.961300 -0.457494
O24   O     O_R   0.467320 0.826900 0.961300 -0.452574
C7    C     C_R   0.576976 0.443958 0.445940 0.586040
C8    C     C_R   0.557326 0.134442 0.445563 0.583493
C9    C     C_R   0.866132 0.423039 0.445740 0.580638
C10   C     C_R   0.442703 0.577754 0.945415 0.589370
C11   C     C_R   0.135558 0.558242 0.944976 0.583173
C12   C     C_R   0.422312 0.865753 0.945556 0.587379
Cr1   Cr    Cr6+3 0.522350 0.263930 0.500020 1.057211
Cr2   Cr    Cr6+3 0.736070 0.258420 0.500020 1.091951
Cr3   Cr    Cr6+3 0.741580 0.477650 0.500020 1.074969
Cr4   Cr    Cr6+3 0.263930 0.522350 0.000020 1.066230
Cr5   Cr    Cr6+3 0.258420 0.736070 0.000020 1.071222
Cr6   Cr    Cr6+3 0.477650 0.741580 0.000020 1.073101
O25   O     O_3   0.666667 0.333333 0.499990 -0.274003
O26   O     O_3   0.333333 0.666667 0.999990 -0.276116
N1    N     N_R   0.901127 0.468920 0.773051 -0.180297
N2    N     N_R   0.515061 0.419956 0.775084 -0.205246
N3    N     N_R   0.589277 0.075498 0.771653 -0.173979
N4    N     N_R   0.433214 0.934911 0.268944 -0.186794
N5    N     N_R   0.485066 0.569003 0.271363 -0.185434
N6    N     N_R   0.051557 0.480242 0.268137 -0.186370
N7    N     N_R   0.894057 0.464667 0.734228 -0.213414
N8    N     N_R   0.520669 0.415446 0.736382 -0.223891
N9    N     N_R   0.594832 0.083691 0.732862 -0.233678
N10   N     N_R   0.428840 0.931433 0.230135 -0.254982
N11   N     N_R   0.483987 0.571495 0.232474 -0.234086
N12   N     N_R   0.055854 0.480774 0.229337 -0.248832
C13   C     C_R   0.928243 0.462490 0.590170 -0.020665
C14   C     C_R   0.537276 0.460901 0.591404 -0.018853
C15   C     C_R   0.534871 0.068854 0.588746 -0.017117
C16   C     C_R   0.463160 0.931501 0.088947 -0.001969
C17   C     C_R   0.465782 0.533203 0.088930 -0.028882
C18   C     C_R   0.065962 0.530526 0.087975 -0.015305
C19   C     C_R   0.942841 0.399454 0.615477 0.132270
C20   C     C_R   0.598416 0.536759 0.617558 0.116877
C21   C     C_R   0.448316 0.039175 0.610526 0.099599
C22   C     C_R   0.415346 0.981452 0.103154 0.109412
C23   C     C_R   0.559498 0.580075 0.107100 0.115125
C24   C     C_R   0.018251 0.433754 0.103162 0.126889
C25   C     C_R   0.961591 0.424616 0.655644 0.129550
C26   C     C_R   0.571323 0.530688 0.657056 0.124073
C27   C     C_R   0.447013 0.017547 0.650527 0.135968
C28   C     C_R   0.429696 0.013385 0.142345 0.124210
C29   C     C_R   0.565031 0.567954 0.147870 0.126080
C30   C     C_R   0.985879 0.417299 0.142224 0.115836
C31   C     C_R   0.968166 0.512714 0.669121 0.000111
C32   C     C_R   0.483783 0.449394 0.670496 0.011261
C33   C     C_R   0.530076 0.020633 0.667762 0.015322
C34   C     C_R   0.494346 0.998622 0.166098 0.037652
C35   C     C_R   0.480186 0.500558 0.168617 -0.000172
C36   C     C_R   0.998618 0.496866 0.165212 0.012598
C37   C     C_R   0.977520 0.584602 0.641884 0.099139
C38   C     C_R   0.415450 0.383195 0.643599 0.104716
C39   C     C_R   0.608705 0.032319 0.644371 0.103842
C40   C     C_R   0.557237 0.968984 0.149685 0.102295
C41   C     C_R   0.393120 0.438071 0.148344 0.108927
C42   C     C_R   0.028571 0.588790 0.147982 0.110571
C43   C     C_R   0.960932 0.560270 0.601794 0.115258
C44   C     C_R   0.440367 0.391581 0.603400 0.109810
C45   C     C_R   0.608601 0.051400 0.604144 0.137953
C46   C     C_R   0.542783 0.936827 0.110547 0.094857
C47   C     C_R   0.387643 0.451250 0.107925 0.134848
C48   C     C_R   0.059122 0.604799 0.108590 0.102756
N13   N     N_R   0.051354 0.601279 0.729164 -0.229220
N14   N     N_R   0.398841 0.458260 0.728995 -0.215458
N15   N     N_R   0.464464 0.922753 0.726948 -0.187790
N16   N     N_R   0.564042 0.090170 0.226562 -0.190324
N17   N     N_R   0.478239 0.420038 0.230345 -0.232501
N18   N     N_R   0.913757 0.493091 0.225705 -0.198588
N19   N     N_R   0.058352 0.605742 0.768010 -0.176417
N20   N     N_R   0.393016 0.462454 0.767694 -0.187518
N21   N     N_R   0.459007 0.914528 0.765634 -0.178029
N22   N     N_R   0.568138 0.093785 0.265429 -0.181300
N23   N     N_R   0.479523 0.417671 0.269220 -0.183733
N24   N     N_R   0.909023 0.491680 0.264565 -0.176282
C49   C     C_R   0.984003 0.538742 0.790566 0.398560
C50   C     C_R   0.451548 0.444161 0.791371 0.410880
C51   C     C_R   0.520363 0.991005 0.788563 0.383695
C52   C     C_R   0.502824 0.016244 0.287246 0.388504
C53   C     C_R   0.483486 0.492318 0.290366 0.392002
C54   C     C_R   0.977777 0.485073 0.286438 0.393758
C55   C     C_R   0.969780 0.529450 0.711602 0.323680
C56   C     C_R   0.463786 0.436062 0.712704 0.370918
C57   C     C_R   0.532016 0.007652 0.709999 0.343457
C58   C     C_R   0.493584 0.009146 0.208407 0.373899
C59   C     C_R   0.481306 0.497401 0.211401 0.330748
C60   C     C_R   0.986707 0.486479 0.207570 0.346003
C61   C     C_R   0.023764 0.459209 0.844639 0.132437
C62   C     C_R   0.519491 0.574428 0.841051 0.128763
C63   C     C_R   0.413147 0.961165 0.845284 0.124806
C64   C     C_R   0.427840 0.002979 0.352908 0.139004
C65   C     C_R   0.578350 0.568836 0.350977 0.128241
C66   C     C_R   0.978732 0.410414 0.351000 0.130133
C67   C     C_R   0.064017 0.465002 0.882045 0.104361
C68   C     C_R   0.520903 0.607654 0.879198 0.104000
C69   C     C_R   0.389627 0.933780 0.884467 0.107314
C70   C     C_R   0.441281 0.030508 0.392511 0.106024
C71   C     C_R   0.599803 0.558330 0.390042 0.117783
C72   C     C_R   0.959750 0.401606 0.391393 0.127682
C73   C     C_R   0.041092 0.604242 0.897215 0.120973
C74   C     C_R   0.414870 0.438525 0.900868 0.094343
C75   C     C_R   0.555790 0.962726 0.895865 0.114996
C76   C     C_R   0.613820 0.075456 0.387827 0.118456
C77   C     C_R   0.445537 0.403542 0.394876 0.107905
C78   C     C_R   0.933222 0.541891 0.388885 0.117441
C79   C     C_R   0.006792 0.601645 0.858773 0.119667
C80   C     C_R   0.414306 0.405423 0.862464 0.100673
C81   C     C_R   0.579243 0.991654 0.856419 0.111902
C82   C     C_R   0.600533 0.050379 0.347969 0.115671
C83   C     C_R   0.425179 0.412742 0.355415 0.120056
C84   C     C_R   0.955226 0.552655 0.348656 0.116131
C85   C     C_R   0.001321 0.531079 0.832340 0.027987
C86   C     C_R   0.462858 0.474160 0.832445 0.026415
C87   C     C_R   0.505280 0.983291 0.830837 0.027920
C88   C     C_R   0.509399 0.020929 0.330080 0.023478
C89   C     C_R   0.494303 0.492912 0.333044 0.023587
C90   C     C_R   0.971813 0.483180 0.329363 0.020400
C91   C     C_R   0.076651 0.540220 0.908330 0.006892
C92   C     C_R   0.462712 0.540301 0.908750 -0.001183
C93   C     C_R   0.458055 0.924978 0.909050 0.000700
C94   C     C_R   0.536619 0.075745 0.409160 0.000590
C95   C     C_R   0.538194 0.470120 0.410788 0.003211
C96   C     C_R   0.925403 0.459908 0.409358 -0.000764
N25   N     N_2   0.942469 0.315689 0.598773 -0.481759
H1    H     H_    0.985360 0.330043 0.574153 0.246261
C97   C     C_3   0.927370 0.231359 0.621363 -0.250360
H2    H     H_    0.910814 0.170046 0.601171 0.119917
H3    H     H_    0.864471 0.207637 0.641655 0.197603
H4    H     H_    0.995416 0.247503 0.637212 0.156212
N26   N     N_2   0.685264 0.621753 0.604568 -0.499736
H5    H     H_    0.683453 0.644351 0.576388 0.259373
C98   C     C_3   0.776279 0.625969 0.615202 -0.241905
H6    H     H_    0.782791 0.567367 0.600005 0.186054
H7    H     H_    0.780626 0.616868 0.647216 0.184300
H8    H     H_    0.838365 0.698640 0.606756 0.141380
N27   N     N_2   0.361462 0.027227 0.592238 -0.516077
H9    H     H_    0.349744 0.001293 0.563933 0.259238
C99   C     C_3   0.336633 0.102931 0.599269 -0.272602
H10   H     H_    0.330379 0.134216 0.570954 0.166549
H11   H     H_    0.393039 0.163408 0.617418 0.164316
H12   H     H_    0.264683 0.070316 0.614318 0.123842
N28   N     N_2   0.358824 0.005779 0.077462 -0.508046
H13   H     H_    0.379304 0.016875 0.048427 0.262405
C100  C     C_3   0.254240 0.958823 0.084351 -0.278750
H14   H     H_    0.213956 0.907398 0.060148 0.163230
H15   H     H_    0.232024 0.015562 0.085396 0.136090
H16   H     H_    0.233287 0.917463 0.112333 0.145769
N29   N     N_2   0.647252 0.637825 0.084787 -0.505245
H17   H     H_    0.637329 0.647554 0.055739 0.268206
C101  C     C_3   0.725050 0.614277 0.089360 -0.279738
H18   H     H_    0.761458 0.620742 0.060792 0.120724
H19   H     H_    0.696354 0.537995 0.100136 0.154726
H20   H     H_    0.781505 0.667073 0.109750 0.174559
N30   N     N_2   0.996452 0.352252 0.078562 -0.488447
H21   H     H_    0.986865 0.359803 0.049152 0.261545
C102  C     C_3   0.041032 0.293351 0.087939 -0.245881
H22   H     H_    0.092856 0.300958 0.064388 0.148705
H23   H     H_    0.982894 0.215208 0.090017 0.152958
H24   H     H_    0.081379 0.315303 0.116153 0.158060
N31   N     N_2   0.972071 0.632059 0.573308 -0.498154
H25   H     H_    0.975324 0.694691 0.583968 0.267164
C103  C     C_3   0.046132 0.653568 0.543822 -0.284211
H26   H     H_    0.119741 0.685422 0.557627 0.124960
H27   H     H_    0.046715 0.707316 0.522489 0.162429
H28   H     H_    0.030540 0.586462 0.527513 0.152386
N32   N     N_2   0.369055 0.331321 0.574900 -0.499169
H29   H     H_    0.308426 0.269306 0.585198 0.237428
C104  C     C_3   0.342600 0.383897 0.547029 -0.279105
H30   H     H_    0.307658 0.420774 0.562337 0.120614
H31   H     H_    0.289789 0.331559 0.525420 0.168364
H32   H     H_    0.407974 0.439465 0.530795 0.162212
N33   N     N_2   0.683877 0.056080 0.579361 -0.471749
H33   H     H_    0.745859 0.065302 0.593353 0.272386
C105  C     C_3   0.650130 0.980536 0.549752 -0.285771
H34   H     H_    0.619042 0.907103 0.563706 0.120202
H35   H     H_    0.712760 0.992915 0.530941 0.152556
H36   H     H_    0.593527 0.982206 0.530788 0.156466
N34   N     N_2   0.609741 0.913624 0.092193 -0.495444
H37   H     H_    0.680866 0.971252 0.091184 0.242825
C106  C     C_3   0.603000 0.822004 0.103746 -0.234045
H38   H     H_    0.641403 0.829661 0.131778 0.132603
H39   H     H_    0.639912 0.801472 0.081244 0.188943
H40   H     H_    0.525178 0.763011 0.106433 0.170970
N35   N     N_2   0.303399 0.382612 0.086343 -0.485260
H41   H     H_    0.240804 0.341633 0.102493 0.263255
C107  C     C_3   0.321575 0.322363 0.059615 -0.265843
H42   H     H_    0.341964 0.274169 0.076193 0.137734
H43   H     H_    0.381326 0.368590 0.038852 0.190375
H44   H     H_    0.254146 0.275732 0.042406 0.153490
N36   N     N_2   0.085790 0.695948 0.089959 -0.492008
H45   H     H_    0.115442 0.756106 0.107945 0.240646
C108  C     C_3   0.011297 0.692796 0.064102 -0.279970
H46   H     H_    0.945104 0.677613 0.081121 0.113549
H47   H     H_    0.990946 0.635219 0.041515 0.181893
H48   H     H_    0.039874 0.764537 0.049006 0.145583
N37   N     N_2   0.094684 0.396808 0.892708 -0.470378
H49   H     H_    0.043538 0.324735 0.886935 0.292014
C109  C     C_3   0.192154 0.422946 0.879531 -0.233184
H50   H     H_    0.195597 0.422908 0.847112 0.182766
H51   H     H_    0.211090 0.368447 0.890969 0.181786
H52   H     H_    0.247082 0.496716 0.890401 0.163777
N38   N     N_2   0.577598 0.709609 0.887563 -0.461780
H53   H     H_    0.572014 0.754818 0.867079 0.284527
C110  C     C_3   0.677473 0.741260 0.899336 -0.248344
H54   H     H_    0.719196 0.734018 0.874657 0.159609
H55   H     H_    0.678424 0.696882 0.924549 0.164376
H56   H     H_    0.714149 0.819203 0.908442 0.181215
N39   N     N_2   0.295192 0.910350 0.898674 -0.452533
H57   H     H_    0.237454 0.871510 0.879765 0.304345
C111  C     C_3   0.292087 0.990694 0.917687 -0.242287
H58   H     H_    0.306863 0.049602 0.896193 0.158926
H59   H     H_    0.347166 0.020971 0.941635 0.155115
H60   H     H_    0.218232 0.963916 0.930526 0.170420
N40   N     N_2   0.358632 0.010597 0.416020 -0.498941
H61   H     H_    0.305266 0.937571 0.417100 0.274000
C112  C     C_3   0.319536 0.076175 0.411031 -0.199886
H62   H     H_    0.249806 0.039615 0.394240 0.178469
H63   H     H_    0.372281 0.144786 0.395545 0.200497
H64   H     H_    0.303784 0.095499 0.440247 0.186681
N41   N     N_2   0.684460 0.635590 0.408415 -0.443789
H65   H     H_    0.745538 0.672543 0.390956 0.317877
C113  C     C_3   0.664866 0.699873 0.432054 -0.258601
H66   H     H_    0.638958 0.740365 0.413311 0.164730
H67   H     H_    0.733153 0.753639 0.447234 0.161124
H68   H     H_    0.608528 0.657042 0.454560 0.141247
N42   N     N_2   0.972356 0.332385 0.414160 -0.448465
H69   H     H_    0.957031 0.268140 0.400468 0.322059
C114  C     C_3   0.062006 0.374773 0.436769 -0.273431
H70   H     H_    0.126578 0.405844 0.416954 0.159980
H71   H     H_    0.063091 0.317181 0.455317 0.159982
H72   H     H_    0.066629 0.433340 0.456228 0.136792
N43   N     N_2   0.977271 0.363726 0.682185 -0.519853
H73   H     H_    0.930155 0.338157 0.705696 0.299194
C115  C     C_3   0.078711 0.399870 0.692709 -0.282347
H74   H     H_    0.085178 0.341469 0.708446 0.171641
H75   H     H_    0.105843 0.464483 0.712184 0.197619
H76   H     H_    0.124924 0.420623 0.666002 0.134682
N44   N     N_2   0.632756 0.608255 0.682923 -0.494458
H77   H     H_    0.643908 0.586619 0.710023 0.290949
C116  C     C_3   0.609260 0.685948 0.685071 -0.268278
H78   H     H_    0.664405 0.746130 0.703587 0.169067
H79   H     H_    0.535500 0.658188 0.698229 0.180398
H80   H     H_    0.610695 0.715782 0.655415 0.152469
N45   N     N_2   0.362849 0.994248 0.673728 -0.490701
H81   H     H_    0.295830 0.953515 0.660168 0.267930
C117  C     C_3   0.369597 0.072459 0.698187 -0.251943
H82   H     H_    0.319347 0.097668 0.687152 0.123637
H83   H     H_    0.445320 0.136509 0.699051 0.166768
H84   H     H_    0.347487 0.044413 0.728391 0.224711
N46   N     N_2   0.385696 0.067191 0.157122 -0.504204
H85   H     H_    0.377886 0.112757 0.137458 0.278125
C118  C     C_3   0.303769 0.016134 0.183734 -0.280569
H86   H     H_    0.237538 0.014825 0.171561 0.119351
H87   H     H_    0.322158 0.055320 0.212119 0.200759
H88   H     H_    0.285842 0.939216 0.188911 0.155058
N47   N     N_2   0.654371 0.629819 0.168029 -0.509772
H89   H     H_    0.652256 0.682564 0.185123 0.264832
C119  C     C_3   0.702471 0.582041 0.186675 -0.266049
H90   H     H_    0.783133 0.630617 0.184610 0.157777
H91   H     H_    0.682681 0.511277 0.172293 0.154225
H92   H     H_    0.682291 0.568578 0.218107 0.195405
N48   N     N_2   0.939802 0.320302 0.157931 -0.510048
H93   H     H_    0.959445 0.315124 0.186253 0.271844
C120  C     C_3   0.834857 0.264983 0.151880 -0.270901
H94   H     H_    0.805743 0.189039 0.162999 0.160314
H95   H     H_    0.817222 0.261152 0.120216 0.173894
H96   H     H_    0.798524 0.299547 0.167881 0.164265
N49   N     N_2   0.998116 0.679232 0.654613 -0.537525
H97   H     H_    0.965771 0.679891 0.680706 0.269138
C121  C     C_3   0.100486 0.754223 0.652558 -0.287062
H98   H     H_    0.145067 0.736554 0.672716 0.188704
H99   H     H_    0.108583 0.825904 0.661111 0.146025
H100  H     H_    0.128878 0.761223 0.622351 0.153151
N50   N     N_2   0.323788 0.306727 0.657742 -0.508723
H101  H     H_    0.304373 0.237492 0.648079 0.232310
C122  C     C_3   0.244499 0.328098 0.656133 -0.297737
H102  H     H_    0.179576 0.269321 0.671533 0.145749
H103  H     H_    0.223819 0.331688 0.625354 0.129117
H104  H     H_    0.266353 0.398992 0.670698 0.175450
N51   N     N_2   0.688400 0.025587 0.660972 -0.537878
H105  H     H_    0.715446 0.063652 0.686697 0.275671
C123  C     C_3   0.672850 0.927086 0.663017 -0.319449
H106  H     H_    0.740558 0.929350 0.673880 0.149165
H107  H     H_    0.655750 0.892957 0.633582 0.153465
H108  H     H_    0.611654 0.881668 0.683369 0.159776
N52   N     N_2   0.635249 0.972961 0.172663 -0.517627
H109  H     H_    0.699963 0.992766 0.158237 0.249123
C124  C     C_3   0.608681 0.896948 0.202044 -0.264541
H110  H     H_    0.654778 0.862126 0.198985 0.128223
H111  H     H_    0.530388 0.838721 0.199622 0.168929
H112  H     H_    0.621983 0.930333 0.231529 0.184977
N53   N     N_2   0.308805 0.364924 0.168512 -0.534437
H113  H     H_    0.322737 0.325188 0.189005 0.281394
C125  C     C_3   0.243596 0.398006 0.182744 -0.293757
H114  H     H_    0.175296 0.334323 0.194041 0.162554
H115  H     H_    0.223560 0.432841 0.158812 0.155601
H116  H     H_    0.279007 0.451572 0.206828 0.180463
N54   N     N_2   0.028502 0.664694 0.170646 -0.508247
H117  H     H_    0.001810 0.704279 0.156234 0.246148
C126  C     C_3   0.118702 0.725844 0.191729 -0.285414
H118  H     H_    0.110941 0.781103 0.209072 0.149940
H119  H     H_    0.180925 0.764533 0.171072 0.127090
H120  H     H_    0.135281 0.681134 0.212234 0.190649
Br1   Br    Br    0.008023 0.357433 0.808768 -0.528053
Br2   Br    Br    0.594383 0.667216 0.800175 -0.591009
Br3   Br    Br    0.319008 0.970281 0.811484 -0.546655
Br4   Br    Br    0.299103 0.949451 0.329681 -0.563709
Br5   Br    Br    0.668802 0.684303 0.321567 -0.539291
Br6   Br    Br    0.004930 0.316487 0.325322 -0.544733
Br7   Br    Br    0.033000 0.692745 0.934236 -0.562071
Br8   Br    Br    0.353895 0.344048 0.942609 -0.595243
Br9   Br    Br    0.658016 0.975632 0.930950 -0.535664
Br10  Br    Br    0.736835 0.104299 0.411988 -0.514266
Br11  Br    Br    0.342304 0.307012 0.427526 -0.613501
Br12  Br    Br    0.920227 0.643249 0.415318 -0.528954
N55   N     N_2   0.980334 0.671731 0.845915 -0.489969
H121  H     H_    0.022018 0.741077 0.857368 0.298582
C127  C     C_3   0.876125 0.637158 0.846647 -0.264930
H122  H     H_    0.848507 0.621844 0.877213 0.172105
H123  H     H_    0.835539 0.569499 0.828916 0.176953
H124  H     H_    0.861985 0.694168 0.834067 0.164254
N56   N     N_2   0.361125 0.303675 0.853281 -0.500728
H125  H     H_    0.295016 0.264506 0.867618 0.288589
C128  C     C_3   0.419070 0.255544 0.854401 -0.258149
H126  H     H_    0.442286 0.252697 0.884881 0.172439
H127  H     H_    0.485029 0.294720 0.835592 0.184406
H128  H     H_    0.374512 0.179570 0.843314 0.184472
N57   N     N_2   0.676530 0.029121 0.842065 -0.481801
H129  H     H_    0.730945 0.077651 0.860509 0.303737
C129  C     C_3   0.697421 0.956716 0.825878 -0.256012
H130  H     H_    0.703078 0.911641 0.849649 0.168685
H131  H     H_    0.768543 0.994449 0.810129 0.170027
H132  H     H_    0.639577 0.908496 0.804817 0.180695
N58   N     N_2   0.679228 0.056655 0.325114 -0.487201
H133  H     H_    0.747905 0.113909 0.331917 0.317623
C130  C     C_3   0.676919 0.964314 0.319902 -0.250255
H134  H     H_    0.688009 0.937000 0.348415 0.192369
H135  H     H_    0.736378 0.974746 0.299606 0.170266
H136  H     H_    0.605681 0.908727 0.307116 0.163217
N59   N     N_2   0.337036 0.339676 0.337448 -0.495358
H137  H     H_    0.310522 0.269438 0.348002 0.296010
C131  C     C_3   0.261777 0.366281 0.333009 -0.242518
H138  H     H_    0.235496 0.374221 0.362162 0.184814
H139  H     H_    0.199058 0.307988 0.316495 0.196085
H140  H     H_    0.290139 0.436098 0.316427 0.169627
N60   N     N_2   0.957680 0.631428 0.326882 -0.488686
H141  H     H_    0.907836 0.652124 0.335414 0.308581
C132  C     C_3   0.055014 0.713541 0.320222 -0.238571
H142  H     H_    0.089438 0.748747 0.348465 0.201394
H143  H     H_    0.050258 0.768448 0.301208 0.175776
H144  H     H_    0.101775 0.689136 0.305289 0.170035

loop_
_geom_bond_atom_site_label_1
_geom_bond_atom_site_label_2
_geom_bond_distance
_ccdc_geom_bond_type
N21   C51   1.356224 A    
N42   C114  1.445737 S    
N57   H129  1.030716 S    
N16   N22   1.330229 A    
C63   C87   1.401569 A    
N48   H93   1.030523 S    
C77   C95   1.412327 A    
C52   C88   1.467320 S    
C98   H8    1.108759 S    
N50   C122  1.444940 S    
C118  H88   1.110345 S    
C2    C15   1.483729 S    
C105  H35   1.110471 S    
C121  H99   1.110268 S    
C83   N59   1.425607 S    
O22   Cr4   1.951450 S    
N6    C54   1.355098 A    
C72   N42   1.427194 S    
C76   C94   1.420180 A    
C81   N57   1.425436 S    
N49   C121  1.447292 S    
C104  H31   1.110560 S    
C132  H144  1.111010 S    
O12   Cr6   1.965997 S    
O13   Cr1   2.082820 S    
C10   C92   1.487116 S    
C22   C28   1.410574 A    
C36   C60   1.458715 S    
C64   C88   1.406066 A    
C119  H91   1.111918 S    
N17   C59   1.355290 A    
O3    C1    1.255508 A    
O1    Cr1   2.062238 S    
N3    N9    1.330737 A    
N51   C123  1.444499 S    
O3    Cr3   2.069708 S    
C112  H62   1.110401 S    
C97   H4    1.108933 S    
N16   C58   1.353645 A    
Cr6   O26   1.967932 S    
C33   C57   1.459725 S    
O13   C8    1.253939 A    
C128  H127  1.110134 S    
N9    C57   1.357657 A    
C128  H126  1.111116 S    
C61   Br1   1.936337 S    
N35   C107  1.447249 S    
C97   H2    1.108684 S    
C63   Br3   1.935543 S    
C103  H26   1.110935 S    
C113  H66   1.111505 S    
C19   N25   1.435789 S    
O20   Cr2   1.951199 S    
C25   N43   1.423821 S    
O5    C6    1.250192 A    
O18   C10   1.250057 A    
C71   N41   1.425675 S    
C124  H112  1.108938 S    
N30   H21   1.031295 S    
C66   Br6   1.935046 S    
N28   C100  1.447611 S    
C109  H50   1.109842 S    
N12   C60   1.354825 A    
C62   C68   1.403263 A    
C41   N53   1.426430 S    
N17   N23   1.329751 A    
C69   C93   1.423011 A    
O14   C9    1.250893 A    
C77   C83   1.408899 A    
C116  H79   1.111288 S    
C75   C93   1.417748 A    
C51   C87   1.459988 S    
C35   C41   1.406993 A    
C115  H75   1.109261 S    
C53   C89   1.467931 S    
C14   C44   1.422214 A    
N60   H141  1.030597 S    
C67   N37   1.423678 S    
C16   C46   1.417778 A    
C120  H96   1.111620 S    
C84   N60   1.426439 S    
O23   C11   1.254866 A    
N20   C50   1.357283 A    
O17   Cr5   2.076707 S    
O24   C12   1.260861 A    
O9    C3    1.253618 A    
C103  H28   1.109854 S    
Cr2   O25   1.965102 S    
C47   N35   1.428406 S    
O10   C4    1.252915 A    
C130  H134  1.111255 S    
N24   C54   1.358306 A    
N10   C58   1.355789 A    
C20   N26   1.424007 S    
C27   N45   1.426721 S    
N46   C118  1.449715 S    
C30   N48   1.426123 S    
C73   C91   1.423935 A    
O6    C4    1.255899 A    
N32   H29   1.027733 S    
N49   H97   1.030934 S    
O7    C1    1.252837 A    
C8    C94   1.488526 S    
N47   C119  1.449935 S    
N53   H113  1.030011 S    
O6    Cr6   2.060912 S    
C112  H64   1.109464 S    
C129  H130  1.108155 S    
N40   H61   1.031417 S    
O19   C7    1.263569 A    
O20   C8    1.254215 A    
C35   C59   1.463640 S    
N56   H125  1.030772 S    
O9    Cr3   1.957608 S    
C99   H11   1.112418 S    
O21   C9    1.258030 A    
O15   C7    1.248059 A    
N41   H65   1.029798 S    
C120  H94   1.110262 S    
O10   Cr4   1.958641 S    
N48   C120  1.446125 S    
N43   H73   1.029793 S    
C102  H23   1.109492 S    
C127  H123  1.110774 S    
N8    C56   1.357423 A    
C24   C30   1.406856 A    
C77   Br11  1.930072 S    
C114  H70   1.111501 S    
C15   C45   1.417322 A    
N31   C103  1.448605 S    
O2    Cr2   2.068076 S    
C28   C34   1.405401 A    
C71   C95   1.421911 A    
C73   C79   1.411999 A    
C72   C96   1.418142 A    
C19   C25   1.419646 A    
N29   C101  1.451991 S    
C36   C42   1.405106 A    
C110  H54   1.110983 S    
C74   Br8   1.931992 S    
C66   C90   1.408811 A    
N27   C99   1.447404 S    
N39   H57   1.030728 S    
N33   C105  1.448259 S    
C40   C46   1.409839 A    
N1    C49   1.355507 A    
C13   C19   1.414882 A    
C100  H15   1.109514 S    
C14   C20   1.417179 A    
C39   C45   1.406414 A    
C22   N28   1.427867 S    
C117  H84   1.107626 S    
C78   Br12  1.933817 S    
C130  H136  1.111062 S    
C32   C38   1.404146 A    
N54   C126  1.447895 S    
C113  H68   1.111422 S    
N5    N11   1.330219 A    
N6    N12   1.328199 A    
C13   C43   1.415588 A    
C125  H115  1.111392 S    
C48   N36   1.425088 S    
C108  H46   1.110766 S    
C7    C95   1.492099 S    
C17   C23   1.420012 A    
N14   N20   1.330701 A    
N58   H133  1.030627 S    
C131  H140  1.110746 S    
N26   C98   1.444741 S    
C106  H38   1.105648 S    
C29   C35   1.412789 A    
C111  H59   1.111386 S    
C80   N56   1.424101 S    
C109  H51   1.107708 S    
N29   H17   1.027286 S    
C123  H107  1.110211 S    
N55   C127  1.446883 S    
C4    C17   1.494302 S    
C27   C33   1.409885 A    
N36   H45   1.026973 S    
O23   Cr5   1.952134 S    
N44   H77   1.029797 S    
C118  H87   1.109662 S    
C114  H72   1.111369 S    
C82   C88   1.406260 A    
C15   C21   1.412339 A    
C127  H124  1.110423 S    
C70   C94   1.418726 A    
C38   C44   1.417717 A    
N2    C50   1.355418 A    
N14   C56   1.355017 A    
N37   C109  1.447664 S    
C129  H132  1.110950 S    
C18   C24   1.416348 A    
C104  H30   1.111174 S    
C110  H56   1.109104 S    
C132  H143  1.110341 S    
C16   C22   1.418949 A    
C79   C85   1.403481 A    
N34   C106  1.444544 S    
O1    C2    1.250846 A    
C54   C90   1.469979 S    
N15   N21   1.327170 A    
N59   C131  1.445934 S    
N52   C124  1.451393 S    
C97   H3    1.110326 S    
O18   Cr6   2.082421 S    
C111  H58   1.110224 S    
C105  H34   1.110908 S    
C98   H6    1.108613 S    
C115  H74   1.109867 S    
N35   H41   1.028038 S    
C68   C92   1.417691 A    
O8    Cr2   1.961888 S    
C65   C71   1.405476 A    
C108  H48   1.110023 S    
C64   C70   1.406306 A    
C76   C82   1.406094 A    
C131  H138  1.111309 S    
O17   C12   1.245537 A    
C21   N27   1.425261 S    
C107  H44   1.110473 S    
C106  H40   1.111283 S    
N33   H33   1.027890 S    
C124  H111  1.112367 S    
C80   C86   1.406006 A    
C98   H7    1.109443 S    
O8    C2    1.249902 A    
N46   H85   1.031241 S    
C50   C86   1.465275 S    
C23   C29   1.414198 A    
N25   C97   1.445643 S    
N13   N19   1.331515 A    
C101  H20   1.109128 S    
O22   C10   1.258262 A    
N52   H109  1.030332 S    
N57   C129  1.446137 S    
C30   C36   1.407976 A    
C116  H78   1.110178 S    
C44   N32   1.430819 S    
C34   C58   1.457420 S    
C62   Br2   1.935925 S    
C105  H36   1.110271 S    
N34   H37   1.031033 S    
C76   Br10  1.936109 S    
N40   C112  1.449465 S    
C84   C90   1.410427 A    
C99   H10   1.109988 S    
C100  H14   1.110079 S    
C125  H114  1.110217 S    
O7    Cr1   1.966187 S    
Cr1   O25   1.967770 S    
C104  H32   1.110008 S    
C61   C85   1.404150 A    
C121  H98   1.110381 S    
C103  H27   1.110525 S    
N47   H89   1.031065 S    
C75   C81   1.411318 A    
C65   Br5   1.936329 S    
C5    C18   1.487642 S    
N26   H5    1.030529 S    
C131  H139  1.109921 S    
C78   C96   1.414898 A    
C119  H92   1.110551 S    
N38   C110  1.447351 S    
O2    C3    1.250275 A    
C82   N58   1.426664 S    
C37   C43   1.412818 A    
N13   C55   1.356120 A    
O4    C5    1.249363 A    
C63   C69   1.398476 A    
C112  H63   1.112659 S    
Cr5   O26   1.965085 S    
C127  H122  1.111245 S    
C128  H128  1.109268 S    
C69   N39   1.426300 S    
O11   C5    1.252690 A    
N58   C130  1.446565 S    
N56   C128  1.446400 S    
C31   C55   1.475086 S    
N23   C53   1.356422 A    
C28   N46   1.428385 S    
C130  H135  1.110286 S    
N54   H117  1.030985 S    
C78   C84   1.407984 A    
N44   C116  1.444477 S    
C102  H22   1.110324 S    
N4    C52   1.354028 A    
N11   C59   1.355644 A    
C25   C31   1.416345 A    
C66   C72   1.405306 A    
N31   H25   1.029064 S    
C68   N38   1.423283 S    
C101  H18   1.112060 S    
C29   N47   1.425759 S    
C39   N51   1.425146 S    
C120  H95   1.111025 S    
C122  H102  1.110012 S    
C116  H80   1.110760 S    
C70   N40   1.425389 S    
C33   C39   1.407296 A    
O24   Cr6   1.943962 S    
C64   Br4   1.932446 S    
C115  H76   1.110524 S    
C45   N33   1.429496 S    
N28   H13   1.031449 S    
C24   N30   1.427744 S    
N27   H9    1.031675 S    
C73   Br7   1.936532 S    
C126  H118  1.110394 S    
C42   N54   1.426820 S    
C107  H42   1.111647 S    
C41   C47   1.405062 A    
C26   N44   1.425979 S    
N51   H105  1.030296 S    
N4    N10   1.328322 A    
O16   C11   1.257872 A    
C117  H83   1.112594 S    
C107  H43   1.110743 S    
C49   C85   1.468625 S    
C12   C93   1.487617 S    
C113  H67   1.110322 S    
N1    N7    1.330777 A    
N2    N8    1.330916 A    
C40   N52   1.429575 S    
N45   C117  1.450118 S    
N50   H101  1.029354 S    
O21   Cr3   1.951797 S    
N53   C125  1.447928 S    
C18   C48   1.416548 A    
N22   C52   1.358787 A    
C20   C26   1.405702 A    
C75   Br9   1.930965 S    
C43   N31   1.431026 S    
O19   Cr1   1.944549 S    
C81   C87   1.406044 A    
N25   H1    1.031713 S    
C3    C13   1.493071 S    
C121  H100  1.109443 S    
C99   H12   1.109310 S    
N60   C132  1.446170 S    
N19   C49   1.357212 A    
N41   C113  1.445783 S    
C74   C92   1.415441 A    
C79   N55   1.425886 S    
O4    Cr4   2.068857 S    
C23   N29   1.435942 S    
N43   C115  1.446146 S    
C31   C37   1.411551 A    
C102  H24   1.110397 S    
Cr3   O25   1.968447 S    
C1    C14   1.495432 S    
C123  H106  1.110222 S    
C122  H103  1.109836 S    
C118  H86   1.110975 S    
C21   C27   1.405403 A    
C114  H71   1.110390 S    
C37   N49   1.426326 S    
N36   C108  1.446366 S    
N30   C102  1.447679 S    
O14   Cr2   2.078663 S    
N18   C60   1.354721 A    
O15   Cr3   2.073188 S    
Cr4   O26   1.968300 S    
C32   C56   1.469489 S    
C122  H104  1.109767 S    
O16   Cr4   2.075547 S    
N37   H49   1.031070 S    
C126  H119  1.110520 S    
C129  H131  1.109991 S    
C11   C91   1.497359 S    
C110  H55   1.111375 S    
C132  H142  1.111236 S    
C6    C16   1.490512 S    
C117  H82   1.110404 S    
C67   C91   1.421715 A    
N3    C51   1.354935 A    
N39   C111  1.446176 S    
C119  H90   1.109758 S    
C26   C32   1.408857 A    
C126  H120  1.109468 S    
C65   C89   1.406056 A    
N42   H69   1.029232 S    
C38   N50   1.424344 S    
N5    C53   1.356629 A    
N59   H137  1.030841 S    
C100  H16   1.108801 S    
O5    Cr5   2.070249 S    
C83   C89   1.409415 A    
N7    C55   1.357744 A    
C74   C80   1.413027 A    
C62   C86   1.403393 A    
C9    C96   1.487930 S    
C125  H116  1.110729 S    
C61   C67   1.408106 A    
C108  H47   1.111259 S    
C42   C48   1.410033 A    
N15   C57   1.352764 A    
N18   N24   1.330333 A    
C106  H39   1.106837 S    
O11   Cr5   1.961050 S    
C111  H60   1.110290 S    
C124  H110  1.110509 S    
C46   N34   1.423056 S    
C34   C40   1.405664 A    
C109  H52   1.110578 S    
C123  H108  1.111210 S    
O12   C6    1.253289 A    
N38   H53   1.030050 S    
N32   C104  1.448428 S    
N55   H121  1.030684 S    
C17   C47   1.418247 A    
C101  H19   1.111833 S    
N45   H81   1.030814 S    
