data_mof_unit_pretest_378.cif
_audit_creation_date              2013-03-05T15:53:03-0500
_audit_creation_method            fapswitch 2.2
_symmetry_space_group_name_H-M    P1
_symmetry_Int_Tables_number       1
_space_group_crystal_system       triclinic
_cell_length_a                    19.815119
_cell_length_b                    17.069481
_cell_length_c                    15.313524
_cell_angle_alpha                 89.968555
_cell_angle_beta                  52.560292
_cell_angle_gamma                 90.024597
_cell_volume                      4112.5275884

loop_
_atom_site_label
_atom_site_type_symbol
_atom_site_description
_atom_site_fract_x
_atom_site_fract_y
_atom_site_fract_z
_atom_type_partial_charge
C1    C     C_R   0.873977 0.693923 0.993262 -0.119652
C2    C     C_R   0.125508 0.694092 0.007468 -0.122988
C3    C     C_R   0.373977 0.193923 0.993263 -0.119663
C4    C     C_R   0.625510 0.194091 0.007465 -0.122974
H1    H     H_    0.880966 0.749931 0.019649 0.087483
H2    H     H_    0.118080 0.750191 0.981684 0.091017
H3    H     H_    0.380966 0.249930 0.019650 0.087487
H4    H     H_    0.618084 0.250190 0.981679 0.091014
N1    N     N_R   0.908660 0.628630 0.995840 -0.045378
N2    N     N_R   0.091340 0.628630 0.004160 -0.045074
N3    N     N_R   0.408660 0.128630 0.995840 -0.045379
N4    N     N_R   0.591340 0.128630 0.004160 -0.045070
C5    C     C_R   0.898781 0.301743 0.208944 -0.129012
C6    C     C_R   0.100127 0.301699 0.792372 -0.136795
C7    C     C_R   0.398765 0.801746 0.208956 -0.129017
C8    C     C_R   0.600129 0.801699 0.792370 -0.136787
H5    H     H_    0.901281 0.244924 0.175947 0.098454
H6    H     H_    0.092294 0.245410 0.829593 0.104899
H7    H     H_    0.401261 0.744925 0.175965 0.098457
H8    H     H_    0.592295 0.745410 0.829591 0.104891
N5    N     N_R   0.922310 0.368460 0.151950 -0.041901
N6    N     N_R   0.077690 0.368460 0.848050 -0.039976
N7    N     N_R   0.422310 0.868460 0.151950 -0.041900
N8    N     N_R   0.577690 0.868460 0.848050 -0.039977
C9    C     C_R   0.830196 0.410677 0.951028 -0.143460
C10   C     C_R   0.169762 0.410627 0.049048 -0.147854
C11   C     C_R   0.330197 0.910677 0.951027 -0.143474
C12   C     C_R   0.669763 0.910628 0.049045 -0.147841
H9    H     H_    0.809112 0.444098 0.911714 0.108177
H10   H     H_    0.190850 0.443968 0.088403 0.099338
H11   H     H_    0.309113 0.944098 0.911714 0.108188
H12   H     H_    0.690852 0.943970 0.088398 0.099338
N9    N     N_R   0.903470 0.421430 0.936420 -0.044730
N10   N     N_R   0.096530 0.421430 0.063580 -0.044428
N11   N     N_R   0.403470 0.921430 0.936420 -0.044741
N12   N     N_R   0.596530 0.921430 0.063580 -0.044426
C13   C     C_R   0.858146 0.578021 0.315298 -0.141218
C14   C     C_R   0.141758 0.579327 0.684152 -0.097861
C15   C     C_R   0.358148 0.078022 0.315298 -0.141204
C16   C     C_R   0.641749 0.079334 0.684149 -0.097766
H13   H     H_    0.843849 0.536301 0.376837 0.135265
H14   H     H_    0.154994 0.541655 0.618802 0.095082
H15   H     H_    0.343852 0.036303 0.376837 0.135232
H16   H     H_    0.654978 0.041666 0.618800 0.095093
N13   N     N_R   0.927500 0.575670 0.211370 -0.043058
N14   N     N_R   0.072500 0.575670 0.788630 -0.044994
N15   N     N_R   0.427500 0.075670 0.211370 -0.043057
N16   N     N_R   0.572500 0.075670 0.788630 -0.045014
C17   C     C_R   0.840607 0.320182 0.048260 -0.105857
C18   C     C_R   0.159332 0.320254 0.951727 -0.104030
C19   C     C_R   0.340608 0.820181 0.048259 -0.105861
C20   C     C_R   0.659334 0.820255 0.951724 -0.103994
H17   H     H_    0.831186 0.270616 0.098230 0.089909
H18   H     H_    0.168728 0.270841 0.901584 0.091116
H19   H     H_    0.331187 0.770614 0.098227 0.089907
H20   H     H_    0.668730 0.770843 0.901579 0.091113
N17   N     N_R   0.908660 0.365680 0.995820 -0.049269
N18   N     N_R   0.091340 0.365680 0.004180 -0.048833
N19   N     N_R   0.408660 0.865680 0.995820 -0.049275
N20   N     N_R   0.591340 0.865680 0.004180 -0.048835
C21   C     C_R   0.850260 0.671914 0.220947 -0.096896
C22   C     C_R   0.150221 0.671227 0.780571 -0.101659
C23   C     C_R   0.350260 0.171914 0.220948 -0.096912
C24   C     C_R   0.650215 0.171234 0.780567 -0.101697
H21   H     H_    0.829476 0.720486 0.197702 0.088459
H22   H     H_    0.170623 0.719616 0.804535 0.098958
H23   H     H_    0.329476 0.220486 0.197703 0.088460
H24   H     H_    0.670616 0.219628 0.804528 0.098966
N21   N     N_R   0.922310 0.631420 0.151980 -0.043774
N22   N     N_R   0.077690 0.631420 0.848020 -0.044386
N23   N     N_R   0.422310 0.131420 0.151980 -0.043773
N24   N     N_R   0.577690 0.131420 0.848020 -0.044388
C25   C     C_R   0.907998 0.393975 0.303554 -0.100412
C26   C     C_R   0.094139 0.394042 0.695113 -0.108975
C27   C     C_R   0.407984 0.893980 0.303564 -0.100474
C28   C     C_R   0.594141 0.894044 0.695112 -0.108761
H25   H     H_    0.919505 0.422148 0.356524 0.117515
H26   H     H_    0.083884 0.422053 0.640790 0.080769
H27   H     H_    0.419490 0.922153 0.356535 0.117509
H28   H     H_    0.583886 0.922055 0.640790 0.080721
N25   N     N_R   0.927500 0.426330 0.211360 -0.045330
N26   N     N_R   0.072500 0.426330 0.788640 -0.039533
N27   N     N_R   0.427500 0.926330 0.211360 -0.045323
N28   N     N_R   0.572500 0.926330 0.788640 -0.039541
C29   C     C_R   0.864367 0.602291 0.897717 -0.150421
C30   C     C_R   0.135372 0.602329 0.102624 -0.146240
C31   C     C_R   0.364367 0.102291 0.897717 -0.150436
C32   C     C_R   0.635373 0.102329 0.102623 -0.146238
H29   H     H_    0.860050 0.575176 0.837443 0.103917
H30   H     H_    0.139661 0.575087 0.162882 0.093076
H31   H     H_    0.360050 0.075177 0.837443 0.103931
H32   H     H_    0.639661 0.075087 0.162881 0.093080
N29   N     N_R   0.903470 0.570760 0.936440 -0.041170
N30   N     N_R   0.096530 0.570760 0.063560 -0.039404
N31   N     N_R   0.403470 0.070760 0.936440 -0.041174
N32   N     N_R   0.596530 0.070760 0.063560 -0.039403
C33   C     C_R   0.845484 0.679428 0.932524 0.151855
C34   C     C_R   0.153948 0.679599 0.068245 0.152280
C35   C     C_R   0.345483 0.179428 0.932525 0.151859
C36   C     C_R   0.653949 0.179598 0.068243 0.152266
C37   C     C_R   0.890440 0.315757 0.303749 0.064040
C38   C     C_R   0.111550 0.315544 0.695458 0.090049
C39   C     C_R   0.390411 0.815765 0.303770 0.064044
C40   C     C_R   0.611553 0.815546 0.695456 0.090084
C41   C     C_R   0.789176 0.347459 0.022403 0.152400
C42   C     C_R   0.210702 0.347438 0.977741 0.155508
C43   C     C_R   0.289177 0.847459 0.022401 0.152404
C44   C     C_R   0.710704 0.847439 0.977737 0.155505
C45   C     C_R   0.807739 0.638385 0.324937 0.061548
C46   C     C_R   0.192907 0.638228 0.676921 0.049425
C47   C     C_R   0.307741 0.138385 0.324937 0.061536
C48   C     C_R   0.692894 0.138241 0.676915 0.049507
Ni1   Ni    Ni4+2 0.000000 0.630300 0.000000 0.222812
Ni2   Ni    Ni4+2 0.500000 0.130300 0.000000 0.222816
Ni3   Ni    Ni4+2 0.000000 0.369700 0.000000 0.214466
Ni4   Ni    Ni4+2 0.500000 0.869700 0.000000 0.214471
Ni5   Ni    Ni4+2 0.988090 0.497570 0.863760 0.221625
Ni6   Ni    Ni4+2 0.011910 0.497570 0.136240 0.219439
Ni7   Ni    Ni4+2 0.488090 0.997570 0.863760 0.221633
Ni8   Ni    Ni4+2 0.511910 0.997570 0.136240 0.219451
C49   C     C_R   0.700652 0.634144 0.529409 0.095775
C50   C     C_R   0.289864 0.639945 0.476525 -0.057104
C51   C     C_R   0.200666 0.134147 0.529410 0.095770
C52   C     C_R   0.789823 0.139976 0.476521 -0.057032
C53   C     C_R   0.727761 0.663982 0.427265 0.008028
C54   C     C_R   0.270803 0.666413 0.575519 0.111477
C55   C     C_R   0.227765 0.163981 0.427268 0.008029
C56   C     C_R   0.770778 0.166434 0.575509 0.111469
C57   C     C_R   0.184283 0.229341 0.427589 -0.131436
C58   C     C_R   0.811215 0.233941 0.575608 -0.095892
C59   C     C_R   0.684288 0.729347 0.427583 -0.131364
C60   C     C_R   0.311213 0.733940 0.575625 -0.095800
H33   H     H_    0.197214 0.251010 0.352380 0.120312
H34   H     H_    0.799016 0.255560 0.650366 0.118987
H35   H     H_    0.697224 0.751020 0.352373 0.120307
H36   H     H_    0.299009 0.755563 0.650383 0.118973
C61   C     C_R   0.134546 0.275500 0.522300 -0.187234
C62   C     C_R   0.861154 0.279157 0.480750 -0.124871
C63   C     C_R   0.634552 0.775508 0.522293 -0.187172
C64   C     C_R   0.361118 0.779173 0.480781 -0.124871
H37   H     H_    0.111188 0.330846 0.516178 0.121483
H38   H     H_    0.885982 0.333955 0.485649 0.149579
H39   H     H_    0.611204 0.830857 0.516169 0.121479
H40   H     H_    0.385924 0.833982 0.485689 0.149622
C65   C     C_R   0.128013 0.255665 0.616451 0.042771
C66   C     C_R   0.870894 0.257270 0.385197 0.066054
C67   C     C_R   0.628013 0.755668 0.616448 0.042743
C68   C     C_R   0.370854 0.757283 0.385232 0.066089
C69   C     C_R   0.651633 0.679858 0.622704 0.143839
C70   C     C_R   0.339216 0.685177 0.382141 0.099824
C71   C     C_R   0.151645 0.179860 0.622705 0.143812
C72   C     C_R   0.839217 0.185184 0.382123 0.099834
C73   C     C_3   0.694467 0.650271 0.669787 -0.645661
C74   C     C_3   0.390123 0.616231 0.312127 -0.610536
C75   C     C_3   0.194494 0.150288 0.669775 -0.645628
C76   C     C_3   0.890072 0.116205 0.312143 -0.610562
C77   C     C_3   0.748321 0.600072 0.568227 0.181539
C78   C     C_3   0.336113 0.566610 0.414898 0.242027
C79   C     C_3   0.248349 0.100090 0.568216 0.181539
C80   C     C_3   0.835991 0.066607 0.414928 0.241995
H41   H     H_    0.732565 0.695901 0.673856 0.191164
H42   H     H_    0.378876 0.603066 0.250843 0.168780
H43   H     H_    0.232589 0.195928 0.673835 0.191155
H44   H     H_    0.878839 0.103069 0.250837 0.168782
H45   H     H_    0.650373 0.616663 0.747183 0.226923
H46   H     H_    0.458377 0.620530 0.276832 0.234185
H47   H     H_    0.150412 0.116677 0.747173 0.226911
H48   H     H_    0.958323 0.120445 0.276879 0.234208
H49   H     H_    0.816901 0.615888 0.517412 0.075559
H50   H     H_    0.294586 0.523992 0.412810 0.057436
H51   H     H_    0.316928 0.115916 0.517391 0.075563
H52   H     H_    0.794418 0.024050 0.412842 0.057402
C81   C     C_2   0.693937 0.236284 0.093820 -0.186229
C82   C     C_2   0.305383 0.236046 0.907067 -0.182675
C83   C     C_2   0.193936 0.736284 0.093821 -0.186243
C84   C     C_2   0.805384 0.736046 0.907065 -0.182676
H53   H     H_    0.717739 0.214286 0.136772 0.125868
H54   H     H_    0.281423 0.213995 0.864333 0.128565
H55   H     H_    0.217736 0.714287 0.136775 0.125869
H56   H     H_    0.781419 0.713992 0.864337 0.128562
C85   C     C_2   0.215431 0.807221 0.046255 -0.172414
C86   C     C_2   0.784241 0.807068 0.954172 -0.173462
C87   C     C_2   0.715430 0.307221 0.046257 -0.172387
C88   C     C_2   0.284237 0.307066 0.954180 -0.173469
H57   H     H_    0.189863 0.830054 0.005857 0.127651
H58   H     H_    0.809990 0.829942 0.994319 0.123878
H59   H     H_    0.689862 0.330055 0.005860 0.127645
H60   H     H_    0.309980 0.329937 0.994334 0.123878
N33   N     N_R   0.731759 0.516324 0.593311 0.253868
O1    O     O_R   0.792024 0.471024 0.574550 -0.452667
O2    O     O_R   0.656404 0.487078 0.639166 -0.375538
N34   N     N_R   0.384059 0.531483 0.449312 0.261283
O3    O     O_R   0.372536 0.457980 0.477500 -0.389147
O4    O     O_R   0.437511 0.572732 0.453194 -0.376525
N35   N     N_R   0.231801 0.016341 0.593307 0.253850
O5    O     O_R   0.292057 0.971063 0.574619 -0.452656
O6    O     O_R   0.156461 0.987076 0.639118 -0.375562
N36   N     N_R   0.883867 0.031398 0.449396 0.261283
O7    O     O_R   0.872123 0.957939 0.477819 -0.389219
O8    O     O_R   0.937414 0.072547 0.453193 -0.376501

loop_
_geom_bond_atom_site_label_1
_geom_bond_atom_site_label_2
_geom_bond_distance
_ccdc_geom_bond_type
N13   Ni6   1.887423 S    
C28   C40   1.384572 A    
N14   Ni5   1.885514 S    
C32   N32   1.341786 A    
N9    Ni5   1.861946 S    
C31   H31   1.081621 S    
C6    H6    1.078824 S    
N11   Ni7   1.861946 S    
C3    N3    1.322723 A    
N5    Ni3   1.851848 S    
C21   C45   1.393046 A    
C64   C68   1.405427 A    
C9    C41   1.391961 A    
C16   C48   1.383064 A    
C2    H2    1.079301 S    
C2    C34   1.372080 A    
C7    H7    1.081011 S    
N21   Ni1   1.852214 S    
C18   H18   1.078298 S    
C27   H27   1.080022 S    
C79   H51   1.113031 S    
C43   C85   1.445815 S    
C1    H1    1.079258 S    
N6    N26   1.388129 A    
C61   C65   1.408071 A    
C8    H8    1.078822 S    
C67   C69   1.399164 A    
C26   N26   1.339128 A    
C14   H14   1.079580 S    
C3    H3    1.079254 S    
C78   N34   1.465856 S    
C38   C65   1.461739 S    
C17   H17   1.077818 S    
C6    C38   1.378680 A    
C85   H57   1.082713 S    
N2    N30   1.388020 A    
N3    N31   1.388667 A    
C3    C35   1.372486 A    
N24   Ni2   1.852173 S    
C17   N17   1.322192 A    
C22   N22   1.337021 A    
N11   N19   1.362517 A    
C86   H58   1.082685 S    
N33   O2    1.302309 A    
N3    Ni2   1.849542 S    
C69   C73   1.496437 S    
C30   N30   1.341788 A    
C77   H49   1.113025 S    
N7    Ni4   1.851848 S    
C12   C44   1.392429 A    
C29   N29   1.341762 A    
C8    C40   1.378681 A    
C72   C76   1.496541 S    
C75   H47   1.112199 S    
N19   Ni4   1.850772 S    
C31   N31   1.341756 A    
C73   C77   1.508685 S    
N36   O7    1.300721 A    
C71   C75   1.496456 S    
C14   C46   1.383071 A    
C20   N20   1.321892 A    
C4    N4    1.323115 A    
C82   H54   1.083154 S    
C31   C35   1.384370 A    
C4    H4    1.079302 S    
C26   C38   1.384573 A    
C7    N7    1.334085 A    
C83   C85   1.341463 D    
C25   C37   1.379115 A    
C52   C72   1.385988 A    
C70   C74   1.496500 S    
C8    N8    1.328114 A    
C33   C84   1.447150 S    
C49   C77   1.505516 S    
C27   C39   1.379115 A    
C80   H52   1.113037 S    
C40   C67   1.461746 S    
C10   C42   1.392428 A    
C58   H34   1.081328 S    
C63   H39   1.080972 S    
N16   N24   1.363041 A    
C19   C43   1.379506 A    
N12   Ni8   1.863801 S    
C25   N25   1.335367 A    
C10   N10   1.340462 A    
C39   C68   1.453743 S    
N16   Ni7   1.885514 S    
N4    Ni2   1.849562 S    
N22   Ni1   1.852173 S    
C9    H9    1.080766 S    
C37   C66   1.453728 S    
C23   H23   1.077919 S    
C28   N28   1.339119 A    
C18   C42   1.379472 A    
C14   N14   1.333130 A    
C22   H22   1.077396 S    
N13   N21   1.362406 A    
C18   N18   1.321892 A    
C32   H32   1.081599 S    
C12   H12   1.080779 S    
C1    N1    1.322736 A    
N17   Ni3   1.850772 S    
C30   H30   1.081598 S    
C82   C88   1.341459 D    
C59   C63   1.399881 A    
C29   H29   1.081619 S    
C78   H50   1.113033 S    
C15   H15   1.072371 S    
N31   Ni7   1.829024 S    
N1    N29   1.388667 A    
C75   C79   1.508669 S    
N25   Ni6   1.804701 S    
C88   H60   1.082683 S    
N23   Ni2   1.852214 S    
C73   H41   1.112293 S    
N34   O4    1.302715 A    
N27   Ni8   1.804701 S    
C50   C54   1.396281 A    
C84   C86   1.341467 D    
C55   C57   1.408098 A    
C49   C53   1.404243 A    
C87   H59   1.082714 S    
C53   C59   1.408095 A    
C84   H56   1.083156 S    
C51   C55   1.404252 A    
C50   C70   1.386036 A    
C11   C43   1.391959 A    
C60   H36   1.081322 S    
N15   N23   1.362406 A    
C50   C78   1.499392 S    
C79   N35   1.464436 S    
C5    N5    1.334063 A    
C32   C36   1.384019 A    
C41   C87   1.445816 S    
C12   N12   1.340467 A    
C65   C71   1.399169 A    
N2    Ni1   1.849562 S    
N7    N27   1.388776 A    
C46   C54   1.452430 S    
C66   C72   1.394844 A    
C63   C67   1.408067 A    
C45   C53   1.462834 S    
N6    Ni3   1.851893 S    
C23   N23   1.341578 A    
C10   H10   1.080777 S    
C1    C33   1.372485 A    
C4    C36   1.372082 A    
C11   H11   1.080763 S    
C62   H38   1.080344 S    
N18   Ni3   1.850823 S    
C57   H33   1.081467 S    
N20   Ni4   1.850823 S    
C19   N19   1.322192 A    
C13   N13   1.328143 A    
C2    N2    1.323114 A    
C24   H24   1.077402 S    
C52   C56   1.396274 A    
N10   Ni6   1.863801 S    
N14   N22   1.363041 A    
C15   N15   1.328129 A    
C21   N21   1.341580 A    
C16   N16   1.333107 A    
C61   H37   1.080980 S    
N15   Ni8   1.887423 S    
N9    N17   1.362517 A    
C73   H45   1.112191 S    
C13   C45   1.379451 A    
N32   Ni8   1.827204 S    
C51   C71   1.381332 A    
N4    N32   1.388020 A    
C28   H28   1.080330 S    
C68   C70   1.394861 A    
N12   N20   1.363153 A    
C56   C58   1.403760 A    
C74   H42   1.111475 S    
C17   C41   1.379507 A    
N5    N25   1.388776 A    
N8    Ni4   1.851893 S    
C76   C80   1.513128 S    
C5    H5    1.081012 S    
C60   C64   1.391162 A    
C83   H55   1.083099 S    
C47   C55   1.462831 S    
C59   H35   1.081461 S    
N29   Ni5   1.829024 S    
C44   C86   1.445748 S    
C11   N11   1.340392 A    
N34   O3    1.300751 A    
C6    N6    1.328114 A    
C64   H40   1.080341 S    
N8    N28   1.388129 A    
N1    Ni1   1.849542 S    
C76   H44   1.111490 S    
C23   C47   1.393044 A    
C34   C83   1.447260 S    
N30   Ni6   1.827204 S    
C27   N27   1.335364 A    
C35   C82   1.447152 S    
C51   C79   1.505539 S    
C22   C46   1.386041 A    
C62   C66   1.405435 A    
N28   Ni7   1.806517 S    
C80   N36   1.465853 S    
C52   C80   1.499370 S    
C15   C47   1.379440 A    
C49   C69   1.381342 A    
C19   H19   1.077818 S    
C24   N24   1.337021 A    
C13   H13   1.072373 S    
N33   O1    1.300141 A    
C30   C34   1.384017 A    
C77   N33   1.464424 S    
C48   C56   1.452400 S    
C24   C48   1.386042 A    
C29   C33   1.384374 A    
C54   C60   1.403759 A    
N35   O5    1.300142 A    
C76   H48   1.112557 S    
C21   H21   1.077921 S    
C16   H16   1.079576 S    
C57   C61   1.399875 A    
C81   C87   1.341461 D    
C75   H43   1.112302 S    
C26   H26   1.080334 S    
C36   C81   1.447259 S    
N10   N18   1.363153 A    
C74   C78   1.513105 S    
C25   H25   1.080023 S    
C74   H46   1.112547 S    
C20   C44   1.379471 A    
N36   O8    1.302672 A    
N26   Ni5   1.806517 S    
C7    C39   1.378768 A    
C81   H53   1.083099 S    
C42   C88   1.445735 S    
C5    C37   1.378750 A    
C20   H20   1.078296 S    
C9    N9    1.340391 A    
N35   O6    1.302310 A    
C58   C62   1.391175 A    
