data_mof_unit_pretest_271.cif
_audit_creation_date              2012-10-26T19:17:56-0400
_audit_creation_method            fapswitch 2.2
_symmetry_space_group_name_H-M    P1
_symmetry_Int_Tables_number       1
_space_group_crystal_system       triclinic
_cell_length_a                    10.909419
_cell_length_b                    12.281751
_cell_length_c                    13.320163
_cell_angle_alpha                 116.610773
_cell_angle_beta                  79.178929
_cell_angle_gamma                 100.073886
_cell_volume                      1558.89124871

loop_
_atom_site_label
_atom_site_type_symbol
_atom_type_description
_atom_site_fract_x
_atom_site_fract_y
_atom_site_fract_z
_atom_type_partial_charge
C1    C     C_R   0.500387 0.855093 0.288758 0.557614
C2    C     C_R   0.166193 0.392060 0.490086 -0.063772
C3    C     C_R   0.203922 0.371379 0.377725 -0.060624
C4    C     C_R   0.737000 0.997913 0.499911 0.565553
C5    C     C_R   0.223958 0.253169 0.295040 -0.095590
C6    C     C_R   0.201219 0.154655 0.324129 -0.016654
C7    C     C_R   0.158740 0.174637 0.436560 0.094829
C8    C     C_R   0.449790 0.266225 0.029608 -0.063101
C9    C     C_R   0.474698 0.228712 0.833315 0.007853
C10   C     C_R   0.485137 0.821886 0.093137 -0.089964
C11   C     C_R   0.473473 0.745785 0.980041 -0.109335
C12   C     C_R   0.704622 0.742070 0.740073 -0.119619
C13   C     C_R   0.465063 0.619259 0.940554 -0.121595
C14   C     C_R   0.456158 0.565478 0.016314 0.011459
C15   C     C_R   0.443011 0.643266 0.134089 0.037351
C16   C     C_R   0.484983 0.145408 0.712661 0.545476
C17   C     C_R   0.457232 0.437256 0.980128 0.003755
C18   C     C_R   0.442886 0.390438 0.062047 -0.062329
C19   C     C_R   0.412797 0.466287 0.175383 -0.096120
C20   C     C_R   0.399239 0.587924 0.209104 0.388112
C21   C     C_R   0.474720 0.354239 0.865741 -0.169107
C22   C     C_R   0.463526 0.185197 0.916009 0.405435
C23   C     C_R   0.042169 0.936533 0.550928 0.398984
C24   C     C_R   0.474322 0.772319 0.171320 -0.000494
C25   C     C_R   0.690121 0.339509 0.322520 0.426242
C26   C     C_R   0.339035 0.765822 0.651344 0.139622
C27   C     C_R   0.314589 0.675821 0.690815 -0.156311
C28   C     C_R   0.262723 0.003407 0.502491 0.564458
C29   C     C_R   0.377906 0.571246 0.635533 -0.158187
C30   C     C_R   0.465869 0.555076 0.538949 0.011492
C31   C     C_R   0.492661 0.652793 0.505715 0.177397
C32   C     C_R   0.530833 0.447838 0.476205 -0.046846
C33   C     C_R   0.624068 0.442645 0.384555 0.004376
C34   C     C_R   0.128781 0.006725 0.504974 -0.054782
C35   C     C_R   0.652466 0.541421 0.357137 -0.099149
C36   C     C_R   0.589783 0.644703 0.417643 -0.102702
C37   C     C_R   0.507375 0.344532 0.499876 -0.017680
C38   C     C_R   0.663459 0.241771 0.351212 0.612025
C39   C     C_R   0.702048 0.868367 0.780961 0.366671
C40   C     C_R   0.764204 0.929043 0.715788 -0.083164
C41   C     C_R   0.830420 0.863737 0.609607 -0.025623
C42   C     C_R   0.832977 0.736723 0.569108 0.464306
C43   C     C_R   0.769861 0.676337 0.634342 0.362447
C44   C     C_R   0.084272 0.074754 0.460302 -0.080965
C45   C     C_R   0.957269 0.061765 0.451605 0.358938
C46   C     C_R   0.870404 0.994536 0.499779 -0.057290
C47   C     C_R   0.913746 0.931077 0.550229 -0.027697
C48   C     C_R   0.146126 0.294652 0.520058 -0.071786
Cu1   Cu    Cu3+1 0.529370 0.098270 0.475420 1.062434
Cu2   Cu    Cu3+1 0.470630 0.901730 0.524580 1.065010
F1    F     F_    0.464207 0.064546 0.887712 -0.582850
F2    F     F_    0.644710 0.933317 0.886113 -0.572468
F3    F     F_    0.326087 0.644124 0.308512 -0.595398
F4    F     F_    0.725879 0.141158 0.290963 -0.504227
F5    F     F_    0.779826 0.333384 0.234798 -0.567396
F6    F     F_    0.900211 0.672628 0.468403 -0.548871
F7    F     F_    0.775569 0.554679 0.596932 -0.593386
F8    F     F_    0.081197 0.878707 0.604043 -0.592588
F9    F     F_    0.919107 0.120578 0.398944 -0.534583
H1    H     H_    0.658835 0.695135 0.791052 0.150034
H2    H     H_    0.249428 0.236671 0.207433 0.121567
H3    H     H_    0.393647 0.429711 0.237392 0.103421
H4    H     H_    0.441491 0.231097 0.092335 0.133677
H5    H     H_    0.487357 0.384955 0.800137 0.139472
H6    H     H_    0.501578 0.919867 0.119467 0.189359
H7    H     H_    0.475268 0.785002 0.921505 0.198223
H8    H     H_    0.290498 0.847337 0.695191 0.192864
H9    H     H_    0.623845 0.717305 0.393933 0.184618
H10   H     H_    0.108517 0.311043 0.606330 0.111596
H11   H     H_    0.146769 0.482770 0.553138 0.163336
H12   H     H_    0.213483 0.446795 0.354947 0.193120
H13   H     H_    0.206290 0.062318 0.258048 0.128422
H14   H     H_    0.463040 0.566487 0.850852 0.104658
H15   H     H_    0.725586 0.540326 0.289302 0.209086
H16   H     H_    0.435778 0.338963 0.565596 0.132473
H17   H     H_    0.355704 0.504553 0.669794 0.097855
H18   H     H_    0.246513 0.687060 0.764356 0.131904
H19   H     H_    0.764945 0.027458 0.749703 0.163358
N1    N     N_R   0.573890 0.246290 0.438210 -0.284556
N2    N     N_R   0.426890 0.754320 0.561170 -0.225243
O1    O     O_R   0.536940 0.972510 0.318130 -0.466978
O2    O     O_R   0.487330 0.806530 0.359650 -0.475337
O3    O     O_R   0.705160 0.082990 0.479250 -0.369214
O4    O     O_R   0.655550 0.917010 0.520760 -0.568372
O5    O     O_R   0.512670 0.193470 0.640350 -0.538485
O6    O     O_R   0.463060 0.027490 0.681870 -0.458869
O7    O     O_R   0.344450 0.082990 0.479240 -0.554727
O8    O     O_R   0.294840 0.917010 0.520750 -0.396850

loop_
_geom_bond_atom_site_label_1
_geom_bond_atom_site_label_2
_ccdc_geom_bond_type
C23   F8    S    
C35   H15   S    
C40   C41   A    
C27   C29   A    
C41   C42   A    
Cu1   O7    S    
C19   C20   A    
C48   H10   S    
Cu2   O4    S    
C31   N2    A    
C29   H17   S    
C4    C46   S    
C45   C46   A    
C6    H13   S    
C37   N1    A    
C26   C27   A    
C26   H8    S    
C9    C16   S    
C12   C43   A    
C30   C31   A    
C9    C22   A    
C38   N1    A    
C19   H3    S    
C1    O1    A    
C18   C19   A    
Cu1   O1    S    
C27   H18   S    
C21   H5    S    
C42   F6    S    
C35   C36   A    
C4    O4    A    
C28   O8    A    
C8    C22   A    
C11   H7    S    
Cu2   O8    S    
C39   F2    S    
C37   H16   S    
C28   C34   S    
C13   C14   A    
C16   O6    A    
C14   C17   A    
C15   C20   A    
C23   C47   A    
Cu1   O5    S    
C34   C44   A    
C39   C40   A    
C43   F7    S    
C10   C24   A    
C1    O2    A    
C7    C44   S    
C17   C21   A    
Cu1   N1    S    
C3    H12   S    
C29   C30   A    
C25   C38   A    
C38   F4    S    
C23   C34   A    
C28   O7    A    
C8    C18   A    
C17   C18   A    
C41   C47   S    
C5    H2    S    
C32   C37   A    
C15   C24   A    
C13   H14   S    
C16   O5    A    
C40   H19   S    
C42   C43   A    
C44   C45   A    
Cu2   O2    S    
C10   H6    S    
C46   C47   A    
C45   F9    S    
C31   C36   A    
C25   F5    S    
C20   F3    S    
C3    C5    A    
Cu2   N2    S    
C36   H9    S    
C6    C7    A    
C2    C48   A    
C7    C48   A    
Cu1   O3    S    
C12   C39   A    
C2    C3    A    
C32   C33   A    
C30   C32   A    
C11   C13   A    
C9    C21   A    
C5    C6    A    
C4    O3    A    
C33   C35   A    
C26   N2    A    
C10   C11   A    
Cu2   O6    S    
C8    H4    S    
C12   H1    S    
C1    C24   S    
Cu1   Cu2   S    
C14   C15   A    
C2    H11   S    
C25   C33   A    
C22   F1    S    
