data_mof_unit_pretest_878.cif
_audit_creation_date              2012-10-26T19:15:07-0400
_audit_creation_method            fapswitch 2.2
_symmetry_space_group_name_H-M    P1
_symmetry_Int_Tables_number       1
_space_group_crystal_system       triclinic
_cell_length_a                    10.827955
_cell_length_b                    10.79237
_cell_length_c                    9.562263
_cell_angle_alpha                 89.902669
_cell_angle_beta                  89.652247
_cell_angle_gamma                 90.016509
_cell_volume                      1117.41708494

loop_
_atom_site_label
_atom_site_type_symbol
_atom_type_description
_atom_site_fract_x
_atom_site_fract_y
_atom_site_fract_z
_atom_type_partial_charge
Br1   Br    Br    0.682409 0.142921 0.257040 -0.531855
C1    C     C_R   0.504788 0.262511 0.500099 0.571568
C2    C     C_R   0.465624 0.936662 0.615857 0.007886
C3    C     C_3   0.340577 0.931388 0.682200 -0.261171
C4    C     C_R   0.262505 0.502495 0.500376 0.545886
C5    C     C_3   0.342262 0.072197 0.681628 -0.271607
C6    C     C_R   0.503093 0.608878 0.073013 0.148957
C7    C     C_R   0.484007 0.393456 0.074433 0.015393
C8    C     C_R   0.484149 0.393405 0.926151 -0.007291
C9    C     C_R   0.503887 0.608673 0.925853 0.151730
C10   C     C_3   0.602861 0.704293 0.918609 -0.265872
C11   C     C_3   0.600896 0.706085 0.077200 -0.269596
C12   C     C_R   0.935731 0.507926 0.623628 -0.034675
C13   C     C_R   0.502156 0.737496 0.500216 0.541766
C14   C     C_R   0.737745 0.503484 0.499326 0.582213
C15   C     C_R   0.062631 0.507481 0.625090 0.005535
C16   C     C_R   0.129746 0.516079 0.500821 -0.023795
C17   C     C_R   0.067239 0.544382 0.376640 -0.147262
C18   C     C_R   0.937529 0.545329 0.373736 0.228076
C19   C     C_R   0.871197 0.517296 0.498049 0.051651
C20   C     C_3   0.927293 0.412950 0.737209 -0.254367
C21   C     C_3   0.067573 0.412407 0.738577 -0.255606
C22   C     C_R   0.467251 0.063873 0.615297 -0.004816
C23   C     C_R   0.517175 0.129214 0.502369 0.021582
C24   C     C_R   0.584673 0.063309 0.399421 0.126075
C25   C     C_R   0.581948 0.933684 0.400572 -0.126669
C26   C     C_R   0.513264 0.870492 0.503017 -0.020803
Cu1   Cu    Cu3+1 0.499990 0.499980 0.640670 0.940250
Cu2   Cu    Cu3+1 0.500010 0.500020 0.359330 1.000149
H1    H     H_    0.118636 0.560404 0.280723 0.125046
H2    H     H_    0.564642 0.794776 0.119118 0.133670
H3    H     H_    0.885751 0.451237 0.834583 0.158563
H4    H     H_    0.886584 0.324095 0.700899 0.154844
H5    H     H_    0.106884 0.450301 0.836761 0.144908
H6    H     H_    0.108564 0.323305 0.702915 0.136588
H7    H     H_    0.632279 0.882886 0.321369 0.150653
H8    H     H_    0.269637 0.891019 0.612030 0.140204
H9    H     H_    0.936064 0.585435 0.174770 0.312358
H10   H     H_    0.343434 0.890905 0.789116 0.140974
H11   H     H_    0.272266 0.113974 0.611153 0.133406
H12   H     H_    0.345880 0.112790 0.788273 0.135637
H13   H     H_    0.472022 0.306543 0.128727 0.157411
H14   H     H_    0.472833 0.306405 0.872263 0.126955
H15   H     H_    0.690547 0.667776 0.873685 0.155348
H16   H     H_    0.569850 0.792358 0.871431 0.142385
H17   H     H_    0.687989 0.672986 0.125072 0.200834
N1    N     N_R   0.500790 0.500930 0.147930 -0.225812
N2    N     N_R   0.500790 0.500890 0.852020 -0.234737
O1    O     O_R   0.500000 0.319640 0.618810 -0.518677
O2    O     O_R   0.500010 0.319680 0.381230 -0.479146
O3    O     O_R   0.319650 0.499970 0.618810 -0.498948
O4    O     O_R   0.319660 0.500010 0.381230 -0.512614
O5    O     O_R   0.499990 0.680320 0.618770 -0.503859
O6    O     O_R   0.500000 0.680360 0.381190 -0.513831
O7    O     O_R   0.680340 0.499990 0.618770 -0.518360
O8    O     O_R   0.680350 0.500030 0.381190 -0.416065
O9    O     O_3   0.875482 0.568263 0.250567 -0.691067

loop_
_geom_bond_atom_site_label_1
_geom_bond_atom_site_label_2
_ccdc_geom_bond_type
C6    C9    A    
C22   C23   A    
C4    O4    A    
C20   H3    S    
C17   H1    S    
Cu2   O8    S    
C13   C26   S    
H9    O9    S    
Cu1   O1    S    
C2    C22   A    
C18   C19   A    
C3    H10   S    
Cu1   O5    S    
C14   O8    A    
C2    C26   A    
C16   C17   A    
C7    N1    A    
C12   C20   S    
C10   H15   S    
C20   C21   S    
C18   O9    S    
C4    C16   S    
Br1   C24   S    
C21   H6    S    
C25   C26   A    
C14   C19   S    
Cu2   N1    S    
C5    C22   S    
C3    C5    S    
Cu1   Cu2   S    
C1    O1    A    
Cu1   O7    S    
C7    H13   S    
C9    N2    A    
Cu2   O2    S    
C11   H2    S    
C1    C23   S    
C6    C11   S    
C21   H5    S    
Cu1   O3    S    
C5    H11   S    
C8    H14   S    
C10   H16   S    
C9    C10   S    
C2    C3    S    
C13   O5    A    
C20   H4    S    
C23   C24   A    
C8    N2    A    
C11   H17   S    
C17   C18   A    
Cu2   O6    S    
C12   C15   A    
C25   H7    S    
C3    H8    S    
C15   C16   A    
C15   C21   S    
C1    O2    A    
C12   C19   A    
C13   O6    A    
C24   C25   A    
C5    H12   S    
Cu1   N2    S    
C4    O3    A    
C10   C11   S    
C14   O7    A    
C7    C8    A    
Cu2   O4    S    
C6    N1    A    
