data_mof_unit_pretest_467.cif
_audit_creation_date              2012-12-11T16:24:19-0500
_audit_creation_method            fapswitch 2.2
_symmetry_space_group_name_H-M    P1
_symmetry_Int_Tables_number       1
_space_group_crystal_system       triclinic
_cell_length_a                    14.766204
_cell_length_b                    14.757321
_cell_length_c                    33.213131
_cell_angle_alpha                 95.896304
_cell_angle_beta                  96.262742
_cell_angle_gamma                 61.019982
_cell_volume                      6283.10436209

loop_
_atom_site_label
_atom_site_type_symbol
_atom_type_description
_atom_site_fract_x
_atom_site_fract_y
_atom_site_fract_z
_atom_type_partial_charge
C1    C     C_R   0.390839 0.699443 0.445805 0.523859
C2    C     C_1   0.313089 0.357231 0.227639 0.114340
C3    C     C_3   0.570020 0.869205 0.162761 -0.362810
C4    C     C_3   0.486670 0.143393 0.656080 -0.267621
C5    C     C_3   0.478765 0.056621 0.629229 -0.424329
C6    C     C_3   0.482974 0.225166 0.921431 -0.274779
C7    C     C_3   0.483357 0.298217 0.957465 -0.410616
C8    C     C_3   0.726547 0.226888 0.681816 -0.278076
C9    C     C_3   0.624564 0.290085 0.702175 -0.417122
C10   C     C_3   0.511103 0.175848 0.386676 -0.253891
C11   C     C_3   0.544573 0.075060 0.360122 -0.457715
C12   C     C_1   0.314846 0.362559 0.263982 0.114457
C13   C     C_R   0.405606 0.386112 0.433788 0.542188
C14   C     C_R   0.295702 0.300014 0.100545 -0.042778
C15   C     C_R   0.753548 0.374593 0.409435 0.024304
C16   C     C_R   0.784001 0.437739 0.392213 -0.121275
C17   C     C_R   0.809063 0.419037 0.351937 -0.111457
C18   C     C_R   0.804520 0.336647 0.328256 0.033971
C19   C     C_R   0.783624 0.267761 0.346558 -0.109440
C20   C     C_R   0.758308 0.286597 0.386877 -0.125408
C21   C     C_R   0.323958 0.363139 0.307401 0.012574
C22   C     C_R   0.820314 0.318101 0.202514 0.351380
C23   C     C_R   0.813052 0.328229 0.284154 0.348938
C24   C     C_R   0.825069 0.394617 0.139913 -0.111049
C25   C     C_R   0.700443 0.410115 0.447424 0.561864
C26   C     C_R   0.859423 0.381679 0.101320 -0.113810
C27   C     C_R   0.904412 0.199984 0.098286 -0.129711
C28   C     C_R   0.870009 0.212945 0.136980 -0.105929
C29   C     C_R   0.834894 0.309214 0.158877 0.036795
C30   C     C_R   0.904069 0.283158 0.081032 0.016649
C31   C     C_R   0.374357 0.742080 0.405634 0.025387
C32   C     C_R   0.403242 0.275274 0.325423 -0.116411
C33   C     C_R   0.315409 0.714535 0.375808 -0.118855
C34   C     C_R   0.317232 0.726123 0.335164 -0.102156
C35   C     C_R   0.378007 0.765636 0.322743 0.008027
C36   C     C_R   0.430469 0.801770 0.352307 -0.096589
C37   C     C_R   0.393337 0.701727 0.561137 0.534499
C38   C     C_R   0.427700 0.792634 0.393994 0.011418
C39   C     C_R   0.384729 0.781989 0.198043 0.331805
C40   C     C_R   0.384759 0.768694 0.278920 0.345644
C41   C     C_R   0.267157 0.829485 0.136481 -0.106366
C42   C     C_R   0.235182 0.873553 0.099113 -0.118748
C43   C     C_R   0.425664 0.273986 0.367696 -0.000663
C44   C     C_R   0.402706 0.863680 0.095888 -0.106850
C45   C     C_R   0.436627 0.817620 0.133459 0.016592
C46   C     C_R   0.365624 0.805780 0.154967 0.046053
C47   C     C_R   0.300856 0.895430 0.079350 0.005514
C48   C     C_R   0.367433 0.362012 0.582835 -0.016031
C49   C     C_R   0.406127 0.387711 0.548521 0.561361
C50   C     C_R   0.271413 0.430084 0.599907 0.243988
C51   C     C_R   0.255736 0.413230 0.638628 -0.073881
C52   C     C_R   0.329940 0.327155 0.659520 -0.006806
C53   C     C_R   0.415186 0.248724 0.639181 0.000945
C54   C     C_R   0.392661 0.251807 0.166269 0.271726
C55   C     C_R   0.434655 0.268992 0.601737 -0.161486
C56   C     C_R   0.306311 0.340333 0.784448 0.336246
C57   C     C_R   0.321744 0.327547 0.703253 0.327448
C58   C     C_R   0.201836 0.375419 0.843486 -0.123045
C59   C     C_R   0.194729 0.358146 0.882975 -0.138019
C60   C     C_R   0.383122 0.274595 0.894646 0.007982
C61   C     C_R   0.702914 0.412430 0.562289 0.604002
C62   C     C_R   0.388781 0.292626 0.854448 -0.105801
C63   C     C_R   0.298926 0.338458 0.828231 0.016293
C64   C     C_R   0.284477 0.302788 0.908296 0.039871
C65   C     C_R   0.381149 0.230098 0.124667 -0.146445
C66   C     C_R   0.756096 0.377564 0.602489 -0.033053
C67   C     C_R   0.820263 0.415731 0.623662 0.225554
C68   C     C_R   0.837415 0.409260 0.666536 0.193896
C69   C     C_R   0.806600 0.347758 0.685619 -0.011918
C70   C     C_R   0.756853 0.296618 0.662835 -0.022523
C71   C     C_R   0.729377 0.314806 0.621964 -0.173064
C72   C     C_R   0.886786 0.217928 0.822475 -0.118910
C73   C     C_R   0.369084 0.367351 0.391721 -0.020348
C74   C     C_R   0.914607 0.204043 0.863790 -0.125771
C75   C     C_R   0.866594 0.386500 0.874966 -0.133185
C76   C     C_R   0.227515 0.399173 0.118276 0.222874
C77   C     C_R   0.838772 0.400121 0.833717 -0.098649
C78   C     C_R   0.852054 0.315203 0.807353 0.037472
C79   C     C_1   0.836772 0.326607 0.764586 0.020215
C80   C     C_1   0.824514 0.336477 0.728677 0.053067
C81   C     C_R   0.908466 0.287482 0.890144 0.017083
C82   C     C_R   0.375963 0.756896 0.601571 0.012010
C83   C     C_R   0.279261 0.796905 0.618111 -0.098524
C84   C     C_R   0.269095 0.827601 0.659263 -0.099105
C85   C     C_R   0.283089 0.451802 0.373304 -0.140405
C86   C     C_R   0.355127 0.819330 0.684204 0.035382
C87   C     C_R   0.236379 0.417727 0.160342 -0.126418
C88   C     C_R   0.449789 0.786540 0.667501 -0.117606
C89   C     C_R   0.460170 0.755840 0.626332 -0.132823
C90   C     C_R   0.395587 0.886937 0.832418 -0.110009
C91   C     C_R   0.376450 0.912958 0.873384 -0.124756
C92   C     C_R   0.226801 0.884496 0.862302 -0.124306
C93   C     C_R   0.246216 0.858415 0.821384 -0.109290
C94   C     C_R   0.328851 0.862388 0.806216 0.039215
C95   C     C_1   0.340841 0.847532 0.763392 -0.018604
C96   C     C_1   0.348166 0.835852 0.727305 -0.018179
C97   C     C_R   0.259873 0.450378 0.331407 0.226969
C98   C     C_R   0.315458 0.343048 0.184359 -0.016506
C99   C     C_R   0.289809 0.915264 0.888475 0.019209
C100  C     C_R   0.963020 0.264446 0.045379 0.539025
C101  C     C_R   0.273731 0.261164 0.059599 0.569180
C102  C     C_R   0.259537 0.959128 0.043720 0.546137
C103  C     C_R   0.962035 0.268152 0.930904 0.532135
C104  C     C_R   0.270629 0.264453 0.945284 0.540186
C105  C     C_R   0.256018 0.965266 0.928904 0.543326
C106  C     C_3   0.480763 0.838699 0.424426 -0.274701
C107  C     C_3   0.426803 0.956834 0.423366 -0.442484
C108  C     C_3   0.548805 0.779215 0.148740 -0.294985
Cr1   Cr    Cr6+3 0.576280 0.580550 0.506370 1.052953
Cr2   Cr    Cr6+3 0.346780 0.572400 0.496520 1.117301
Cr3   Cr    Cr6+3 0.576960 0.347070 0.497150 1.013229
Cr4   Cr    Cr6+3 0.087320 0.083240 0.984860 1.022266
Cr5   Cr    Cr6+3 0.087720 0.316210 0.996740 1.118920
Cr6   Cr    Cr6+3 0.317350 0.090340 0.995890 1.015011
H1    H     H_    0.436565 0.155816 0.111529 0.178262
H2    H     H_    0.156561 0.896092 0.086921 0.150627
H3    H     H_    0.273152 0.700719 0.313320 0.213220
H4    H     H_    0.474976 0.835730 0.342995 0.134259
H5    H     H_    0.211805 0.820211 0.152168 0.161995
H6    H     H_    0.455429 0.876362 0.079913 0.127267
H7    H     H_    0.505278 0.212404 0.588023 0.145196
H8    H     H_    0.118185 0.381950 0.892607 0.145417
H9    H     H_    0.187282 0.470435 0.653467 0.209380
H10   H     H_    0.449436 0.208942 0.305742 0.163494
H11   H     H_    0.130988 0.413130 0.824308 0.165025
H12   H     H_    0.735850 0.236098 0.399441 0.128697
H13   H     H_    0.463978 0.267178 0.843129 0.129869
H14   H     H_    0.947099 0.126809 0.874541 0.131148
H15   H     H_    0.896742 0.151956 0.802118 0.110730
H16   H     H_    0.682636 0.282713 0.605690 0.151324
H17   H     H_    0.811238 0.475818 0.822166 0.150599
H18   H     H_    0.860764 0.452242 0.894541 0.135067
H19   H     H_    0.426257 0.936599 0.892671 0.130535
H20   H     H_    0.459963 0.889864 0.820908 0.116930
H21   H     H_    0.516742 0.780153 0.686612 0.122806
H22   H     H_    0.535742 0.725338 0.614557 0.152867
H23   H     H_    0.856566 0.447592 0.088425 0.163550
H24   H     H_    0.212818 0.799665 0.599757 0.173969
H25   H     H_    0.194372 0.839098 0.801270 0.120780
H26   H     H_    0.159385 0.885730 0.872901 0.133568
H27   H     H_    0.195340 0.853426 0.671965 0.127326
H28   H     H_    0.236749 0.521635 0.391391 0.156468
H29   H     H_    0.180266 0.489882 0.174675 0.175827
H30   H     H_    0.782116 0.505513 0.408981 0.141850
H31   H     H_    0.427846 0.980586 0.392889 0.154408
H32   H     H_    0.344993 0.990684 0.431264 0.171443
H33   H     H_    0.467517 0.988391 0.445747 0.141775
H34   H     H_    0.827139 0.472180 0.338866 0.153245
H35   H     H_    0.480125 0.821423 0.455987 0.168964
H36   H     H_    0.563190 0.805760 0.417477 0.147521
H37   H     H_    0.522591 0.062470 0.243086 0.359614
H38   H     H_    0.555858 0.918009 0.137058 0.183019
H39   H     H_    0.519170 0.917606 0.187247 0.227003
H40   H     H_    0.652181 0.838625 0.174632 0.171531
H41   H     H_    0.571067 0.727114 0.174025 0.173047
H42   H     H_    0.599701 0.732169 0.123963 0.143552
H43   H     H_    0.003320 0.630948 0.579811 0.380279
H44   H     H_    0.397381 0.070599 0.626240 0.176935
H45   H     H_    0.780780 0.202861 0.329168 0.151585
H46   H     H_    0.505088 0.051488 0.598616 0.153184
H47   H     H_    0.528711 0.981164 0.643159 0.149475
H48   H     H_    0.568031 0.129214 0.658236 0.140110
H49   H     H_    0.467855 0.137896 0.686793 0.179084
H50   H     H_    0.471483 0.372201 0.946613 0.160804
H51   H     H_    0.421566 0.315107 0.977814 0.174548
H52   H     H_    0.559341 0.261410 0.975233 0.144210
H53   H     H_    0.496194 0.150718 0.932097 0.175780
H54   H     H_    0.550966 0.205384 0.904001 0.131633
H55   H     H_    0.629757 0.346685 0.725757 0.165317
H56   H     H_    0.796172 0.470367 0.155708 0.142389
H57   H     H_    0.560418 0.332477 0.679256 0.168788
H58   H     H_    0.606970 0.236838 0.716941 0.169214
H59   H     H_    0.717621 0.171810 0.658352 0.140209
H60   H     H_    0.788791 0.178514 0.704273 0.150930
H61   H     H_    0.934450 0.432623 0.533999 0.375930
H62   H     H_    0.475928 0.067150 0.347265 0.162087
H63   H     H_    0.590236 0.072816 0.335230 0.164946
H64   H     H_    0.594903 0.007787 0.378798 0.146929
H65   H     H_    0.580945 0.185483 0.395178 0.172894
H66   H     H_    0.482925 0.164928 0.414557 0.165125
H67   H     H_    0.937741 0.123273 0.083165 0.137175
H68   H     H_    0.762632 0.569661 0.733787 0.325416
H69   H     H_    0.044564 0.631295 0.132098 0.353233
H70   H     H_    0.056197 0.639344 0.359805 0.348922
H71   H     H_    0.877305 0.145986 0.150652 0.155010
H72   H     H_    0.272492 0.677171 0.383470 0.175013
N1    N     N_R   0.812396 0.402815 0.225460 -0.214904
N2    N     N_R   0.426730 0.822488 0.264991 -0.225603
N3    N     N_R   0.426031 0.829559 0.225271 -0.220317
N4    N     N_R   0.220726 0.369040 0.758339 -0.179608
N5    N     N_R   0.228142 0.363519 0.718509 -0.148221
N6    N     N_R   0.406867 0.301166 0.729336 -0.264750
N7    N     N_R   0.399566 0.306456 0.769137 -0.248179
N8    N     N_R   0.808497 0.407924 0.265434 -0.210956
N9    N     N_R   0.820017 0.243725 0.261220 -0.198612
N10   N     N_R   0.824333 0.238438 0.221175 -0.192175
N11   N     N_R   0.344698 0.726692 0.212004 -0.199604
N12   N     N_R   0.345297 0.719729 0.251590 -0.192656
O1    O     O_R   0.679450 0.499830 0.463150 -0.503935
O2    O     O_R   0.340240 0.172500 0.045430 -0.531800
O3    O     O_R   0.309670 0.000990 0.032050 -0.501215
O4    O     O_R   0.480650 0.664000 0.464630 -0.509102
O5    O     O_R   0.168330 0.982130 0.939200 -0.515460
O6    O     O_R   0.000140 0.178170 0.944610 -0.504624
O7    O     O_R   0.983010 0.336750 0.948660 -0.519168
O8    O     O_R   0.181800 0.312190 0.959860 -0.490923
O9    O     O_R   0.338500 0.175680 0.956950 -0.525633
O10   O     O_R   0.308050 0.003930 0.950020 -0.503265
O11   O     O_3   0.164130 0.163270 0.992500 -0.255288
O12   O     O_R   0.356040 0.477400 0.534170 -0.411744
O13   O     O_R   0.323930 0.675950 0.455370 -0.513764
O14   O     O_R   0.354700 0.475360 0.451930 -0.492051
O15   O     O_R   0.494470 0.320860 0.448390 -0.530617
O16   O     O_R   0.662580 0.357570 0.460050 -0.502613
O17   O     O_R   0.680900 0.502040 0.551870 -0.446349
O18   O     O_R   0.481990 0.666040 0.546870 -0.513932
O19   O     O_R   0.325370 0.678160 0.544080 -0.464816
O20   O     O_2   0.581166 0.081664 0.168573 -0.299696
O21   O     O_2   0.548611 0.218974 0.222156 -0.266897
O22   O     O_3   0.461075 0.104027 0.224937 -0.552451
O23   O     O_R   0.495910 0.323070 0.537100 -0.542361
O24   O     O_2   0.191862 0.626015 0.579255 -0.290150
O25   O     O_2   0.157143 0.507082 0.530910 -0.282074
O26   O     O_3   0.056739 0.574393 0.596320 -0.457500
O27   O     O_2   0.829264 0.572780 0.593265 -0.249183
O28   O     O_2   0.995065 0.425383 0.615400 -0.180317
O29   O     O_3   0.901504 0.401337 0.548109 -0.529592
O30   O     O_2   0.006470 0.407187 0.705691 -0.194543
O31   O     O_2   0.880722 0.571014 0.676303 -0.193778
O32   O     O_3   0.837006 0.523903 0.741368 -0.535207
O33   O     O_2   0.171421 0.502575 0.049949 -0.245816
O34   O     O_R   0.663920 0.359620 0.542290 -0.512208
O35   O     O_2   0.035610 0.491609 0.082056 -0.288568
O36   O     O_3   0.102352 0.617251 0.115534 -0.502799
O37   O     O_2   0.186558 0.594504 0.276245 -0.258136
O38   O     O_2   0.072934 0.527529 0.291635 -0.265063
O39   O     O_3   0.098262 0.657747 0.344435 -0.527389
O40   O     O_3   0.500010 0.500010 0.500010 -0.263923
O41   O     O_R   0.170070 0.978950 0.027680 -0.511187
O42   O     O_R   0.001760 0.175230 0.026640 -0.508234
O43   O     O_R   0.984760 0.333570 0.037150 -0.473943
O44   O     O_R   0.183410 0.309240 0.041890 -0.413805
S1    S     S_3+6 0.501197 0.162026 0.195536 -0.009781
S2    S     S_3+6 0.168774 0.536867 0.575082 0.030461
S3    S     S_3+6 0.888466 0.456835 0.595477 0.088033
S4    S     S_3+6 0.893016 0.479466 0.696989 0.069003
S5    S     S_3+6 0.131924 0.502981 0.089845 0.034354
S6    S     S_3+6 0.152288 0.558908 0.309586 -0.002345

loop_
_geom_bond_atom_site_label_1
_geom_bond_atom_site_label_2
_ccdc_geom_bond_type
C8    C9    S    
C48   C55   A    
O33   S5    D    
C55   H7    S    
C43   C73   A    
N4    N5    A    
C106  H36   S    
C22   C29   S    
C4    C53   S    
C1    O13   A    
C51   H9    S    
C41   C42   A    
C32   H10   S    
C9    H55   S    
Cr2   O13   S    
Cr3   O16   S    
C37   O19   A    
C26   H23   S    
C2    C12   T    
C97   S6    S    
C101  O2    A    
C72   H15   S    
C54   C65   A    
Cr1   O40   S    
C52   C53   A    
C59   C64   A    
C93   C94   A    
C82   C89   A    
O37   S6    D    
C83   C84   A    
C93   H25   S    
C10   H65   S    
Cr6   O11   S    
C28   C29   A    
C16   H30   S    
C102  O3    A    
C24   C26   A    
C57   N5    A    
C50   S2    S    
C69   C70   A    
Cr3   O23   S    
C62   H13   S    
C107  H31   S    
C86   C88   A    
C105  O5    A    
O30   S4    D    
C106  C107  S    
C44   H6    S    
C15   C16   A    
C30   C100  S    
C1    C31   S    
C61   O34   A    
H61   O29   S    
Cr6   O9    S    
C60   C62   A    
C18   C19   A    
C77   H17   S    
C104  O9    A    
C13   O15   A    
C22   N1    A    
Cr2   O19   S    
C3    H39   S    
O38   S6    D    
C24   C29   A    
C72   C78   A    
C106  H35   S    
C103  O6    A    
C61   C66   S    
H68   O32   S    
C74   H14   S    
C95   C96   T    
O21   S1    D    
C68   C69   A    
Cr4   O42   S    
C91   H19   S    
C49   O12   A    
H43   O26   S    
C41   C46   A    
C31   C33   A    
C70   C71   A    
C11   H63   S    
C104  O8    A    
C36   H4    S    
C37   O18   A    
C11   H62   S    
O32   S4    S    
C44   C47   A    
C87   C98   A    
Cr4   O41   S    
C34   H3    S    
C48   C50   A    
C66   C67   A    
C7    H51   S    
C47   C102  S    
Cr6   O2    S    
C27   C30   A    
Cr3   O34   S    
C65   H1    S    
C13   O14   A    
C22   N10   A    
Cr2   O12   S    
C34   C35   A    
C1    O4    A    
C21   C32   A    
C25   O16   A    
C90   C94   A    
C56   N4    A    
C53   C55   A    
O27   S3    D    
C15   C20   A    
C99   C105  S    
O22   S1    S    
C6    H54   S    
C4    H49   S    
Cr3   O40   S    
C51   C52   A    
C90   H20   S    
C6    C60   S    
C56   N7    A    
C17   H34   S    
C85   C97   A    
C57   N6    A    
C72   C74   A    
C52   C57   S    
C107  H32   S    
O24   S2    D    
C8    H59   S    
C16   C17   A    
C14   C101  S    
C68   S4    S    
C58   C59   A    
C77   C78   A    
C12   C21   S    
C3    H40   S    
N9    N10   A    
O39   S6    S    
N2    N3    A    
C35   C36   A    
C14   C76   A    
Cr5   O7    S    
C38   C106  S    
C67   C68   A    
C27   H67   S    
C20   H12   S    
C62   C63   A    
C25   O1    A    
Cr5   O8    S    
Cr6   O3    S    
O36   S5    S    
O29   S3    S    
C21   C97   A    
C66   C71   A    
C108  H42   S    
O25   S2    D    
C5    H46   S    
O28   S3    D    
Cr2   O40   S    
C33   C34   A    
C3    H38   S    
C56   C63   S    
C94   C95   S    
C50   C51   A    
C11   H64   S    
O20   S1    D    
C41   H5    S    
C101  O44   A    
C75   C77   A    
C76   C87   A    
C73   C85   A    
C33   H72   S    
C86   C96   S    
C58   H11   S    
C39   C46   S    
O31   S4    D    
C42   H2    S    
C48   C49   S    
C7    H52   S    
C13   C73   S    
C5    H44   S    
Cr5   O43   S    
N1    N8    A    
C4    H48   S    
C37   C82   S    
C9    H57   S    
C76   S5    S    
Cr4   O6    S    
C74   C81   A    
C102  O41   A    
C92   H26   S    
H70   O39   S    
C24   H56   S    
C44   C45   A    
C105  O10   A    
C81   C103  S    
C58   C63   A    
C64   C104  S    
C14   C65   A    
C6    H53   S    
Cr1   O4    S    
C107  H33   S    
C49   O23   A    
C10   C43   S    
C78   C79   S    
Cr1   O18   S    
C8    C70   S    
Cr2   O14   S    
C9    H58   S    
C103  O7    A    
C88   H21   S    
C84   C86   A    
C4    C5    S    
Cr1   O17   S    
Cr3   O15   S    
C85   H28   S    
Cr5   O44   S    
C45   C108  S    
C31   C38   A    
C26   C30   A    
C6    C7    S    
C40   N2    A    
C75   C81   A    
C3    C108  S    
C7    H50   S    
O26   S2    S    
C75   H18   S    
C17   C18   A    
C60   C64   A    
C10   H66   S    
C54   S1    S    
C19   C20   A    
C36   C38   A    
C35   C40   S    
C19   H45   S    
C28   H71   S    
N6    N7    A    
C71   H16   S    
O35   S5    D    
C67   S3    S    
C90   C91   A    
C108  H41   S    
C40   N12   A    
C84   H27   S    
C59   H8    S    
C18   C23   S    
C39   N3    A    
C23   N8    A    
C92   C93   A    
C32   C43   A    
Cr6   O10   S    
C100  O42   A    
C8    H60   S    
C42   C47   A    
C39   N11   A    
N11   N12   A    
Cr1   O1    S    
C10   C11   S    
H69   O36   S    
Cr5   O11   S    
C79   C80   T    
C45   C46   A    
Cr4   O11   S    
C87   H29   S    
C88   C89   A    
C2    C98   S    
C15   C25   S    
C82   C83   A    
C23   N9    A    
C27   C28   A    
C89   H22   S    
H37   O22   S    
C54   C98   A    
C69   C80   S    
C61   O17   A    
Cr4   O5    S    
C91   C99   A    
C83   H24   S    
C100  O43   A    
C92   C99   A    
C5    H47   S    
