data_mof_unit_pretest_1062.cif
_audit_creation_date              2012-12-10T17:37:18-0500
_audit_creation_method            fapswitch 2.2
_symmetry_space_group_name_H-M    P1
_symmetry_Int_Tables_number       1
_space_group_crystal_system       triclinic
_cell_length_a                    12.335787
_cell_length_b                    13.141269
_cell_length_c                    15.824854
_cell_angle_alpha                 78.375998
_cell_angle_beta                  101.261731
_cell_angle_gamma                 116.492614
_cell_volume                      2232.54793515

loop_
_atom_site_label
_atom_site_type_symbol
_atom_type_description
_atom_site_fract_x
_atom_site_fract_y
_atom_site_fract_z
_atom_type_partial_charge
C1    C     C_R   0.854824 0.286212 0.508575 0.843441
C2    C     C_3   0.001657 0.504320 0.916795 0.188106
C3    C     C_3   0.084516 0.608664 0.021699 -0.164998
C4    C     C_3   0.004707 0.506889 0.082262 0.188035
C5    C     C_3   0.971437 0.587606 0.952618 -0.168276
C6    C     C_3   0.891629 0.485848 0.014777 -0.145106
C7    C     C_1   0.000406 0.502572 0.825133 -0.082715
C8    C     C_1   0.005890 0.507306 0.174158 -0.056755
C9    C     C_R   0.273753 0.026164 0.403277 -0.165815
C10   C     C_R   0.227383 0.835651 0.479119 -0.044421
C11   C     C_R   0.812952 0.091241 0.581894 -0.250866
C12   C     C_R   0.999657 0.500039 0.659949 0.819384
C13   C     C_R   0.730993 0.982687 0.613349 0.481704
C14   C     C_R   0.606383 0.948679 0.585920 -0.258950
C15   C     C_R   0.564003 0.014410 0.517165 -0.009064
C16   C     C_R   0.650148 0.119689 0.479049 -0.038552
C17   C     C_R   0.438230 0.979370 0.486270 0.040505
C18   C     C_R   0.399257 0.054461 0.424488 0.010766
C19   C     C_R   0.485682 0.150201 0.379100 0.374656
C20   C     C_R   0.610226 0.177544 0.402745 0.094482
C21   C     C_R   0.350365 0.869039 0.511134 -0.211174
C22   C     C_R   0.188079 0.916740 0.430019 -0.214010
C23   C     C_R   0.144973 0.713536 0.489837 0.780705
C24   C     C_R   0.773199 0.162763 0.518501 -0.129702
C25   C     C_R   0.346111 0.327510 0.635978 -0.296988
C26   C     C_R   0.759949 0.646279 0.384611 0.093199
C27   C     C_R   0.663959 0.678685 0.360007 -0.257095
C28   C     C_R   0.560483 0.623645 0.403423 -0.190775
C29   C     C_R   0.551695 0.534944 0.472570 0.002315
C30   C     C_R   0.652892 0.505043 0.495783 0.295423
C31   C     C_R   0.447091 0.475264 0.519722 -0.036189
C32   C     C_R   0.446290 0.387450 0.588649 0.169765
C33   C     C_R   0.545647 0.360100 0.610453 -0.284473
C34   C     C_R   0.002955 0.503761 0.339877 0.852656
C35   C     C_R   0.646661 0.417936 0.565561 -0.181957
C36   C     C_R   0.342332 0.498278 0.501888 0.024293
C37   C     C_R   0.246464 0.354389 0.615247 0.077593
C38   C     C_3   0.034861 0.423622 0.046379 -0.150050
C39   C     C_3   0.921812 0.402579 0.977364 -0.155097
C40   C     C_1   0.999739 0.501238 0.749576 -0.176230
C41   C     C_1   0.005518 0.506373 0.249951 -0.147454
C42   C     C_3   0.114686 0.525362 0.984285 -0.154330
Cu1   Cu    Cu3+1 0.098270 0.475420 0.519690 0.940768
Cu2   Cu    Cu3+1 0.901730 0.524580 0.480310 0.943185
H1    H     H_    0.854986 0.318033 0.957743 0.133598
H2    H     H_    0.376424 0.804330 0.549911 0.145145
H3    H     H_    0.907006 0.122243 0.611516 0.165766
H4    H     H_    0.545091 0.872664 0.621884 0.133315
H5    H     H_    0.168771 0.308280 0.651449 0.123922
H6    H     H_    0.545935 0.293571 0.663567 0.155821
H7    H     H_    0.344950 0.260257 0.688760 0.138883
H8    H     H_    0.334880 0.563259 0.450529 0.122849
H9    H     H_    0.839903 0.689673 0.350590 0.121587
H10   H     H_    0.060990 0.356400 0.086262 0.135193
H11   H     H_    0.489092 0.652342 0.381657 0.134597
H12   H     H_    0.669810 0.746804 0.307080 0.144596
H13   H     H_    0.718507 0.391939 0.589014 0.205785
H14   H     H_    0.800116 0.469621 0.028756 0.140900
H15   H     H_    0.945344 0.654839 0.912704 0.133475
H16   H     H_    0.151302 0.693218 0.041327 0.129519
H17   H     H_    0.206185 0.541500 0.970354 0.132519
H18   H     H_    0.092431 0.893314 0.406942 0.149257
H19   H     H_    0.241643 0.085655 0.361383 0.167962
N1    N     N_R   0.246280 0.438200 0.549540 -0.180753
N2    N     N_R   0.754330 0.561180 0.450980 -0.202193
O1    O     O_R   0.972510 0.318130 0.524770 -0.583845
O2    O     O_R   0.806530 0.359650 0.491510 -0.574478
O3    O     O_R   0.082970 0.479240 0.637550 -0.577067
O4    O     O_R   0.916990 0.520750 0.604290 -0.607479
O5    O     O_R   0.193470 0.640350 0.508490 -0.593391
O6    O     O_R   0.027490 0.681870 0.475230 -0.595022
O7    O     O_R   0.083010 0.479250 0.395710 -0.577294
O8    O     O_R   0.917030 0.520760 0.362450 -0.556971
O9    O     O_3   0.772354 0.919071 0.681191 -0.614132
C43   C     C_3   0.747279 0.812659 0.656117 0.055412
H20   H     H_    0.790916 0.826122 0.596900 0.145787
H21   H     H_    0.647276 0.760153 0.643005 0.138695
C44   C     C_3   0.798734 0.745887 0.730037 -0.337682
H22   H     H_    0.899467 0.794249 0.742030 0.221342
H23   H     H_    0.759464 0.735783 0.790370 0.225009
C45   C     C_3   0.768273 0.627455 0.708337 -0.904225
H24   H     H_    0.667848 0.577220 0.697134 0.259882
H25   H     H_    0.805673 0.580531 0.763299 0.258513
H26   H     H_    0.808943 0.635805 0.649230 0.277114
I1    I     I_    0.726174 0.273929 0.304417 -0.394015
O10   O     O_3   0.449816 0.216329 0.309750 -0.589591
C46   C     C_3   0.412035 0.160715 0.234268 0.064733
H27   H     H_    0.319376 0.089436 0.237040 0.130814
H28   H     H_    0.475454 0.124896 0.226041 0.154618
C47   C     C_3   0.407903 0.247534 0.154781 -0.291963
H29   H     H_    0.343059 0.282336 0.161193 0.217955
H30   H     H_    0.499969 0.319803 0.151270 0.240267
C48   C     C_3   0.367731 0.192951 0.070967 -0.949082
H31   H     H_    0.275002 0.121494 0.072452 0.255412
H32   H     H_    0.432810 0.159703 0.062312 0.261342
H33   H     H_    0.365458 0.258202 0.014697 0.257659

loop_
_geom_bond_atom_site_label_1
_geom_bond_atom_site_label_2
_ccdc_geom_bond_type
C46   H27   S    
C3    C42   S    
C48   H31   S    
C11   C13   A    
C6    H14   S    
C11   H3    S    
C19   C20   A    
C4    C8    S    
C19   O10   S    
C45   H26   S    
C45   H24   S    
C10   C22   A    
C12   O3    A    
C26   C27   A    
Cu1   O7    S    
C30   C35   A    
C28   C29   A    
C38   C42   S    
C31   C36   A    
C5    C6    S    
C44   H23   S    
C9    C22   A    
C15   C16   A    
C11   C24   A    
Cu2   O6    S    
C18   C19   A    
C43   H20   S    
C25   C37   A    
C2    C39   S    
C2    C7    S    
Cu1   O3    S    
C7    C40   T    
C36   H8    S    
C39   H1    S    
C3    H16   S    
C25   C32   A    
C16   C24   A    
C9    H19   S    
C13   C14   A    
C23   O5    A    
Cu2   N2    S    
C34   C41   S    
C45   H25   S    
C28   H11   S    
Cu1   N1    S    
C1    O1    A    
C10   C21   A    
O9    C43   S    
C5    H15   S    
C23   O6    A    
C8    C41   T    
C4    C6    S    
C27   H12   S    
C14   H4    S    
C33   H6    S    
C17   C21   A    
C12   C40   S    
Cu1   Cu2   S    
C25   H7    S    
C29   C30   A    
C22   H18   S    
C37   H5    S    
C47   H30   S    
C31   C32   A    
C38   H10   S    
C16   C20   A    
C20   I1    S    
C17   C18   A    
Cu2   O4    S    
C43   H21   S    
C42   H17   S    
C12   O4    A    
C4    C38   S    
C48   H33   S    
C46   H28   S    
C2    C5    S    
C3    C4    S    
C26   H9    S    
C34   O7    A    
C37   N1    A    
O10   C46   S    
C47   C48   S    
C21   H2    S    
C15   C17   A    
C14   C15   A    
C26   N2    A    
C3    C5    S    
C1    O2    A    
C10   C23   S    
Cu1   O5    S    
C35   H13   S    
C32   C33   A    
C29   C31   A    
C44   H22   S    
C44   C45   S    
C47   H29   S    
C38   C39   S    
C2    C42   S    
Cu1   O1    S    
C33   C35   A    
Cu2   O8    S    
C43   C44   S    
C30   N2    A    
C34   O8    A    
C9    C18   A    
C13   O9    S    
C1    C24   S    
C48   H32   S    
C46   C47   S    
C27   C28   A    
C6    C39   S    
Cu2   O2    S    
C36   N1    A    
