data_mof_unit_pretest_1551.cif
_audit_creation_date              2012-12-10T21:09:10-0500
_audit_creation_method            fapswitch 2.2
_symmetry_space_group_name_H-M    P1
_symmetry_Int_Tables_number       1
_space_group_crystal_system       triclinic
_cell_length_a                    10.893193
_cell_length_b                    17.611122
_cell_length_c                    16.848229
_cell_angle_alpha                 89.497446
_cell_angle_beta                  103.978608
_cell_angle_gamma                 91.400367
_cell_volume                      3135.5185105

loop_
_atom_site_label
_atom_site_type_symbol
_atom_type_description
_atom_site_fract_x
_atom_site_fract_y
_atom_site_fract_z
_atom_type_partial_charge
C1    C     C_R   0.502865 0.353425 0.500970 0.924000
C2    C     C_R   0.497153 0.646575 0.499032 0.923687
C3    C     C_R   0.495933 0.886423 0.499231 0.075854
C4    C     C_R   0.504737 0.113586 0.500791 0.075849
C5    C     C_1   0.499048 0.966322 0.499838 -0.012050
C6    C     C_1   0.501743 0.033687 0.500196 -0.012054
C7    C     C_R   0.417529 0.451977 0.820292 -0.168285
C8    C     C_R   0.582385 0.548068 0.179690 -0.168186
C9    C     C_R   0.419179 0.452381 0.736380 0.482934
C10   C     C_R   0.580735 0.547667 0.263602 0.482904
C11   C     C_R   0.582698 0.546828 0.760402 0.004629
C12   C     C_R   0.417366 0.453129 0.239611 0.004631
C13   C     C_R   0.584212 0.548138 0.845067 -0.110577
C14   C     C_R   0.415862 0.451807 0.154948 -0.110596
C15   C     C_R   0.500479 0.500355 0.875836 -0.013644
C16   C     C_R   0.499521 0.499634 0.124163 -0.013655
C17   C     C_1   0.500276 0.500201 0.963696 0.019963
C18   C     C_1   0.499723 0.499784 0.036303 0.019953
C19   C     C_R   0.259219 0.500077 0.466053 0.966815
C20   C     C_R   0.740792 0.500074 0.533947 0.966692
C21   C     C_2   0.123532 0.499909 0.446554 -0.325592
C22   C     C_2   0.876507 0.500851 0.553442 -0.325904
C23   C     C_2   0.067305 0.502022 0.508174 -0.118806
C24   C     C_2   0.932773 0.499787 0.491793 -0.118458
C25   C     C_R   0.542956 0.847055 0.571707 -0.139402
C26   C     C_R   0.457623 0.152929 0.428312 -0.139385
C27   C     C_R   0.541346 0.768462 0.570930 -0.235464
C28   C     C_R   0.458988 0.231520 0.429087 -0.235409
C29   C     C_R   0.493444 0.729076 0.497474 -0.129698
C30   C     C_R   0.506733 0.270928 0.502547 -0.129808
C31   C     C_R   0.443423 0.769656 0.424407 0.406143
C32   C     C_R   0.556837 0.230375 0.575621 0.406031
C33   C     C_R   0.445702 0.848477 0.426048 -0.182630
C34   C     C_R   0.554805 0.151556 0.573980 -0.182615
H1    H     H_    0.879574 0.497236 0.428221 0.212215
H2    H     H_    0.120534 0.505014 0.571722 0.211370
H3    H     H_    0.929988 0.502888 0.616920 0.167526
H4    H     H_    0.070028 0.497402 0.383099 0.167304
H5    H     H_    0.581264 0.877068 0.628525 0.158544
H6    H     H_    0.419418 0.122898 0.371492 0.158540
H7    H     H_    0.578983 0.738610 0.627660 0.185046
H8    H     H_    0.421292 0.261350 0.372352 0.185035
H9    H     H_    0.407857 0.880173 0.370397 0.176740
H10   H     H_    0.592697 0.119879 0.629638 0.176747
N1    N     N_R   0.500030 0.500030 0.707240 -0.143253
N2    N     N_R   0.499970 0.499970 0.292760 -0.143188
O1    O     O_R   0.500000 0.389130 0.566570 -0.521390
O2    O     O_R   0.500000 0.610870 0.433430 -0.521409
O3    O     O_R   0.499990 0.389100 0.433480 -0.648273
O4    O     O_R   0.500010 0.610900 0.566520 -0.648439
O5    O     O_R   0.317810 0.500010 0.541690 -0.592728
O6    O     O_R   0.682190 0.499990 0.458310 -0.592930
O7    O     O_R   0.317800 0.499990 0.408610 -0.611583
O8    O     O_R   0.682200 0.500010 0.591390 -0.611505
Zn1   Zn    Zn3+2 0.500010 0.500020 0.588860 1.034548
Zn2   Zn    Zn3+2 0.499990 0.499980 0.411140 1.034528
C35   C     C_1   0.672240 0.598256 0.900003 0.201210
N3    N     N_1   0.742744 0.638383 0.943598 -0.158368
C36   C     C_1   0.327919 0.401633 0.100029 0.201207
N4    N     N_1   0.257486 0.361459 0.056448 -0.158352
Cl1   Cl    Cl    0.371727 0.725583 0.330426 -0.550936
Cl2   Cl    Cl    0.628333 0.274482 0.669616 -0.550972
C37   C     C_1   0.330576 0.401377 0.848847 0.294714
N5    N     N_1   0.260864 0.360817 0.871371 -0.136013
C38   C     C_1   0.669241 0.598726 0.151116 0.294718
N6    N     N_1   0.738874 0.639333 0.128578 -0.136029
Cl3   Cl    Cl    0.317106 0.389081 0.669415 -0.560825
Cl4   Cl    Cl    0.682674 0.611049 0.330540 -0.561585
C39   C     C_1   0.671458 0.594110 0.730052 0.261962
N7    N     N_1   0.743536 0.632007 0.706492 -0.212041
C40   C     C_1   0.328643 0.405824 0.269971 0.261977
N8    N     N_1   0.256595 0.367910 0.293539 -0.211977

loop_
_geom_bond_atom_site_label_1
_geom_bond_atom_site_label_2
_ccdc_geom_bond_type
C10   N2    A    
C4    C26   A    
C23   C24   S    
C9    Cl3   S    
C36   N4    T    
C9    N1    A    
C14   C16   A    
C10   Cl4   S    
C25   C27   A    
O3    Zn2   S    
C27   H7    S    
C26   C28   A    
O4    Zn1   S    
C3    C25   A    
C20   O6    A    
C26   H6    S    
C7    C9    A    
C19   O7    A    
C7    C15   A    
C17   C18   T    
O1    Zn1   S    
C32   Cl2   S    
C8    C38   S    
C29   C31   A    
C25   H5    S    
C30   C32   A    
C14   C36   S    
C11   C13   A    
C7    C37   S    
C35   N3    T    
C39   N7    T    
C2    C29   S    
C5    C6    T    
C20   O8    A    
C1    C30   S    
C19   C21   S    
C12   C40   S    
C12   C14   A    
C38   N6    T    
O5    Zn1   S    
C13   C15   A    
C4    C34   A    
C11   C39   S    
C22   C24   D    
C11   N1    A    
C4    C6    S    
C27   C29   A    
C31   C33   A    
C3    C33   A    
N2    Zn2   S    
C37   N5    T    
C33   H9    S    
C19   O5    A    
C40   N8    T    
C13   C35   S    
N1    Zn1   S    
C16   C18   S    
C23   H2    S    
C8    C16   A    
O7    Zn2   S    
C28   H8    S    
O2    Zn2   S    
C34   H10   S    
C31   Cl1   S    
O8    Zn1   S    
C1    O1    A    
C2    O4    A    
C2    O2    A    
C24   H1    S    
C15   C17   S    
C22   H3    S    
C1    O3    A    
C21   C23   D    
C8    C10   A    
C21   H4    S    
O6    Zn2   S    
C20   C22   S    
C28   C30   A    
C3    C5    S    
C12   N2    A    
C32   C34   A    
