data_mof_unit_pretest_1658.cif
_audit_creation_date              2013-03-05T15:48:15-0500
_audit_creation_method            fapswitch 2.2
_symmetry_space_group_name_H-M    P1
_symmetry_Int_Tables_number       1
_space_group_crystal_system       triclinic
_cell_length_a                    21.772343
_cell_length_b                    21.772343
_cell_length_c                    29.043339
_cell_angle_alpha                 89.999981
_cell_angle_beta                  90.000011
_cell_angle_gamma                 90.000069
_cell_volume                      13767.556871

loop_
_atom_site_label
_atom_site_type_symbol
_atom_site_description
_atom_site_fract_x
_atom_site_fract_y
_atom_site_fract_z
_atom_type_partial_charge
O1    O     O_R   0.551720 0.091610 0.499990 -0.604757
O2    O     O_R   0.908390 0.551720 0.499990 -0.604756
O3    O     O_R   0.448280 0.908390 0.499990 -0.604757
O4    O     O_R   0.091610 0.448280 0.499990 -0.604757
O5    O     O_R   0.551720 0.908390 0.500010 -0.604756
O6    O     O_R   0.908390 0.448280 0.500010 -0.604757
O7    O     O_R   0.448280 0.091610 0.500010 -0.604757
O8    O     O_R   0.091610 0.551720 0.500010 -0.604757
O9    O     O_R   0.051720 0.591610 0.999990 -0.604757
O10   O     O_R   0.408390 0.051720 0.999990 -0.604756
O11   O     O_R   0.948280 0.408390 0.999990 -0.604757
O12   O     O_R   0.591610 0.948280 0.999990 -0.604757
O13   O     O_R   0.051720 0.408390 0.000010 -0.604756
O14   O     O_R   0.408390 0.948280 0.000010 -0.604757
O15   O     O_R   0.948280 0.591610 0.000010 -0.604757
O16   O     O_R   0.591610 0.051720 0.000010 -0.604757
C1    C     C_R   0.500000 0.119299 0.500000 0.858019
C2    C     C_R   0.880701 0.500000 0.500000 0.858019
C3    C     C_R   0.500000 0.880701 0.500000 0.858019
C4    C     C_R   0.119299 0.500000 0.500000 0.858019
C5    C     C_R   1.000000 0.619299 1.000000 0.858019
C6    C     C_R   0.380701 1.000000 1.000000 0.858019
C7    C     C_R   1.000000 0.380701 1.000000 0.858020
C8    C     C_R   0.619299 0.000000 0.000000 0.858019
O17   O     O_R   0.551720 0.000010 0.436860 -0.594579
O18   O     O_R   0.999990 0.551720 0.436860 -0.594579
O19   O     O_R   0.448280 0.999990 0.436860 -0.594579
O20   O     O_R   0.000010 0.448280 0.436860 -0.594579
O21   O     O_R   0.551720 0.999990 0.563140 -0.594579
O22   O     O_R   0.999990 0.448280 0.563140 -0.594579
O23   O     O_R   0.448280 0.000010 0.563140 -0.594580
O24   O     O_R   0.000010 0.551720 0.563140 -0.594579
O25   O     O_R   0.051720 0.500010 0.936860 -0.594579
O26   O     O_R   0.499990 0.051720 0.936860 -0.594579
O27   O     O_R   0.948280 0.499990 0.936860 -0.594579
O28   O     O_R   0.500010 0.948280 0.936860 -0.594580
O29   O     O_R   0.051720 0.499990 0.063140 -0.594579
O30   O     O_R   0.499990 0.948280 0.063140 -0.594579
O31   O     O_R   0.948280 0.500010 0.063140 -0.594579
O32   O     O_R   0.500010 0.051720 0.063140 -0.594579
C9    C     C_R   0.500000 0.000000 0.414331 0.843147
C10   C     C_R   0.000000 0.500000 0.414331 0.843147
C11   C     C_R   0.500000 1.000000 0.585669 0.843147
C12   C     C_R   0.000000 0.500000 0.585669 0.843147
C13   C     C_R   0.000000 0.500000 0.914331 0.843147
C14   C     C_R   0.500000 0.000000 0.914331 0.843147
C15   C     C_R   1.000000 0.500000 0.085669 0.843147
C16   C     C_R   0.500000 0.000000 0.085669 0.843147
Zn1   Zn    Zn3+2 0.569070 0.000000 0.500000 1.004096
Zn2   Zn    Zn3+2 1.000000 0.569070 0.500000 1.004096
Zn3   Zn    Zn3+2 0.430930 0.000000 0.500000 1.004096
Zn4   Zn    Zn3+2 0.000000 0.430930 0.500000 1.004096
Zn5   Zn    Zn3+2 0.069070 0.500000 0.000000 1.004096
Zn6   Zn    Zn3+2 0.500000 0.069070 0.000000 1.004096
Zn7   Zn    Zn3+2 0.930930 0.500000 0.000000 1.004096
Zn8   Zn    Zn3+2 0.500000 0.930930 0.000000 1.004096
C17   C     C_1   0.500000 0.000000 0.363509 -0.196866
C18   C     C_1   1.000000 0.500000 0.363509 -0.196866
C19   C     C_1   0.500000 0.000000 0.636491 -0.196866
C20   C     C_1   0.000000 0.500000 0.636491 -0.196866
C21   C     C_1   1.000000 0.500000 0.863509 -0.196866
C22   C     C_1   0.500000 0.000000 0.863509 -0.196866
C23   C     C_1   1.000000 0.500000 0.136491 -0.196866
C24   C     C_1   0.500000 1.000000 0.136491 -0.196866
C25   C     C_1   0.500000 1.000000 0.321158 0.005153
C26   C     C_1   0.000000 0.500000 0.321158 0.005153
C27   C     C_1   0.500000 0.000000 0.678842 0.005153
C28   C     C_1   0.000000 0.500000 0.678842 0.005153
C29   C     C_1   1.000000 0.500000 0.821158 0.005153
C30   C     C_1   0.500000 0.000000 0.821158 0.005153
C31   C     C_1   1.000000 0.500000 0.178842 0.005153
C32   C     C_1   0.500000 1.000000 0.178842 0.005153
C33   C     C_1   0.500000 1.000000 0.271177 0.011947
C34   C     C_1   0.000000 0.500000 0.271177 0.011947
C35   C     C_1   0.500000 0.000000 0.728823 0.011947
C36   C     C_1   1.000000 0.500000 0.728823 0.011947
C37   C     C_1   1.000000 0.500000 0.771177 0.011947
C38   C     C_1   0.500000 0.000000 0.771177 0.011947
C39   C     C_1   0.000000 0.500000 0.228823 0.011947
C40   C     C_1   0.500000 1.000000 0.228823 0.011947
H1    H     H_    0.528079 0.189090 0.656779 0.165744
H2    H     H_    0.810911 0.528086 0.656779 0.165744
H3    H     H_    0.471919 0.810910 0.656779 0.165744
H4    H     H_    0.189089 0.471915 0.656779 0.165744
H5    H     H_    0.528077 0.810911 0.343221 0.165744
H6    H     H_    0.810911 0.471914 0.343221 0.165744
H7    H     H_    0.471924 0.189089 0.343221 0.165744
H8    H     H_    0.189088 0.528085 0.343221 0.165744
H9    H     H_    0.028080 0.689089 0.156779 0.165744
H10   H     H_    0.310911 0.028080 0.156779 0.165744
H11   H     H_    0.971920 0.310910 0.156779 0.165744
H12   H     H_    0.689089 0.971923 0.156779 0.165744
H13   H     H_    0.028080 0.310911 0.843221 0.165744
H14   H     H_    0.310910 0.971917 0.843221 0.165744
H15   H     H_    0.971919 0.689090 0.843221 0.165744
H16   H     H_    0.689090 0.028078 0.843221 0.165744
C41   C     C_R   0.489177 0.183726 0.415816 -0.137905
C42   C     C_R   0.816274 0.489172 0.415816 -0.137905
C43   C     C_R   0.510824 0.816274 0.415816 -0.137906
C44   C     C_R   0.183726 0.510828 0.415816 -0.137904
C45   C     C_R   0.489175 0.816273 0.584184 -0.137906
C46   C     C_R   0.816274 0.510828 0.584184 -0.137905
C47   C     C_R   0.510825 0.183727 0.584184 -0.137906
C48   C     C_R   0.183727 0.489172 0.584184 -0.137905
C49   C     C_R   0.989175 0.683727 0.915816 -0.137906
C50   C     C_R   0.316273 0.989174 0.915816 -0.137906
C51   C     C_R   0.010825 0.316273 0.915816 -0.137905
C52   C     C_R   0.683726 0.010824 0.915816 -0.137906
C53   C     C_R   0.989175 0.316274 0.084184 -0.137905
C54   C     C_R   0.316274 0.010825 0.084184 -0.137906
C55   C     C_R   0.010825 0.683726 0.084184 -0.137906
C56   C     C_R   0.683726 0.989176 0.084184 -0.137906
C57   C     C_R   0.472790 0.213791 0.375567 -0.188215
C58   C     C_R   0.786209 0.472783 0.375568 -0.188215
C59   C     C_R   0.527211 0.786209 0.375567 -0.188215
C60   C     C_R   0.213791 0.527217 0.375568 -0.188215
C61   C     C_R   0.472786 0.786208 0.624432 -0.188214
C62   C     C_R   0.786208 0.527217 0.624432 -0.188215
C63   C     C_R   0.527212 0.213792 0.624432 -0.188214
C64   C     C_R   0.213792 0.472783 0.624432 -0.188215
C65   C     C_R   0.972786 0.713792 0.875568 -0.188215
C66   C     C_R   0.286208 0.972785 0.875568 -0.188214
C67   C     C_R   0.027213 0.286208 0.875568 -0.188215
C68   C     C_R   0.713792 0.027211 0.875568 -0.188215
C69   C     C_R   0.972787 0.286208 0.124432 -0.188215
C70   C     C_R   0.286209 0.027213 0.124432 -0.188216
C71   C     C_R   0.027213 0.713791 0.124432 -0.188215
C72   C     C_R   0.713792 0.972789 0.124433 -0.188215
C73   C     C_R   0.452127 0.273892 0.377663 -0.157220
C74   C     C_R   0.726107 0.452120 0.377664 -0.157219
C75   C     C_R   0.547874 0.726108 0.377663 -0.157220
C76   C     C_R   0.273893 0.547879 0.377664 -0.157220
C77   C     C_R   0.452122 0.726107 0.622336 -0.157221
C78   C     C_R   0.726107 0.547880 0.622335 -0.157221
C79   C     C_R   0.547876 0.273893 0.622336 -0.157220
C80   C     C_R   0.273893 0.452120 0.622335 -0.157221
C81   C     C_R   0.952123 0.773893 0.877664 -0.157220
C82   C     C_R   0.226107 0.952121 0.877664 -0.157221
C83   C     C_R   0.047877 0.226107 0.877664 -0.157220
C84   C     C_R   0.773893 0.047875 0.877663 -0.157220
C85   C     C_R   0.952124 0.226107 0.122336 -0.157220
C86   C     C_R   0.226107 0.047876 0.122337 -0.157219
C87   C     C_R   0.047876 0.773893 0.122337 -0.157219
C88   C     C_R   0.773893 0.952126 0.122337 -0.157219
C89   C     C_R   0.451421 0.305751 0.419645 0.358774
C90   C     C_R   0.694249 0.451418 0.419647 0.358775
C91   C     C_R   0.548579 0.694249 0.419646 0.358774
C92   C     C_R   0.305751 0.548582 0.419646 0.358776
C93   C     C_R   0.451418 0.694249 0.580353 0.358772
C94   C     C_R   0.694249 0.548583 0.580353 0.358772
C95   C     C_R   0.548581 0.305751 0.580353 0.358772
C96   C     C_R   0.305751 0.451417 0.580353 0.358772
C97   C     C_R   0.951419 0.805751 0.919647 0.358773
C98   C     C_R   0.194249 0.951418 0.919647 0.358771
C99   C     C_R   0.048581 0.194249 0.919647 0.358772
C100  C     C_R   0.805751 0.048580 0.919646 0.358773
C101  C     C_R   0.951419 0.194249 0.080354 0.358773
C102  C     C_R   0.194249 0.048580 0.080354 0.358773
C103  C     C_R   0.048580 0.805751 0.080354 0.358775
C104  C     C_R   0.805751 0.951421 0.080354 0.358774
C105  C     C_R   0.479953 0.278924 0.459595 -0.014473
C106  C     C_R   0.721076 0.479951 0.459595 -0.014476
C107  C     C_R   0.520047 0.721076 0.459595 -0.014473
C108  C     C_R   0.278924 0.520049 0.459595 -0.014476
C109  C     C_R   0.479951 0.721076 0.540404 -0.014471
C110  C     C_R   0.721076 0.520049 0.540404 -0.014471
C111  C     C_R   0.520049 0.278924 0.540404 -0.014470
C112  C     C_R   0.278924 0.479950 0.540404 -0.014470
C113  C     C_R   0.979951 0.778924 0.959596 -0.014471
C114  C     C_R   0.221076 0.979951 0.959596 -0.014471
C115  C     C_R   0.020048 0.221076 0.959595 -0.014472
C116  C     C_R   0.778924 0.020048 0.959595 -0.014471
C117  C     C_R   0.979951 0.221076 0.040405 -0.014473
C118  C     C_R   0.221076 0.020048 0.040405 -0.014473
C119  C     C_R   0.020048 0.778924 0.040405 -0.014474
C120  C     C_R   0.778924 0.979952 0.040405 -0.014473
C121  C     C_R   0.490735 0.215472 0.458333 0.044833
C122  C     C_R   0.784528 0.490732 0.458333 0.044834
C123  C     C_R   0.509266 0.784528 0.458333 0.044833
C124  C     C_R   0.215472 0.509268 0.458333 0.044833
C125  C     C_R   0.490733 0.784528 0.541667 0.044831
C126  C     C_R   0.784528 0.509268 0.541667 0.044831
C127  C     C_R   0.509266 0.215472 0.541667 0.044830
C128  C     C_R   0.215472 0.490732 0.541667 0.044831
C129  C     C_R   0.990733 0.715472 0.958333 0.044831
C130  C     C_R   0.284528 0.990733 0.958333 0.044831
C131  C     C_R   0.009267 0.284528 0.958333 0.044831
C132  C     C_R   0.715472 0.009266 0.958333 0.044831
C133  C     C_R   0.990733 0.284528 0.041667 0.044832
C134  C     C_R   0.284528 0.009266 0.041667 0.044833
C135  C     C_R   0.009267 0.715472 0.041667 0.044833
C136  C     C_R   0.715472 0.990734 0.041667 0.044832
C137  C     C_R   0.500000 0.311561 0.500000 -0.139157
C138  C     C_R   0.688438 0.500000 0.500000 -0.139162
C139  C     C_R   0.500000 0.688438 0.500000 -0.139158
C140  C     C_R   0.311562 0.500000 0.500000 -0.139161
C141  C     C_R   1.000000 0.811562 0.000000 -0.139160
C142  C     C_R   0.188438 1.000000 0.000000 -0.139159
C143  C     C_R   0.000000 0.188438 0.000000 -0.139159
C144  C     C_R   0.811562 0.000000 0.000000 -0.139159
C145  C     C_R   0.500000 0.184523 0.500000 -0.120910
C146  C     C_R   0.815477 0.500000 0.500000 -0.120910
C147  C     C_R   0.500000 0.815477 0.500000 -0.120910
C148  C     C_R   0.184523 0.500000 0.500000 -0.120910
C149  C     C_R   0.000000 0.684523 0.000000 -0.120910
C150  C     C_R   0.315477 1.000000 0.000000 -0.120910
C151  C     C_R   1.000000 0.315477 0.000000 -0.120910
C152  C     C_R   0.684523 0.000000 0.000000 -0.120910
H17   H     H_    0.500670 0.135502 0.413334 0.132021
H18   H     H_    0.864498 0.500664 0.413334 0.132021
H19   H     H_    0.499331 0.864498 0.413334 0.132021
H20   H     H_    0.135501 0.499336 0.413334 0.132020
H21   H     H_    0.500668 0.864498 0.586666 0.132021
H22   H     H_    0.864498 0.499335 0.586666 0.132021
H23   H     H_    0.499331 0.135502 0.586666 0.132021
H24   H     H_    0.135502 0.500665 0.586666 0.132020
H25   H     H_    0.000668 0.635502 0.913334 0.132021
H26   H     H_    0.364498 0.000667 0.913334 0.132021
H27   H     H_    0.999332 0.364498 0.913334 0.132021
H28   H     H_    0.635502 0.999331 0.913334 0.132021
H29   H     H_    0.000668 0.364498 0.086666 0.132021
H30   H     H_    0.364498 0.999332 0.086666 0.132021
H31   H     H_    0.999332 0.635502 0.086666 0.132021
H32   H     H_    0.635502 0.000670 0.086666 0.132021
H33   H     H_    0.432661 0.294338 0.346965 0.181996
H34   H     H_    0.705661 0.432653 0.346967 0.181994
H35   H     H_    0.567340 0.705662 0.346965 0.181996
H36   H     H_    0.294339 0.567346 0.346966 0.181994
H37   H     H_    0.432656 0.705661 0.653034 0.181998
H38   H     H_    0.705661 0.567348 0.653033 0.181997
H39   H     H_    0.567343 0.294339 0.653034 0.181997
H40   H     H_    0.294339 0.432652 0.653033 0.181997
H41   H     H_    0.932656 0.794339 0.846966 0.181997
H42   H     H_    0.205661 0.932655 0.846967 0.181998
H43   H     H_    0.067343 0.205661 0.846966 0.181997
H44   H     H_    0.794339 0.067341 0.846965 0.181997
H45   H     H_    0.932657 0.205661 0.153034 0.181997
H46   H     H_    0.205662 0.067342 0.153034 0.181996
H47   H     H_    0.067342 0.794339 0.153034 0.181995
H48   H     H_    0.794338 0.932660 0.153035 0.181996
O33   O     O_R   0.591590 0.499990 0.535660 -0.586089
O34   O     O_R   0.500010 0.591590 0.535660 -0.586090
O35   O     O_R   0.408410 0.500010 0.535660 -0.586089
O36   O     O_R   0.499990 0.408410 0.535660 -0.586090
O37   O     O_R   0.591590 0.500010 0.464340 -0.586086
O38   O     O_R   0.500010 0.408410 0.464340 -0.586086
O39   O     O_R   0.408410 0.499990 0.464340 -0.586086
O40   O     O_R   0.499990 0.591590 0.464340 -0.586086
O41   O     O_R   0.091590 0.999990 0.035660 -0.586088
O42   O     O_R   0.000010 0.091590 0.035660 -0.586089
O43   O     O_R   0.908410 0.000010 0.035660 -0.586088
O44   O     O_R   0.999990 0.908410 0.035660 -0.586088
O45   O     O_R   0.091590 0.000010 0.964340 -0.586090
O46   O     O_R   0.000010 0.908410 0.964340 -0.586089
O47   O     O_R   0.908410 0.999990 0.964340 -0.586089
O48   O     O_R   0.999990 0.091590 0.964340 -0.586090
C153  C     C_R   0.621816 0.500000 0.500000 1.020421
C154  C     C_R   0.500000 0.621816 0.500000 1.020425
C155  C     C_R   0.378184 0.500000 0.500000 1.020422
C156  C     C_R   0.500000 0.378184 0.500000 1.020427
C157  C     C_R   0.121816 0.000000 0.000000 1.020426
C158  C     C_R   1.000000 0.121816 0.000000 1.020428
C159  C     C_R   0.878184 1.000000 0.000000 1.020429
C160  C     C_R   0.000000 0.878184 0.000000 1.020425
Zn9   Zn    Zn3+2 0.500000 0.500000 0.547600 1.245601
Zn10  Zn    Zn3+2 0.500000 0.500000 0.452400 1.245619
Zn11  Zn    Zn3+2 0.000000 0.000000 0.047600 1.245612
Zn12  Zn    Zn3+2 0.000000 0.000000 0.952400 1.245603
N1    N     N_R   0.411795 0.358298 0.422322 0.197920
O49   O     O_R   0.408687 0.396728 0.388061 -0.377605
O50   O     O_R   0.370398 0.361081 0.454446 -0.374762
N2    N     N_R   0.641701 0.411793 0.422324 0.197916
O51   O     O_R   0.603268 0.408688 0.388065 -0.377605
O52   O     O_R   0.638920 0.370393 0.454446 -0.374762
N3    N     N_R   0.588205 0.641702 0.422322 0.197920
O53   O     O_R   0.591313 0.603272 0.388062 -0.377605
O54   O     O_R   0.629602 0.638919 0.454446 -0.374762
N4    N     N_R   0.358299 0.588206 0.422324 0.197916
O55   O     O_R   0.396731 0.591311 0.388064 -0.377604
O56   O     O_R   0.361080 0.629606 0.454446 -0.374762
N5    N     N_R   0.411792 0.641702 0.577675 0.197921
O57   O     O_R   0.408679 0.603274 0.611937 -0.377615
O58   O     O_R   0.370400 0.638916 0.545548 -0.374771
N6    N     N_R   0.641702 0.588209 0.577674 0.197920
O59   O     O_R   0.603273 0.591321 0.611936 -0.377615
O60   O     O_R   0.638917 0.629601 0.545548 -0.374769
N7    N     N_R   0.588207 0.358298 0.577676 0.197921
O61   O     O_R   0.591321 0.396726 0.611937 -0.377615
O62   O     O_R   0.629599 0.361083 0.545548 -0.374771
N8    N     N_R   0.358298 0.411791 0.577674 0.197920
O63   O     O_R   0.396727 0.408678 0.611936 -0.377615
O64   O     O_R   0.361083 0.370399 0.545547 -0.374770
N9    N     N_R   0.911792 0.858298 0.922324 0.197921
O65   O     O_R   0.908680 0.896726 0.888063 -0.377614
O66   O     O_R   0.870399 0.861082 0.954451 -0.374768
N10   N     N_R   0.141702 0.911792 0.922325 0.197920
O67   O     O_R   0.103274 0.908678 0.888063 -0.377615
O68   O     O_R   0.138917 0.870400 0.954452 -0.374771
N11   N     N_R   0.088207 0.141702 0.922324 0.197921
O69   O     O_R   0.091320 0.103274 0.888062 -0.377614
O70   O     O_R   0.129600 0.138917 0.954451 -0.374768
N12   N     N_R   0.858298 0.088206 0.922323 0.197921
O71   O     O_R   0.896726 0.091318 0.888062 -0.377613
O72   O     O_R   0.861082 0.129600 0.954449 -0.374767
N13   N     N_R   0.911793 0.141702 0.077676 0.197920
O73   O     O_R   0.908683 0.103273 0.111937 -0.377611
O74   O     O_R   0.870399 0.138918 0.045551 -0.374767
N14   N     N_R   0.141702 0.088206 0.077677 0.197920
O75   O     O_R   0.103272 0.091315 0.111937 -0.377609
O76   O     O_R   0.138919 0.129602 0.045552 -0.374764
N15   N     N_R   0.088206 0.858299 0.077677 0.197919
O77   O     O_R   0.091313 0.896729 0.111937 -0.377607
O78   O     O_R   0.129604 0.861080 0.045554 -0.374762
N16   N     N_R   0.858298 0.911794 0.077677 0.197919
O79   O     O_R   0.896727 0.908685 0.111938 -0.377608
O80   O     O_R   0.861081 0.870399 0.045553 -0.374764

loop_
_geom_bond_atom_site_label_1
_geom_bond_atom_site_label_2
_geom_bond_distance
_ccdc_geom_bond_type
C55   C135  1.415531 A    
C128  C148  1.399726 A    
O48   C158  1.227085 A    
C74   C90   1.402890 A    
O25   C13   1.302362 A    
C61   C77   1.385062 A    
C10   C18   1.476052 S    
O46   Zn12  2.024059 S    
C14   C22   1.476052 S    
C47   C127  1.415529 A    
N6    O59   1.301831 A    
O42   Zn11  2.024057 S    
O18   Zn2   1.872302 S    
C42   C58   1.386437 A    
O47   Zn12  2.024059 S    
C22   C30   1.229997 T    
O34   Zn9   2.024057 S    
O39   Zn10  2.024059 S    
C134  C150  1.399725 A    
C45   H21   1.081769 S    
N2    O51   1.301836 A    
N7    O62   1.298649 A    
O3    C3    1.277282 A    
C88   C104  1.402890 A    
C73   C89   1.402890 A    
C82   C98   1.402893 A    
O48   Zn12  2.024057 S    
C101  N13   1.435020 S    
O34   C154  1.227084 A    
O5    Zn1   2.030020 S    
C52   C68   1.386437 A    
C109  C139  1.439629 A    
C80   C96   1.402892 A    
C46   C126  1.415530 A    
C87   H47   1.082907 S    
C48   H24   1.081768 S    
O17   C9    1.302362 A    
N16   O79   1.301832 A    
C54   C134  1.415531 A    
O44   Zn11  2.024059 S    
C98   N10   1.435022 S    
C3    C147  1.420077 S    
H10   C70   1.082680 S    
C81   C97   1.402891 A    
C71   C87   1.385061 A    
C1    C145  1.420075 S    
C72   C88   1.385060 A    
C84   C100  1.402889 A    
C51   H27   1.081769 S    
H14   C66   1.082682 S    
C85   C101  1.402890 A    
N10   O67   1.301831 A    
O47   C159  1.227085 A    
O26   Zn6   1.872302 S    
C49   H25   1.081770 S    
C34   C39   1.230116 T    
N1    O50   1.298650 A    
C83   H43   1.082905 S    
O33   Zn9   2.024057 S    
H2    C62   1.082681 S    
C105  C121  1.401780 A    
O27   C13   1.302362 A    
O8    Zn2   2.030019 S    
C53   H29   1.081769 S    
O31   C15   1.302362 A    
H9    C71   1.082682 S    
O45   C157  1.227084 A    
O32   C16   1.302362 A    
H1    C63   1.082681 S    
H11   C69   1.082681 S    
C7    C151  1.420075 S    
C52   C132  1.415529 A    
C96   N8    1.435021 S    
O35   Zn9   2.024059 S    
C95   N7    1.435022 S    
C58   C74   1.385061 A    
H3    C61   1.082681 S    
C15   C23   1.476052 S    
O9    C5    1.277284 A    
C89   C105  1.439879 A    
C95   C111  1.439878 A    
O11   C7    1.277282 A    
O19   Zn3   1.872303 S    
O16   Zn6   2.030019 S    
H7    C57   1.082683 S    
C9    C17   1.476052 S    
O4    C4    1.277282 A    
C74   H34   1.082905 S    
C131  C151  1.399728 A    
C93   N5    1.435023 S    
O6    Zn4   2.030021 S    
C57   C73   1.385060 A    
C91   N3    1.435020 S    
O43   C159  1.227082 A    
C29   C37   1.451618 S    
O36   C156  1.227085 A    
C31   C39   1.451618 S    
O21   Zn1   1.872299 S    
C98   C114  1.439877 A    
O23   C11   1.302362 A    
C133  C151  1.399726 A    
C141  C160  1.450519 S    
C94   C110  1.439877 A    
C67   C83   1.385060 A    
C137  C156  1.450519 S    
O13   C7    1.277284 A    
O36   Zn9   2.024059 S    
C65   C81   1.385061 A    
O42   C158  1.227082 A    
O2    Zn2   2.030020 S    
C19   C27   1.229997 T    
C69   C85   1.385059 A    
O7    C1    1.277282 A    
O28   C14   1.302362 A    
O26   C14   1.302362 A    
O29   C15   1.302362 A    
O30   C16   1.302362 A    
C62   C78   1.385060 A    
C11   C19   1.476052 S    
O29   Zn5   1.872299 S    
O46   C160  1.227084 A    
C111  C137  1.439629 A    
C125  C147  1.399725 A    
N14   O76   1.298649 A    
C77   H37   1.082904 S    
N12   O72   1.298647 A    
C130  C150  1.399726 A    
C92   C108  1.439880 A    
C93   C109  1.439877 A    
N5    O58   1.298647 A    
C144  C159  1.450519 S    
C100  C116  1.439879 A    
O15   Zn7   2.030018 S    
C140  C155  1.450519 S    
N9    O65   1.301829 A    
C60   C76   1.385062 A    
C83   C99   1.402892 A    
C50   C66   1.386435 A    
C105  C137  1.439631 A    
C54   C70   1.386437 A    
O40   C154  1.227082 A    
C123  C147  1.399725 A    
O32   Zn6   1.872299 S    
N15   O78   1.298647 A    
C107  C123  1.401783 A    
C121  C145  1.399725 A    
C27   C35   1.451618 S    
C44   C124  1.415530 A    
C45   C125  1.415530 A    
O18   C10   1.302362 A    
C113  C141  1.439630 A    
O22   Zn4   1.872300 S    
C102  N14   1.435021 S    
C110  C138  1.439632 A    
O23   Zn3   1.872300 S    
C102  C118  1.439876 A    
C142  C157  1.450519 S    
C108  C140  1.439632 A    
C28   C36   1.451618 S    
O12   C8    1.277282 A    
O1    C1    1.277284 A    
C138  C153  1.450519 S    
O41   Zn11  2.024057 S    
N6    O60   1.298646 A    
C32   C40   1.451618 S    
C91   C107  1.439879 A    
C92   N4    1.435018 S    
C116  C144  1.439630 A    
C78   H38   1.082905 S    
C106  C122  1.401781 A    
O44   C160  1.227082 A    
O30   Zn8   1.872300 S    
N2    O52   1.298651 A    
C73   H33   1.082905 S    
N4    O55   1.301836 A    
O38   Zn10  2.024059 S    
C81   H41   1.082905 S    
C117  C143  1.439632 A    
C56   H32   1.081769 S    
N3    O53   1.301832 A    
C44   C60   1.386438 A    
C51   C67   1.386438 A    
C100  N12   1.435020 S    
C143  C158  1.450519 S    
O10   C6    1.277284 A    
C90   C106  1.439878 A    
C6    C150  1.420077 S    
C86   C102  1.402891 A    
C76   H36   1.082904 S    
C43   C59   1.386437 A    
C16   C24   1.476052 S    
O2    C2    1.277284 A    
N16   O80   1.298649 A    
C99   N11   1.435021 S    
N8    O63   1.301832 A    
C135  C149  1.399725 A    
C119  C141  1.439630 A    
C46   H22   1.081768 S    
O31   Zn7   1.872300 S    
C110  C126  1.401780 A    
O37   C153  1.227082 A    
C66   C82   1.385062 A    
C108  C124  1.401781 A    
C104  N16   1.435017 S    
H15   C65   1.082682 S    
N10   O68   1.298647 A    
C79   H39   1.082906 S    
N1    O49   1.301833 A    
O21   C11   1.302362 A    
O22   C12   1.302362 A    
C120  C144  1.439630 A    
C96   C112  1.439878 A    
N13   O74   1.298646 A    
O13   Zn5   2.030020 S    
O45   Zn12  2.024056 S    
H5    C59   1.082683 S    
C4    C148  1.420077 S    
O3    Zn3   2.030021 S    
C43   H19   1.081768 S    
C8    C152  1.420075 S    
C63   C79   1.385062 A    
C64   C80   1.385061 A    
C127  C145  1.399727 A    
C94   N6    1.435021 S    
N11   O69   1.301831 A    
C43   C123  1.415528 A    
O28   Zn8   1.872302 S    
C56   C136  1.415530 A    
C42   H18   1.081768 S    
C41   C121  1.415531 A    
N7    O61   1.301829 A    
C107  C139  1.439631 A    
H4    C64   1.082681 S    
C114  C130  1.401781 A    
C2    C146  1.420077 S    
O35   C155  1.227084 A    
C50   C130  1.415531 A    
C41   H17   1.081770 S    
C118  C134  1.401781 A    
C50   H26   1.081769 S    
C82   H42   1.082904 S    
O9    Zn5   2.030019 S    
C54   H30   1.081767 S    
C47   H23   1.081770 S    
O11   Zn7   2.030021 S    
C86   H46   1.082905 S    
C132  C152  1.399727 A    
C126  C146  1.399726 A    
C68   C84   1.385062 A    
C17   C25   1.229997 T    
C124  C148  1.399726 A    
C87   C103  1.402888 A    
O5    C3    1.277284 A    
C45   C61   1.386436 A    
O7    Zn3   2.030018 S    
O14   C6    1.277282 A    
C12   C20   1.476052 S    
C79   C95   1.402889 A    
C13   C21   1.476052 S    
C70   C86   1.385059 A    
O17   Zn1   1.872302 S    
C56   C72   1.386436 A    
O38   C156  1.227082 A    
C52   H28   1.081768 S    
C75   H35   1.082905 S    
C20   C28   1.229997 T    
N13   O73   1.301830 A    
C97   C113  1.439878 A    
C84   H44   1.082905 S    
C101  C117  1.439878 A    
C48   C64   1.386436 A    
C26   C34   1.451618 S    
O14   Zn8   2.030021 S    
N15   O77   1.301833 A    
C30   C38   1.451618 S    
O37   Zn10  2.024056 S    
C59   C75   1.385060 A    
C80   H40   1.082905 S    
C88   H48   1.082906 S    
O8    C4    1.277284 A    
O33   C153  1.227085 A    
O4    Zn4   2.030018 S    
N3    O54   1.298651 A    
C119  C135  1.401782 A    
C120  C136  1.401779 A    
O40   Zn10  2.024057 S    
C5    C149  1.420075 S    
C78   C94   1.402893 A    
C51   C131  1.415529 A    
C25   C33   1.451618 S    
C89   N1    1.435019 S    
C49   C129  1.415531 A    
C115  C143  1.439632 A    
C103  N15   1.435021 S    
C18   C26   1.229997 T    
C111  C127  1.401782 A    
C53   C133  1.415529 A    
C112  C128  1.401781 A    
H13   C67   1.082681 S    
C46   C62   1.386438 A    
O16   C8    1.277284 A    
C103  C119  1.439878 A    
C104  C120  1.439879 A    
H12   C72   1.082681 S    
O25   Zn5   1.872302 S    
O6    C2    1.277282 A    
C118  C142  1.439633 A    
H16   C68   1.082679 S    
O27   Zn7   1.872303 S    
C76   C92   1.402891 A    
C129  C149  1.399726 A    
C77   C93   1.402892 A    
C36   C37   1.230116 T    
C55   H31   1.081768 S    
C97   N9    1.435022 S    
N5    O57   1.301831 A    
C44   H20   1.081769 S    
H8    C60   1.082682 S    
O43   Zn11  2.024059 S    
O19   C9    1.302362 A    
C106  C138  1.439630 A    
O24   C12   1.302362 A    
C49   C65   1.386435 A    
C75   C91   1.402890 A    
N11   O70   1.298646 A    
O24   Zn2   1.872299 S    
O12   Zn8   2.030018 S    
C53   C69   1.386435 A    
C136  C152  1.399727 A    
C122  C146  1.399727 A    
C55   C71   1.386436 A    
N4    O56   1.298651 A    
C139  C154  1.450519 S    
C42   C122  1.415531 A    
C41   C57   1.386434 A    
C114  C142  1.439629 A    
N14   O75   1.301832 A    
C21   C29   1.229997 T    
N12   O71   1.301830 A    
C85   H45   1.082906 S    
C48   C128  1.415533 A    
C47   C63   1.386436 A    
C23   C31   1.229997 T    
O39   C155  1.227082 A    
C115  C131  1.401779 A    
H6    C58   1.082682 S    
C109  C125  1.401779 A    
C90   N2    1.435019 S    
C113  C129  1.401779 A    
N9    O66   1.298645 A    
O20   Zn4   1.872302 S    
C116  C132  1.401781 A    
C117  C133  1.401780 A    
C33   C40   1.230116 T    
N8    O64   1.298648 A    
C24   C32   1.229997 T    
O10   Zn6   2.030020 S    
C35   C38   1.230116 T    
C99   C115  1.439877 A    
O15   C5    1.277282 A    
C112  C140  1.439631 A    
O41   C157  1.227082 A    
O1    Zn1   2.030019 S    
O20   C10   1.302362 A    
