data_mof_unit_pretest_701.cif
_audit_creation_date              2012-12-10T19:46:25-0500
_audit_creation_method            fapswitch 2.2
_symmetry_space_group_name_H-M    P1
_symmetry_Int_Tables_number       1
_space_group_crystal_system       triclinic
_cell_length_a                    10.852987
_cell_length_b                    10.877824
_cell_length_c                    10.466551
_cell_angle_alpha                 88.884263
_cell_angle_beta                  91.034045
_cell_angle_gamma                 89.353557
_cell_volume                      1235.12926434

loop_
_atom_site_label
_atom_site_type_symbol
_atom_type_description
_atom_site_fract_x
_atom_site_fract_y
_atom_site_fract_z
_atom_type_partial_charge
C1    C     C_R   0.488891 0.261690 0.501003 0.824754
C2    C     C_R   0.511937 0.738074 0.498579 0.819788
C3    C     C_R   0.871879 0.495693 0.503221 -0.081488
C4    C     C_R   0.127930 0.504418 0.497201 -0.081590
C5    C     C_R   0.941989 0.453396 0.610489 -0.007047
C6    C     C_R   0.057460 0.547943 0.390708 -0.012180
C7    C     C_R   0.202943 0.200951 0.185325 -0.146330
C8    C     C_R   0.818719 0.815202 0.794947 -0.154113
C9    C     C_R   0.268415 0.142757 0.285738 -0.127498
C10   C     C_R   0.743700 0.870851 0.699998 -0.172254
C11   C     C_R   0.396543 0.125981 0.278490 0.170501
C12   C     C_R   0.615426 0.878316 0.715017 0.165346
C13   C     C_R   0.458600 0.167716 0.170020 -0.024702
C14   C     C_R   0.563093 0.828440 0.825908 -0.039984
C15   C     C_R   0.392891 0.227540 0.070924 -0.102096
C16   C     C_R   0.638726 0.772526 0.920384 -0.107134
C17   C     C_R   0.265325 0.244475 0.078390 -0.145415
C18   C     C_R   0.766210 0.766195 0.905256 -0.089460
C19   C     C_R   0.493726 0.939902 0.380292 -0.053162
C20   C     C_R   0.503095 0.058945 0.616881 -0.059754
C21   C     C_R   0.521304 0.872905 0.494797 -0.173663
C22   C     C_R   0.480202 0.126535 0.502599 -0.158789
C23   C     C_R   0.261563 0.503683 0.498711 0.808341
C24   C     C_R   0.738356 0.496596 0.501332 0.796720
C25   C     C_R   0.538424 0.935181 0.610569 -0.094155
C26   C     C_R   0.464019 0.064876 0.386610 -0.107396
C27   C     C_1   0.500108 0.500554 0.072064 0.065800
C28   C     C_1   0.500022 0.500395 0.927915 0.048770
C29   C     C_R   0.158895 0.793351 0.157520 -0.066491
C30   C     C_R   0.786298 0.228514 0.833476 -0.096920
C31   C     C_R   0.126438 0.734650 0.271834 -0.151459
C32   C     C_R   0.832760 0.282360 0.722248 -0.134445
C33   C     C_R   0.110209 0.606903 0.276205 0.127880
C34   C     C_R   0.887017 0.398775 0.726402 0.137851
C35   C     C_R   0.126919 0.538817 0.165275 -0.112823
C36   C     C_R   0.894300 0.460461 0.842890 -0.137266
C37   C     C_R   0.162926 0.597251 0.052035 -0.167265
C38   C     C_R   0.845663 0.407250 0.953448 -0.160194
C39   C     C_R   0.178550 0.724608 0.048044 -0.120461
C40   C     C_R   0.791688 0.291284 0.948746 -0.106087
C41   C     C_R   0.930241 0.542133 0.394883 -0.238774
C42   C     C_R   0.069436 0.458667 0.606131 -0.234435
Cu1   Cu    Cu3+1 0.500000 0.500000 0.625300 0.997897
Cu2   Cu    Cu3+1 0.500000 0.500000 0.374700 1.005135
H1    H     H_    0.204590 0.770182 0.959889 0.127351
H2    H     H_    0.754992 0.249649 0.034557 0.129742
H3    H     H_    0.557447 0.155543 0.163396 0.111801
H4    H     H_    0.464227 0.831552 0.838058 0.110809
H5    H     H_    0.441442 0.261690 0.988778 0.156605
H6    H     H_    0.598649 0.732697 0.004915 0.154306
H7    H     H_    0.168197 0.892314 0.153672 0.167691
H8    H     H_    0.747434 0.137550 0.830451 0.176589
H9    H     H_    0.110007 0.788977 0.355612 0.119144
H10   H     H_    0.828194 0.232803 0.633541 0.107260
H11   H     H_    0.176179 0.544227 0.966800 0.128216
H12   H     H_    0.850731 0.455447 0.042894 0.131944
H13   H     H_    0.876352 0.577324 0.313503 0.168320
H14   H     H_    0.123253 0.423920 0.687723 0.166006
H15   H     H_    0.214799 0.291566 0.001562 0.119837
H16   H     H_    0.824157 0.722693 0.978707 0.133657
H17   H     H_    0.104083 0.213150 0.190899 0.126441
H18   H     H_    0.917451 0.809661 0.782804 0.131880
H19   H     H_    0.219501 0.110354 0.368949 0.125065
H20   H     H_    0.785421 0.908077 0.614545 0.128841
N1    N     N_1   0.500010 0.499990 0.186410 -0.129305
N2    N     N_1   0.499990 0.500010 0.813590 -0.134885
O1    O     O_R   0.499990 0.319650 0.605810 -0.557051
O2    O     O_R   0.500010 0.680350 0.394190 -0.553779
O3    O     O_R   0.499990 0.319640 0.394190 -0.586478
O4    O     O_R   0.500010 0.680360 0.605810 -0.582527
O5    O     O_R   0.319640 0.500010 0.605810 -0.583468
O6    O     O_R   0.680360 0.499990 0.394190 -0.584317
O7    O     O_R   0.319650 0.500010 0.394190 -0.567116
O8    O     O_R   0.680350 0.499990 0.605810 -0.564584
C43   C     C_2   0.507918 0.884636 0.252678 0.875413
O9    O     O_2   0.605818 0.835659 0.225907 -0.614075
O10   O     O_R   0.411505 0.891401 0.162700 -0.776568
H21   H     H_    0.432544 0.851551 0.079223 0.320290
C44   C     C_2   0.457694 0.107335 0.738805 0.858482
O11   O     O_2   0.516581 0.092715 0.838549 -0.643247
O12   O     O_R   0.342426 0.166222 0.738053 -0.767698
H22   H     H_    0.314351 0.188856 0.825928 0.319178
H23   H     H_    0.109100 0.441368 0.166063 0.124513
H24   H     H_    0.937570 0.549499 0.847812 0.121766

loop_
_geom_bond_atom_site_label_1
_geom_bond_atom_site_label_2
_ccdc_geom_bond_type
C30   C32   A    
C5    C42   A    
C43   O9    D    
C42   H14   S    
O12   H22   S    
C3    C24   S    
O10   H21   S    
C40   H2    S    
C19   C21   A    
C16   H6    S    
C2    O2    A    
C20   C25   A    
C15   C17   A    
C19   C26   A    
C7    H17   S    
C30   H8    S    
C1    O1    A    
C7    C17   A    
C6    C41   A    
C31   C33   A    
C39   H1    S    
Cu1   O8    S    
C1    C22   S    
Cu2   N1    S    
C23   O7    A    
C32   H10   S    
C23   O5    A    
C4    C6    A    
C44   O12   S    
C4    C23   S    
C35   H23   S    
C14   H4    S    
C11   C26   S    
C8    C18   A    
C32   C34   A    
C28   N2    T    
Cu1   Cu2   S    
C27   N1    T    
C43   O10   S    
C29   C31   A    
C5    C34   S    
C29   C39   A    
C2    C21   S    
C30   C40   A    
Cu2   O3    S    
C31   H9    S    
C9    C11   A    
C10   C12   A    
C17   H15   S    
C16   C18   A    
C20   C22   A    
Cu1   O4    S    
C13   C15   A    
C14   C16   A    
Cu2   O2    S    
C24   O6    A    
C13   H3    S    
C29   H7    S    
C18   H16   S    
C7    C9    A    
C21   C25   A    
C3    C41   A    
Cu1   O5    S    
C20   C44   S    
C35   C37   A    
C9    H19   S    
C8    C10   A    
C10   H20   S    
C12   C14   A    
C3    C5    A    
C6    C33   S    
C12   C25   S    
C19   C43   S    
C41   H13   S    
C37   C39   A    
C38   C40   A    
C11   C13   A    
C24   O8    A    
C4    C42   A    
C36   H24   S    
Cu1   N2    S    
C36   C38   A    
C33   C35   A    
Cu2   O6    S    
C34   C36   A    
C15   H5    S    
Cu2   O7    S    
C1    O3    A    
C44   O11   D    
C37   H11   S    
C38   H12   S    
Cu1   O1    S    
C22   C26   A    
C27   C28   S    
C2    O4    A    
C8    H18   S    
