data_mof_unit_pretest_1009.cif
_audit_creation_date              2012-12-11T14:40:20-0500
_audit_creation_method            fapswitch 2.2
_symmetry_space_group_name_H-M    P1
_symmetry_Int_Tables_number       1
_space_group_crystal_system       triclinic
_cell_length_a                    19.672793
_cell_length_b                    10.856089
_cell_length_c                    19.469729
_cell_angle_alpha                 89.906444
_cell_angle_beta                  97.686552
_cell_angle_gamma                 89.405162
_cell_volume                      4120.53836124

loop_
_atom_site_label
_atom_site_type_symbol
_atom_type_description
_atom_site_fract_x
_atom_site_fract_y
_atom_site_fract_z
_atom_type_partial_charge
C1    C     C_R   0.726013 0.950323 0.360252 0.536432
C2    C     C_3   0.245897 0.416604 0.569356 0.052169
C3    C     C_3   0.252659 0.916658 0.429328 0.049305
C4    C     C_3   0.753158 0.895570 0.566345 0.048829
C5    C     C_3   0.754766 0.507652 0.454072 -0.136508
C6    C     C_3   0.229637 0.548726 0.545108 -0.166689
C7    C     C_3   0.228130 0.035878 0.459652 -0.134159
C8    C     C_3   0.782960 0.003581 0.530998 -0.127556
C9    C     C_3   0.817817 0.469670 0.506132 -0.119166
C10   C     C_3   0.171148 0.498781 0.491222 -0.123838
C11   C     C_3   0.300799 0.049206 0.501723 -0.136645
C12   C     C_R   0.292617 0.000679 0.633413 0.559543
C13   C     C_3   0.713647 0.015358 0.483249 -0.098376
C14   C     C_3   0.805161 0.333159 0.488948 0.113093
C15   C     C_3   0.187767 0.366474 0.516275 0.123509
C16   C     C_3   0.324220 0.928264 0.470197 0.108330
C17   C     C_3   0.684750 0.905887 0.519623 0.108536
C18   C     C_3   0.758312 0.321718 0.545816 -0.102568
C19   C     C_3   0.239397 0.350498 0.464306 -0.101954
C20   C     C_3   0.300505 0.852063 0.528943 -0.098850
C21   C     C_3   0.711361 0.814691 0.468921 -0.111871
C22   C     C_3   0.771116 0.457846 0.562251 0.032032
C23   C     C_R   0.206525 0.503517 0.365533 0.553493
C24   C     C_3   0.222287 0.481633 0.439537 0.025918
C25   C     C_3   0.276842 0.972197 0.560005 0.032677
C26   C     C_3   0.740914 0.923110 0.433101 0.038293
C27   C     C_3   0.522128 0.273645 0.969523 -0.124020
C28   C     C_3   0.479378 0.272910 0.030066 -0.126226
C29   C     C_3   0.054069 0.763165 0.965438 -0.142655
C30   C     C_3   0.005236 0.779262 0.020556 -0.121119
C31   C     C_3   0.570590 0.172689 0.004732 -0.157124
C32   C     C_3   0.432933 0.171003 0.995161 -0.162562
C33   C     C_3   0.092275 0.656383 0.007913 -0.159891
C34   C     C_R   0.790960 0.496791 0.632815 0.545288
C35   C     C_3   0.955502 0.684596 0.983474 -0.121953
C36   C     C_3   0.527763 0.172420 0.064714 0.036836
C37   C     C_3   0.475680 0.172133 0.935141 0.037209
C38   C     C_3   0.042912 0.672992 0.062237 0.024573
C39   C     C_3   0.004411 0.668907 0.928777 0.037394
C40   C     C_R   0.535285 0.180504 0.338067 0.554101
C41   C     C_R   0.464757 0.179985 0.661954 0.555069
C42   C     C_R   0.034385 0.680225 0.337471 0.548467
C43   C     C_R   0.964467 0.679775 0.661657 0.540309
C44   C     C_3   0.481669 0.070442 0.030645 0.121080
C45   C     C_3   0.695011 0.360215 0.494022 -0.158642
C46   C     C_3   0.523736 0.071237 0.969333 0.121342
C47   C     C_3   0.993461 0.578424 0.025281 0.121585
C48   C     C_3   0.041734 0.562335 0.969702 0.107137
C49   C     C_1   0.781684 0.476095 0.914697 0.012434
C50   C     C_1   0.237719 0.423521 0.096350 0.012085
C51   C     C_1   0.281741 0.975757 0.914720 0.003078
C52   C     C_1   0.737160 0.924572 0.095978 0.017028
C53   C     C_1   0.756670 0.438990 0.041428 -0.007756
C54   C     C_1   0.254176 0.405215 0.966272 -0.017997
C55   C     C_1   0.256993 0.938857 0.041532 -0.010617
C56   C     C_3   0.297582 0.400817 0.517318 -0.138599
C57   C     C_1   0.753193 0.906667 0.965773 -0.014534
C58   C     C_1   0.769783 0.460500 0.973098 -0.010733
C59   C     C_1   0.247041 0.412647 0.036958 -0.022297
C60   C     C_1   0.270051 0.960165 0.973186 -0.019107
C61   C     C_1   0.746110 0.914102 0.036461 -0.017045
C62   C     C_1   0.746787 0.411653 0.099141 0.016454
C63   C     C_1   0.258546 0.392599 0.905756 0.020916
C64   C     C_1   0.246949 0.911664 0.099210 0.018864
C65   C     C_1   0.757935 0.893714 0.905365 0.024416
C66   C     C_R   0.727923 0.319886 0.369107 0.549264
C67   C     C_3   0.228418 0.840637 0.487537 -0.151257
C68   C     C_R   0.259714 0.365043 0.638690 0.548983
C69   C     C_R   0.240543 0.867772 0.359983 0.555186
C70   C     C_R   0.760219 0.864168 0.638575 0.554301
C71   C     C_R   0.721777 0.952680 0.163733 0.534183
C72   C     C_R   0.295294 0.998062 0.845422 0.535578
C73   C     C_R   0.221889 0.452439 0.163854 0.542226
C74   C     C_R   0.795347 0.498252 0.845413 0.554228
C75   C     C_R   0.558754 0.181665 0.135665 0.558105
C76   C     C_R   0.443249 0.181730 0.864697 0.540489
C77   C     C_R   0.063492 0.682175 0.136821 0.565656
C78   C     C_3   0.780586 0.803617 0.516462 -0.144543
C79   C     C_R   0.972657 0.677991 0.857457 0.554990
C80   C     C_R   0.736229 0.362745 0.165072 0.550616
C81   C     C_R   0.264460 0.359457 0.835988 0.538632
C82   C     C_R   0.236256 0.862764 0.165093 0.544142
C83   C     C_R   0.764319 0.859805 0.835824 0.546483
C84   C     C_1   0.485386 0.173746 0.594620 0.019280
C85   C     C_1   0.514473 0.174647 0.405325 0.025171
C86   C     C_1   0.983949 0.672125 0.593741 0.005054
C87   C     C_1   0.011333 0.672921 0.403819 -0.001475
C88   C     C_1   0.504282 0.173516 0.464762 -0.007001
C89   C     C_3   0.742086 0.371411 0.437774 0.052736
C90   C     C_1   0.495395 0.173040 0.535132 -0.009712
C91   C     C_1   0.000419 0.669973 0.463080 -0.044387
C92   C     C_1   0.992719 0.669460 0.533843 -0.040652
C93   C     C_3   0.707969 0.497489 0.511803 -0.121837
C94   C     C_3   0.280813 0.533404 0.491348 -0.125449
C95   C     C_3   0.204651 0.960332 0.519472 -0.094414
C96   C     C_3   0.809998 0.912717 0.479410 -0.111119
Cr1   Cr    Cr6+3 0.765830 0.160660 0.268180 1.065636
Cr2   Cr    Cr6+3 0.384070 0.324050 0.751550 1.036267
Cr3   Cr    Cr6+3 0.115930 0.824050 0.248450 1.040590
Cr4   Cr    Cr6+3 0.884070 0.824050 0.751550 1.044824
Cr5   Cr    Cr6+3 0.234170 0.160660 0.731820 1.066534
Cr6   Cr    Cr6+3 0.265830 0.660660 0.268180 1.060292
Cr7   Cr    Cr6+3 0.734170 0.660660 0.731820 1.067339
Cr8   Cr    Cr6+3 0.612110 0.009150 0.248770 1.080624
Cr9   Cr    Cr6+3 0.387890 0.009150 0.751230 1.074806
Cr10  Cr    Cr6+3 0.112110 0.509150 0.248770 1.072931
Cr11  Cr    Cr6+3 0.887890 0.509150 0.751230 1.071081
Cr12  Cr    Cr6+3 0.615930 0.324050 0.248450 1.041707
H1    H     H_    0.644232 0.314952 0.487409 0.117896
H2    H     H_    0.225811 0.627540 0.580668 0.129007
H3    H     H_    0.194563 0.101982 0.427366 0.148617
H4    H     H_    0.813156 0.074854 0.561491 0.149864
H5    H     H_    0.331636 0.134156 0.509534 0.104065
H6    H     H_    0.685265 0.101641 0.467112 0.103438
H7    H     H_    0.868402 0.515525 0.512726 0.130023
H8    H     H_    0.119143 0.538992 0.478985 0.132837
H9    H     H_    0.758275 0.249542 0.586137 0.135407
H10   H     H_    0.246797 0.276236 0.427287 0.129907
H11   H     H_    0.330436 0.777171 0.558244 0.149112
H12   H     H_    0.349934 0.360528 0.529429 0.124085
H13   H     H_    0.680736 0.740247 0.441399 0.135843
H14   H     H_    0.627522 0.173219 0.010481 0.120270
H15   H     H_    0.376031 0.170806 0.989648 0.110615
H16   H     H_    0.148767 0.644867 0.019733 0.121435
H17   H     H_    0.898896 0.695992 0.972353 0.116719
H18   H     H_    0.538923 0.357373 0.943897 0.163268
H19   H     H_    0.460894 0.356067 0.055406 0.161721
H20   H     H_    0.078799 0.838365 0.939420 0.149289
H21   H     H_    0.989670 0.868800 0.041468 0.162404
H22   H     H_    0.195749 0.758527 0.477563 0.111255
H23   H     H_    0.809531 0.718573 0.533608 0.101894
H24   H     H_    0.668745 0.565732 0.523510 0.156107
H25   H     H_    0.318863 0.601289 0.478234 0.154911
H26   H     H_    0.155755 0.971511 0.541458 0.170752
H27   H     H_    0.860928 0.914028 0.460831 0.155002
H28   H     H_    0.754160 0.580278 0.413853 0.128709
I1    I     I_    0.893238 0.222869 0.474454 -0.314423
I2    I     I_    0.103523 0.247480 0.526448 -0.317452
I3    I     I_    0.418192 0.894975 0.429412 -0.314456
I4    I     I_    0.586714 0.893077 0.554117 -0.322009
I5    I     I_    0.447377 0.907796 0.077510 -0.286272
I6    I     I_    0.561228 0.911335 0.921611 -0.287208
I7    I     I_    0.943920 0.429482 0.070172 -0.290725
I8    I     I_    0.068301 0.391576 0.925149 -0.304489
O1    O     O_R   0.783230 0.287800 0.346510 -0.472479
O2    O     O_R   0.454570 0.285140 0.836900 -0.502475
O3    O     O_R   0.045430 0.785140 0.163100 -0.507325
O4    O     O_R   0.954570 0.785140 0.836900 -0.508586
O5    O     O_R   0.677850 0.374730 0.185500 -0.508153
O6    O     O_R   0.322150 0.374730 0.814500 -0.509792
O7    O     O_R   0.177850 0.874730 0.185500 -0.514545
O8    O     O_R   0.822150 0.874730 0.814500 -0.496536
O9    O     O_3   0.664630 0.164620 0.255130 -0.308895
O10   O     O_3   0.335370 0.164620 0.744870 -0.331350
O11   O     O_3   0.164630 0.664620 0.255130 -0.318747
O12   O     O_R   0.216770 0.287800 0.653490 -0.486940
O13   O     O_3   0.835370 0.664620 0.744870 -0.315432
O14   O     O_R   0.760130 0.037060 0.338610 -0.501791
O15   O     O_R   0.239870 0.037060 0.661390 -0.481800
O16   O     O_R   0.260130 0.537060 0.338610 -0.493591
O17   O     O_R   0.739870 0.537060 0.661390 -0.487395
O18   O     O_R   0.666620 0.921370 0.332440 -0.503513
O19   O     O_R   0.333380 0.921370 0.667560 -0.502318
O20   O     O_R   0.166620 0.421370 0.332440 -0.498366
O21   O     O_R   0.833380 0.421370 0.667560 -0.492752
O22   O     O_R   0.557170 0.082420 0.312350 -0.468662
O23   O     O_R   0.283230 0.787800 0.346510 -0.492460
O24   O     O_R   0.442830 0.082420 0.687650 -0.487925
O25   O     O_R   0.057170 0.582420 0.312350 -0.497388
O26   O     O_R   0.942830 0.582420 0.687650 -0.502683
O27   O     O_R   0.548310 0.285980 0.316250 -0.513305
O28   O     O_R   0.451690 0.285980 0.683750 -0.503101
O29   O     O_R   0.048310 0.785980 0.316250 -0.495867
O30   O     O_R   0.951690 0.785980 0.683750 -0.497324
O31   O     O_R   0.680520 0.375500 0.327470 -0.499344
O32   O     O_R   0.319480 0.375500 0.672530 -0.503747
O33   O     O_R   0.180520 0.875500 0.327470 -0.504339
O34   O     O_R   0.716770 0.787800 0.653490 -0.490648
O35   O     O_R   0.819480 0.875500 0.672530 -0.501981
O36   O     O_R   0.780350 0.286970 0.193350 -0.482089
O37   O     O_R   0.219650 0.286970 0.806650 -0.491086
O38   O     O_R   0.280350 0.786970 0.193350 -0.482912
O39   O     O_R   0.719650 0.786970 0.806650 -0.491427
O40   O     O_R   0.757460 0.036290 0.196640 -0.498503
O41   O     O_R   0.242540 0.036290 0.803360 -0.480583
O42   O     O_R   0.257460 0.536290 0.196640 -0.494032
O43   O     O_R   0.742540 0.536290 0.803360 -0.482594
O44   O     O_R   0.663740 0.920540 0.179290 -0.494586
O45   O     O_R   0.554500 0.081650 0.170370 -0.463563
O46   O     O_R   0.336260 0.920540 0.820710 -0.478484
O47   O     O_R   0.163740 0.420540 0.179290 -0.491544
O48   O     O_R   0.836260 0.420540 0.820710 -0.474295
O49   O     O_R   0.445500 0.081650 0.829630 -0.478005
O50   O     O_R   0.054500 0.581650 0.170370 -0.461788
O51   O     O_R   0.945500 0.581650 0.829630 -0.492828
O52   O     O_R   0.545430 0.285140 0.163100 -0.510399

loop_
_geom_bond_atom_site_label_1
_geom_bond_atom_site_label_2
_ccdc_geom_bond_type
C19   C56   S    
Cr9   O49   S    
C5    H28   S    
C21   C26   S    
Cr11  O21   S    
C8    C13   S    
C87   C91   T    
C56   H12   S    
C14   C18   S    
C20   C67   S    
C8    C96   S    
C81   O37   A    
C71   O44   A    
C4    C8    S    
C34   O17   A    
C35   C47   S    
Cr2   O10   S    
C73   O42   A    
C68   O32   A    
C10   H8    S    
C46   I6    S    
Cr4   O8    S    
C56   C94   S    
C48   I8    S    
Cr6   O23   S    
C30   C35   S    
C63   C81   S    
Cr7   O39   S    
C50   C59   T    
C80   O36   A    
C62   C80   S    
C1    O14   A    
C75   O45   A    
C27   C37   S    
Cr3   O33   S    
C3    C7    S    
C10   C15   S    
C8    H4    S    
Cr8   O18   S    
C66   C89   S    
C27   H18   S    
C45   H1    S    
C70   O35   A    
C65   C83   S    
C20   C25   S    
C11   C25   S    
C81   O6    A    
Cr12  O31   S    
C29   C33   S    
C94   H25   S    
C79   O51   A    
C30   C38   S    
C4    C78   S    
C11   C16   S    
C72   O46   A    
C35   H17   S    
C66   O1    A    
C69   O33   A    
C15   C19   S    
Cr4   O13   S    
Cr12  O9    S    
C19   H10   S    
C78   C96   S    
C44   I5    S    
C6    C94   S    
C31   C46   S    
Cr3   O11   S    
Cr11  O48   S    
C33   H16   S    
C23   C24   S    
Cr9   O19   S    
Cr1   O9    S    
Cr8   O9    S    
Cr12  O52   S    
C34   O21   A    
C45   C89   S    
C77   O3    A    
C31   C36   S    
C40   O22   A    
C13   H6    S    
C28   H19   S    
C15   I2    S    
Cr2   O28   S    
C75   O52   A    
Cr9   O10   S    
C76   O2    A    
C55   C60   S    
C55   C64   T    
Cr8   O44   S    
C67   C95   S    
C6    H2    S    
C32   H15   S    
C2    C6    S    
C84   C90   T    
Cr10  O47   S    
Cr5   O41   S    
C71   O40   A    
Cr11  O51   S    
Cr11  O13   S    
C43   O26   A    
C44   C46   S    
C7    C11   S    
C96   H27   S    
C54   C59   S    
C26   C96   S    
C80   O5    A    
C22   C34   S    
C41   O28   A    
C4    C70   S    
Cr7   O17   S    
C27   C31   S    
Cr6   O38   S    
C28   C32   S    
Cr7   O43   S    
C31   H14   S    
Cr10  O50   S    
C76   O49   A    
C50   C73   S    
Cr6   O16   S    
C91   C92   S    
C9    C14   S    
C70   O34   A    
Cr1   O36   S    
Cr2   O2    S    
Cr5   O12   S    
C10   C24   S    
C41   C84   S    
Cr3   O7    S    
C95   H26   S    
C17   C21   S    
C49   C58   T    
C9    H7    S    
C40   C85   S    
C21   C78   S    
C35   C39   S    
C77   O50   A    
C69   O23   A    
C14   C89   S    
C5    C9    S    
C29   C30   S    
C36   C75   S    
C24   C94   S    
Cr2   O32   S    
C53   C62   T    
C47   C48   S    
Cr3   O29   S    
C14   I1    S    
C16   C20   S    
C42   O25   A    
C23   O16   A    
C29   C39   S    
C32   C44   S    
C83   O39   A    
Cr6   O42   S    
C32   C37   S    
C2    C15   S    
C18   H9    S    
C64   C82   S    
C38   C47   S    
C73   O47   A    
C74   O48   A    
C4    C17   S    
C13   C26   S    
C37   C76   S    
C88   C90   S    
C45   C93   S    
C25   C95   S    
Cr10  O20   S    
Cr4   O30   S    
C1    C26   S    
C22   C93   S    
C66   O31   A    
C36   C44   S    
C67   H22   S    
C51   C72   S    
C83   O8    A    
C93   H24   S    
C18   C45   S    
Cr5   O37   S    
Cr12  O27   S    
Cr1   O40   S    
C23   O20   A    
Cr2   O6    S    
C85   C88   T    
Cr3   O3    S    
C3    C69   S    
C18   C22   S    
C43   C86   S    
Cr1   O1    S    
Cr9   O46   S    
C78   H23   S    
C3    C67   S    
C82   O7    A    
C47   I7    S    
C57   C65   T    
C41   O24   A    
C68   O12   A    
C42   O29   A    
C6    C10   S    
C5    C93   S    
C53   C58   S    
C57   C61   S    
C79   O4    A    
C51   C60   T    
C38   C77   S    
C30   H21   S    
C7    C95   S    
C82   O38   A    
C2    C68   S    
C33   C38   S    
Cr9   O24   S    
C13   C17   S    
C12   C25   S    
C52   C61   T    
Cr7   O34   S    
Cr1   O14   S    
C19   C24   S    
C43   O30   A    
C52   C71   S    
C86   C92   T    
C12   O19   A    
Cr5   O10   S    
Cr4   O4    S    
Cr8   O45   S    
Cr10  O25   S    
Cr10  O11   S    
C7    H3    S    
C17   I4    S    
C40   O27   A    
C12   O15   A    
C21   H13   S    
C11   H5    S    
C72   O41   A    
C1    O18   A    
C74   O43   A    
Cr8   O22   S    
Cr12  O5    S    
C16   I3    S    
Cr5   O15   S    
Cr7   O13   S    
C28   C36   S    
C9    C22   S    
C54   C63   T    
C29   H20   S    
C27   C28   S    
C33   C48   S    
C49   C74   S    
C2    C56   S    
C42   C87   S    
C37   C46   S    
Cr4   O35   S    
Cr6   O11   S    
C20   H11   S    
C5    C89   S    
C3    C16   S    
C39   C79   S    
C39   C48   S    
Cr11  O26   S    
