data_mof_unit_pretest_1446.cif
_audit_creation_date              2013-03-05T16:33:47-0500
_audit_creation_method            fapswitch 2.2
_symmetry_space_group_name_H-M    P1
_symmetry_Int_Tables_number       1
_space_group_crystal_system       triclinic
_cell_length_a                    15.972494
_cell_length_b                    10.852975
_cell_length_c                    9.568539
_cell_angle_alpha                 90.67267
_cell_angle_beta                  90.533073
_cell_angle_gamma                 90.333142
_cell_volume                      1658.48221283

loop_
_atom_site_label
_atom_site_type_symbol
_atom_site_description
_atom_site_fract_x
_atom_site_fract_y
_atom_site_fract_z
_atom_type_partial_charge
O1    O     O_R   0.500000 0.319640 0.618810 -0.579428
O2    O     O_R   0.500010 0.319680 0.381230 -0.590829
C1    C     C_R   0.498213 0.262564 0.499248 0.785669
O3    O     O_R   0.380300 0.499950 0.618760 -0.595077
O4    O     O_R   0.380310 0.499990 0.381180 -0.515817
C2    C     C_R   0.341319 0.499616 0.499398 0.818294
Cu1   Cu    Cu3+1 0.500000 0.499980 0.640670 0.950330
Cu2   Cu    Cu3+1 0.500000 0.500020 0.359330 0.976699
O5    O     O_R   0.499990 0.680320 0.618770 -0.573355
O6    O     O_R   0.500000 0.680360 0.381190 -0.593170
O7    O     O_R   0.619690 0.500010 0.618820 -0.569914
O8    O     O_R   0.619700 0.500050 0.381240 -0.577360
C3    C     C_R   0.499616 0.737717 0.500423 0.841766
C4    C     C_R   0.658680 0.500272 0.500583 0.855511
H1    H     H_    0.079309 0.519742 0.723434 0.137603
C5    C     C_R   0.957540 0.511123 0.626580 -0.170987
H2    H     H_    0.925048 0.520504 0.725012 0.135309
C6    C     C_R   0.912664 0.499558 0.500725 0.158781
C7    C     C_R   0.955099 0.487411 0.373975 -0.176741
H3    H     H_    0.920695 0.478391 0.276216 0.135082
C8    C     C_R   0.042478 0.486931 0.373068 -0.172388
H4    H     H_    0.074984 0.477561 0.274640 0.139846
C9    C     C_R   0.087344 0.498644 0.498924 0.153649
C10   C     C_R   0.044909 0.510667 0.625675 -0.178495
C11   C     C_1   0.823078 0.500039 0.501551 -0.065001
C12   C     C_1   0.176926 0.498740 0.498142 -0.068460
C13   C     C_1   0.252081 0.499075 0.498242 -0.156243
C14   C     C_1   0.747921 0.500261 0.501613 -0.162656
C15   C     C_R   0.491668 0.066017 0.623863 0.097019
C16   C     C_R   0.490654 0.129674 0.498278 -0.073738
C17   C     C_R   0.480734 0.062719 0.372531 -0.225903
H5    H     H_    0.476067 0.109003 0.273206 0.146359
C18   C     C_R   0.481585 0.934094 0.373557 -0.211719
H6    H     H_    0.476065 0.884682 0.274867 0.157817
C19   C     C_R   0.494126 0.871170 0.499959 -0.041803
C20   C     C_R   0.496152 0.939529 0.624584 0.110822
C21   C     C_3   0.554854 0.941708 0.748656 -0.206440
C22   C     C_3   0.547613 0.081442 0.748584 -0.512948
H7    H     H_    0.526167 0.900635 0.842697 0.119164
H8    H     H_    0.513260 0.118519 0.840315 0.183346
H9    H     H_    0.606431 0.132069 0.724218 0.199493
C23   C     C_R   0.571297 0.526733 0.075123 0.174416
N1    N     N_R   0.500520 0.500930 0.147930 -0.229867
C24   C     C_R   0.433299 0.454601 0.071939 0.519878
C25   C     C_R   0.432961 0.458004 0.923117 -0.170764
H10   H     H_    0.378024 0.427027 0.865897 0.168268
N2    N     N_R   0.500520 0.500890 0.852020 -0.210620
C26   C     C_R   0.571597 0.525349 0.928107 0.236898
C27   C     C_3   0.622420 0.640468 0.924677 -0.479366
C28   C     C_3   0.621680 0.642358 0.083411 -0.476514
H11   H     H_    0.685601 0.625054 0.880221 0.202889
H12   H     H_    0.586610 0.716423 0.878110 0.204645
H13   H     H_    0.684519 0.627313 0.130860 0.204916
H14   H     H_    0.586195 0.721030 0.128329 0.210143
O9    O     O_3   0.362714 0.413360 0.139486 -0.553792
C29   C     C_3   0.351588 0.284866 0.118708 0.068361
H15   H     H_    0.354711 0.240200 0.222393 0.171474
H16   H     H_    0.399641 0.239566 0.051565 0.095527
C30   C     C_3   0.265142 0.259725 0.056087 -0.826895
H17   H     H_    0.259904 0.301704 0.951160 0.237153
H18   H     H_    0.254672 0.158789 0.045597 0.209835
H19   H     H_    0.216232 0.299182 0.124927 0.256396
C31   C     C_2   0.643754 0.900734 0.722640 0.382908
H20   H     H_    0.690468 0.915177 0.804301 0.070229
O10   O     O_2   0.664334 0.851620 0.612882 -0.550205

loop_
_geom_bond_atom_site_label_1
_geom_bond_atom_site_label_2
_geom_bond_distance
_ccdc_geom_bond_type
C15   C22   1.491454 S    
O4    Cu2   1.925077 S    
Cu1   O7    1.925077 S    
N1    C24   1.380195 A    
C17   C18   1.396265 A    
C27   H11   1.111585 S    
C21   C22   1.521609 S    
C1    C16   1.446517 S    
C2    C13   1.425264 S    
C19   C20   1.397030 A    
C15   C20   1.375147 A    
Cu2   N1    2.023024 S    
Cu2   O8    1.921424 S    
C16   C17   1.405504 A    
C9    C10   1.399996 A    
C27   H12   1.102084 S    
C4    C14   1.425340 S    
O9    C29   1.416260 S    
C31   O10   1.220840 D    
C18   H6    1.083096 S    
C30   H17   1.110040 S    
C5    C10   1.395647 A    
C5    C6    1.399673 A    
C28   H14   1.112000 S    
C8    H4    1.083693 S    
C24   C25   1.424882 A    
C11   C14   1.200467 T    
C22   H8    1.112049 S    
C24   O9    1.379721 S    
C12   C13   1.200398 T    
C15   C16   1.393130 A    
C6    C11   1.431045 S    
C23   C28   1.487727 S    
O3    Cu1   1.921427 S    
C26   C27   1.486831 S    
O3    C2    1.295666 A    
C20   C21   1.505815 S    
C21   C31   1.512389 S    
C29   H16   1.117900 S    
C3    C19   1.451587 S    
O2    C1    1.295039 A    
C25   N2    1.363491 A    
C8    C9    1.399725 A    
O4    C2    1.296392 A    
C18   C19   1.409187 A    
O7    C4    1.296528 A    
C30   H18   1.110425 S    
C28   H13   1.111472 S    
Cu1   Cu2   2.692018 S    
C23   N1    1.362830 A    
C31   H20   1.084776 S    
N2    C26   1.366001 A    
C21   H7    1.110440 S    
C6    C7    1.400104 A    
C29   H15   1.110149 S    
C22   H9    1.113528 S    
Cu2   O6    1.965927 S    
C27   C28   1.518915 S    
C9    C12   1.430916 S    
O1    Cu1   1.965927 S    
Cu1   O5    1.970858 S    
C29   C30   1.521965 S    
O5    C3    1.298809 A    
H1    C10   1.083629 S    
C30   H19   1.111035 S    
C23   C26   1.406686 A    
C7    C8    1.395806 A    
C25   H10   1.079847 S    
C17   H5    1.082338 S    
O2    Cu2   1.970856 S    
C7    H3    1.083608 S    
O8    C4    1.295520 A    
C5    H2    1.083623 S    
O1    C1    1.294560 A    
O6    C3    1.293309 A    
Cu1   N2    2.022158 S    
