data_mof_unit_pretest_1017.cif
_audit_creation_date              2012-12-11T15:54:48-0500
_audit_creation_method            fapswitch 2.2
_symmetry_space_group_name_H-M    P1
_symmetry_Int_Tables_number       1
_space_group_crystal_system       triclinic
_cell_length_a                    17.609441
_cell_length_b                    24.319482
_cell_length_c                    15.056518
_cell_angle_alpha                 90.000064
_cell_angle_beta                  125.898506
_cell_angle_gamma                 90.000064
_cell_volume                      5223.23997635

loop_
_atom_site_label
_atom_site_type_symbol
_atom_type_description
_atom_site_fract_x
_atom_site_fract_y
_atom_site_fract_z
_atom_type_partial_charge
C1    C     C_R   0.904609 0.871362 0.090630 -0.104657
C2    C     C_R   0.904609 0.128638 0.090630 -0.104657
C3    C     C_R   0.402000 0.376358 0.091683 -0.109450
C4    C     C_R   0.402000 0.623642 0.091683 -0.109448
C5    C     C_R   0.062601 0.850011 0.907402 -0.130738
C6    C     C_R   0.062600 0.149989 0.907402 -0.130739
C7    C     C_R   0.557888 0.348455 0.907725 -0.140910
C8    C     C_R   0.557887 0.651546 0.907725 -0.140915
C9    C     C_R   0.155992 0.149905 0.091033 -0.104258
C10   C     C_R   0.155993 0.850095 0.091032 -0.104255
C11   C     C_R   0.653346 0.650887 0.090463 -0.100521
C12   C     C_R   0.653348 0.349114 0.090463 -0.100508
C13   C     C_R   0.301706 0.000001 0.369596 -0.095592
C14   C     C_R   0.802720 0.500000 0.368936 -0.097255
C15   C     C_R   0.934222 1.000000 0.634024 -0.001327
C16   C     C_R   0.547679 0.500000 0.723752 -0.006044
C17   C     C_R   0.127499 0.819716 0.998896 0.027449
C18   C     C_R   0.127498 0.180285 0.998896 0.027450
C19   C     C_R   0.621513 0.317821 0.998549 0.028869
C20   C     C_R   0.621510 0.682180 0.998549 0.028879
C21   C     C_3   0.910748 0.051675 0.380284 -0.402333
C22   C     C_3   0.910748 0.948325 0.380284 -0.402330
C23   C     C_3   0.613915 0.551686 0.535856 -0.391731
C24   C     C_3   0.460020 0.499996 0.426926 -0.404576
C25   C     C_3   0.894554 0.051648 0.469573 -0.413072
C26   C     C_3   0.894554 0.948351 0.469573 -0.413071
C27   C     C_3   0.612015 0.551553 0.636709 -0.414177
C28   C     C_3   0.457574 0.499998 0.526217 -0.386453
C29   C     C_3   0.063850 0.000000 0.506349 -0.404013
C30   C     C_3   0.613926 0.448318 0.535863 -0.391720
C31   C     C_3   0.968512 1.000000 0.392918 0.413348
C32   C     C_3   0.562470 0.500000 0.464161 0.399116
C33   C     C_3   0.941281 1.000000 0.542968 0.405961
C34   C     C_3   0.558507 0.500000 0.633969 0.402453
C35   C     C_R   0.811442 0.125828 0.906773 -0.138694
C36   C     C_R   0.811442 0.874172 0.906773 -0.138692
C37   C     C_R   0.310034 0.623514 0.907694 -0.138966
C38   C     C_R   0.310033 0.376486 0.907694 -0.138972
C39   C     C_3   0.047924 0.000000 0.595090 -0.392414
C40   C     C_3   0.612021 0.448450 0.636714 -0.414201
C41   C     C_3   0.656096 0.183881 0.891043 -0.537657
C42   C     C_3   0.656095 0.816119 0.891043 -0.537657
C43   C     C_3   0.154309 0.681147 0.896281 -0.537541
C44   C     C_3   0.154309 0.318853 0.896280 -0.537538
C45   C     C_3   0.102510 0.733065 0.893875 0.588286
C46   C     C_3   0.102509 0.266935 0.893875 0.588289
C47   C     C_3   0.601496 0.233990 0.889305 0.586572
C48   C     C_3   0.601494 0.766011 0.889306 0.586571
C49   C     C_3   0.305966 0.735779 0.998234 -0.370133
C50   C     C_3   0.305965 0.264222 0.998234 -0.370132
C51   C     C_3   0.806297 0.239468 0.001971 -0.376156
C52   C     C_3   0.806295 0.760532 0.001971 -0.376155
C53   C     C_3   0.753433 0.180723 0.096269 -0.419899
C54   C     C_3   0.753432 0.819278 0.096268 -0.419897
C55   C     C_3   0.257410 0.681586 0.101581 -0.420974
C56   C     C_3   0.257408 0.318415 0.101580 -0.420974
C57   C     C_3   0.758350 0.184894 0.996737 0.335905
C58   C     C_3   0.758349 0.815106 0.996737 0.335905
C59   C     C_3   0.258040 0.682300 0.998888 0.333615
C60   C     C_3   0.258039 0.317701 0.998887 0.333616
C61   C     C_3   0.170955 0.768466 0.998276 0.244426
C62   C     C_3   0.170954 0.231534 0.998276 0.244427
C63   C     C_3   0.666797 0.267971 0.996850 0.245256
C64   C     C_3   0.666794 0.732030 0.996850 0.245255
C65   C     C_3   0.255477 0.786185 0.999033 -0.535119
C66   C     C_3   0.255476 0.213815 0.999033 -0.535119
C67   C     C_3   0.753174 0.288156 0.003282 -0.532882
C68   C     C_3   0.753171 0.711845 0.003282 -0.532880
C69   C     C_3   0.206472 0.732783 0.101694 -0.361809
C70   C     C_3   0.206471 0.267218 0.101694 -0.361811
C71   C     C_3   0.699690 0.230227 0.096820 -0.362143
C72   C     C_3   0.699689 0.769774 0.096820 -0.362147
C73   C     C_3   0.445191 0.948539 0.414486 -0.400749
C74   C     C_3   0.445192 0.051461 0.414484 -0.400742
C75   C     C_3   0.946108 0.448518 0.413927 -0.401811
C76   C     C_3   0.946114 0.551439 0.413857 -0.401790
C77   C     C_R   0.742457 0.954266 0.697838 -0.143416
C78   C     C_R   0.742457 0.045734 0.697838 -0.143423
C79   C     C_R   0.242981 0.454278 0.697416 -0.150604
C80   C     C_R   0.242976 0.545720 0.697414 -0.150526
C81   C     C_3   0.552482 0.948447 0.487377 -0.422609
C82   C     C_3   0.552483 0.051560 0.487396 -0.422611
C83   C     C_3   0.053365 0.448397 0.486799 -0.422417
C84   C     C_3   0.053372 0.551495 0.486541 -0.422416
C85   C     C_3   0.444556 0.000002 0.560520 -0.381389
C86   C     C_3   0.945580 0.500009 0.560042 -0.385709
C87   C     C_3   0.406503 0.000001 0.438513 0.436053
C88   C     C_3   0.907465 0.499993 0.437986 0.437927
C89   C     C_3   0.589244 1.000000 0.561708 0.415829
C90   C     C_3   0.090115 0.499994 0.560995 0.418145
C91   C     C_3   0.551613 0.999993 0.632848 -0.418774
C92   C     C_3   0.052572 0.500089 0.632235 -0.417798
C93   C     C_R   0.008383 0.046065 0.276819 -0.111235
C94   C     C_R   0.008383 0.953935 0.276820 -0.111241
C95   C     C_R   0.543716 0.545795 0.301766 -0.125667
C96   C     C_R   0.543713 0.454205 0.301765 -0.125683
C97   C     C_R   0.815742 0.858936 0.998157 0.007046
C98   C     C_R   0.815743 0.141064 0.998157 0.007046
C99   C     C_R   0.313092 0.363217 0.999440 0.008589
C100  C     C_R   0.313093 0.636784 0.999441 0.008589
C101  C     C_R   0.691810 1.000000 0.637824 -0.005515
C102  C     C_R   0.192600 0.499997 0.637094 -0.004327
C103  C     C_R   0.988186 1.000000 0.312342 -0.057165
C104  C     C_R   0.557257 0.500000 0.363251 -0.045372
C105  C     C_R   0.250318 0.954439 0.307899 -0.113239
C106  C     C_R   0.250318 0.045561 0.307898 -0.113239
C107  C     C_R   0.751167 0.454419 0.307596 -0.105996
C108  C     C_R   0.751177 0.545583 0.307590 -0.106007
C109  C     C_R   0.950653 0.045923 0.696499 -0.142884
C110  C     C_R   0.950653 0.954077 0.696499 -0.142886
C111  C     C_R   0.518694 0.546147 0.750950 -0.141670
C112  C     C_R   0.518694 0.453853 0.750949 -0.141671
H1    H     H_    0.936141 0.857258 0.172896 0.094788
H2    H     H_    0.936141 0.142742 0.172896 0.094788
H3    H     H_    0.431405 0.367926 0.176274 0.093627
H4    H     H_    0.431406 0.632074 0.176274 0.093628
H5    H     H_    0.842232 0.052071 0.297891 0.156271
H6    H     H_    0.842232 0.947928 0.297891 0.156271
H7    H     H_    0.579292 0.590039 0.489108 0.145353
H8    H     H_    0.422222 0.536914 0.375719 0.154133
H9    H     H_    0.818083 0.051986 0.431818 0.154764
H10   H     H_    0.818083 0.948013 0.431818 0.154763
H11   H     H_    0.577595 0.590118 0.635253 0.145634
H12   H     H_    0.418297 0.536881 0.522515 0.154023
H13   H     H_    0.925094 0.090167 0.517533 0.147708
H14   H     H_    0.925095 0.909833 0.517533 0.147708
H15   H     H_    0.684832 0.551770 0.713149 0.158540
H16   H     H_    0.418300 0.463114 0.522520 0.154020
H17   H     H_    0.105434 0.036961 0.515882 0.164122
H18   H     H_    0.105434 0.963039 0.515882 0.164123
H19   H     H_    0.687680 0.447565 0.562341 0.173027
H20   H     H_    0.579314 0.409962 0.489121 0.145350
H21   H     H_    0.082324 0.036912 0.647992 0.158647
H22   H     H_    0.082324 0.963088 0.647992 0.158647
H23   H     H_    0.684838 0.448236 0.713156 0.158543
H24   H     H_    0.577604 0.409884 0.635258 0.145639
H25   H     H_    0.654086 0.186066 0.816075 0.116447
H26   H     H_    0.654085 0.813933 0.816075 0.116448
H27   H     H_    0.149037 0.680511 0.819161 0.117256
H28   H     H_    0.149037 0.319489 0.819160 0.117252
H29   H     H_    0.621518 0.144726 0.887174 0.189959
H30   H     H_    0.621518 0.855275 0.887173 0.189959
H31   H     H_    0.119613 0.643150 0.897364 0.190306
H32   H     H_    0.119612 0.356850 0.897362 0.190303
H33   H     H_    0.082808 0.757667 0.820518 -0.030463
H34   H     H_    0.082806 0.242333 0.820517 -0.030469
H35   H     H_    0.583336 0.260326 0.818506 -0.031380
H36   H     H_    0.583333 0.739675 0.818506 -0.031380
H37   H     H_    0.305731 0.737197 0.924119 0.168762
H38   H     H_    0.305731 0.262804 0.924120 0.168762
H39   H     H_    0.808771 0.243002 0.929918 0.169710
H40   H     H_    0.808769 0.756998 0.929918 0.169709
H41   H     H_    0.756539 0.133614 0.821742 0.095443
H42   H     H_    0.756539 0.866386 0.821742 0.095443
H43   H     H_    0.254831 0.631788 0.822944 0.095449
H44   H     H_    0.254829 0.368214 0.822943 0.095453
H45   H     H_    0.231912 0.812145 0.926117 0.168878
H46   H     H_    0.231910 0.187856 0.926117 0.168878
H47   H     H_    0.731165 0.315704 0.932831 0.168315
H48   H     H_    0.731162 0.684296 0.932830 0.168315
H49   H     H_    0.824292 0.180439 0.175296 0.149971
H50   H     H_    0.824291 0.819562 0.175296 0.149971
H51   H     H_    0.329561 0.681916 0.178601 0.150861
H52   H     H_    0.329559 0.318086 0.178600 0.150861
H53   H     H_    0.718020 0.141845 0.091861 0.165729
H54   H     H_    0.718020 0.858156 0.091860 0.165729
H55   H     H_    0.222152 0.643723 0.102030 0.165968
H56   H     H_    0.222150 0.356278 0.102027 0.165968
H57   H     H_    0.638584 0.215940 0.094597 0.194369
H58   H     H_    0.638583 0.784062 0.094597 0.194367
H59   H     H_    0.146924 0.720404 0.104174 0.194238
H60   H     H_    0.146924 0.279596 0.104174 0.194236
H61   H     H_    0.256919 0.756058 0.178042 0.143862
H62   H     H_    0.256919 0.243943 0.178042 0.143862
H63   H     H_    0.747378 0.252502 0.175379 0.145413
H64   H     H_    0.747377 0.747499 0.175379 0.145415
H65   H     H_    0.380551 0.737216 0.071186 0.177097
H66   H     H_    0.380550 0.262785 0.071187 0.177098
H67   H     H_    0.879950 0.240892 0.076956 0.175565
H68   H     H_    0.879948 0.759108 0.076956 0.175566
H69   H     H_    0.305280 0.811290 0.073287 0.190301
H70   H     H_    0.305279 0.188711 0.073287 0.190301
H71   H     H_    0.800928 0.312307 0.079735 0.189171
H72   H     H_    0.800925 0.687693 0.079735 0.189174
H73   H     H_    0.421613 0.909724 0.429733 0.185356
H74   H     H_    0.421600 0.090278 0.429707 0.185344
H75   H     H_    0.922607 0.409695 0.429231 0.184261
H76   H     H_    0.922735 0.590273 0.429292 0.184468
H77   H     H_    0.418891 0.948348 0.326827 0.150394
H78   H     H_    0.418906 0.051644 0.326829 0.150402
H79   H     H_    0.919786 0.448320 0.326259 0.150058
H80   H     H_    0.919666 0.551654 0.326145 0.149975
H81   H     H_    0.578874 0.947810 0.435914 0.155074
H82   H     H_    0.578890 0.052213 0.435948 0.155063
H83   H     H_    0.079751 0.447684 0.435333 0.156174
H84   H     H_    0.079624 0.552012 0.434934 0.156273
H85   H     H_    0.727839 0.911762 0.672561 0.083119
H86   H     H_    0.727840 0.088238 0.672560 0.083123
H87   H     H_    0.228463 0.411739 0.672315 0.085357
H88   H     H_    0.228438 0.588259 0.672325 0.085318
H89   H     H_    0.576467 0.910084 0.536802 0.151627
H90   H     H_    0.576453 0.089917 0.536838 0.151642
H91   H     H_    0.077311 0.410059 0.536296 0.151943
H92   H     H_    0.077453 0.589906 0.535817 0.151824
H93   H     H_    0.419660 0.963430 0.580489 0.209585
H94   H     H_    0.419678 0.036582 0.580491 0.209589
H95   H     H_    0.920926 0.463458 0.580281 0.209868
H96   H     H_    0.920761 0.536501 0.580219 0.209861
H97   H     H_    0.577536 0.963120 0.687024 0.163677
H98   H     H_    0.577554 0.036854 0.687057 0.163669
H99   H     H_    0.078605 0.463292 0.686625 0.163809
H100  H     H_    0.078442 0.537023 0.686254 0.163882
H101  H     H_    0.018005 0.087576 0.306475 0.111456
H102  H     H_    0.018006 0.912424 0.306475 0.111455
H103  H     H_    0.554710 0.588201 0.327431 0.126921
H104  H     H_    0.554706 0.411799 0.327430 0.126902
H105  H     H_    0.940677 0.088674 0.672794 0.084267
H106  H     H_    0.940677 0.911326 0.672794 0.084268
H107  H     H_    0.523327 0.588688 0.734600 0.087344
H108  H     H_    0.523327 0.411313 0.734599 0.087344
H109  H     H_    0.021768 0.837801 0.822328 0.086229
H110  H     H_    0.021767 0.162199 0.822328 0.086228
H111  H     H_    0.514279 0.335547 0.823086 0.089615
H112  H     H_    0.514278 0.664453 0.823086 0.089616
H113  H     H_    0.203892 0.161999 0.175525 0.124708
H114  H     H_    0.203894 0.838001 0.175525 0.124712
H115  H     H_    0.703927 0.662551 0.174604 0.129713
H116  H     H_    0.703932 0.337451 0.174605 0.129739
H117  H     H_    0.948144 0.090267 0.388590 0.144635
H118  H     H_    0.948144 0.909733 0.388589 0.144636
H119  H     H_    0.687668 0.552446 0.562330 0.172968
H120  H     H_    0.422231 0.463075 0.375728 0.154133
N1    N     N_R   0.950530 0.896220 0.057200 -0.021467
N2    N     N_R   0.950530 0.103780 0.057200 -0.021466
N3    N     N_R   0.450530 0.396220 0.057200 -0.022768
N4    N     N_R   0.450530 0.603780 0.057200 -0.022764
N5    N     N_R   0.893330 0.103780 0.942800 -0.040693
N6    N     N_R   0.893330 0.896220 0.942800 -0.040693
N7    N     N_R   0.393330 0.603780 0.942800 -0.040398
N8    N     N_R   0.393330 0.396220 0.942800 -0.040396
N9    N     N_R   0.818150 0.971400 0.792440 -0.034449
N10   N     N_R   0.818150 0.028600 0.792440 -0.034448
N11   N     N_R   0.318150 0.471400 0.792440 -0.035431
N12   N     N_R   0.318150 0.528600 0.792440 -0.035432
N13   N     N_R   0.025710 0.028600 0.207560 -0.029827
N14   N     N_R   0.025710 0.971400 0.207560 -0.029829
N15   N     N_R   0.525710 0.528600 0.207560 -0.034024
N16   N     N_R   0.525710 0.471400 0.207560 -0.034039
N17   N     N_R   0.181850 0.971400 0.207560 -0.066219
N18   N     N_R   0.181850 0.028600 0.207560 -0.066219
N19   N     N_R   0.681850 0.471400 0.207560 -0.064910
N20   N     N_R   0.681850 0.528600 0.207560 -0.064905
N21   N     N_R   0.974290 0.028600 0.792440 -0.037456
N22   N     N_R   0.974290 0.971400 0.792440 -0.037456
N23   N     N_R   0.474290 0.528600 0.792440 -0.037469
N24   N     N_R   0.474290 0.471400 0.792440 -0.037470
N25   N     N_R   0.049470 0.896220 0.942800 -0.047572
N26   N     N_R   0.049470 0.103780 0.942800 -0.047572
N27   N     N_R   0.549470 0.396220 0.942800 -0.045475
N28   N     N_R   0.549470 0.603780 0.942800 -0.045475
N29   N     N_R   0.106670 0.103780 0.057200 -0.033891
N30   N     N_R   0.106670 0.896220 0.057200 -0.033891
N31   N     N_R   0.606670 0.603780 0.057200 -0.033128
N32   N     N_R   0.606670 0.396220 0.057200 -0.033126
Ni1   Ni    Ni4+2 0.065600 0.934400 0.131190 0.267704
Ni2   Ni    Ni4+2 0.065600 0.065600 0.131190 0.267704
Ni3   Ni    Ni4+2 0.565600 0.434400 0.131190 0.265280
Ni4   Ni    Ni4+2 0.565600 0.565600 0.131190 0.265282
Ni5   Ni    Ni4+2 0.934400 0.065600 0.868810 0.205156
Ni6   Ni    Ni4+2 0.934400 0.934400 0.868810 0.205156
Ni7   Ni    Ni4+2 0.434400 0.565600 0.868810 0.206106
Ni8   Ni    Ni4+2 0.434400 0.434400 0.868810 0.206101
O1    O     O_3   0.520602 0.216673 0.881199 -0.616524
C113  C     C_3   0.444273 0.209245 0.770407 -0.280252
H121  H     H_    0.461565 0.179921 0.727951 0.147926
H122  H     H_    0.421013 0.249260 0.726364 0.127566
H123  H     H_    0.384680 0.191773 0.767528 0.176276
O2    O     O_3   0.520600 0.783329 0.881200 -0.616525
C114  C     C_3   0.444271 0.790756 0.770408 -0.280250
H124  H     H_    0.421011 0.750741 0.726365 0.127567
H125  H     H_    0.461563 0.820079 0.727951 0.147925
H126  H     H_    0.384679 0.808229 0.767529 0.176276
O3    O     O_3   0.023093 0.718183 0.891000 -0.615427
C115  C     C_3   0.943952 0.710497 0.781857 -0.284055
H127  H     H_    0.957678 0.679667 0.738224 0.146715
H128  H     H_    0.921094 0.750169 0.736544 0.129066
H129  H     H_    0.885427 0.694814 0.783096 0.174443
O4    O     O_3   0.023093 0.281817 0.891001 -0.615427
C116  C     C_3   0.943951 0.289503 0.781857 -0.284056
H130  H     H_    0.921093 0.249830 0.736546 0.129067
H131  H     H_    0.957677 0.320332 0.738224 0.146706
H132  H     H_    0.885427 0.305186 0.783097 0.174443
C117  C     C_2   0.239756 0.904483 0.356438 0.944811
O5    O     O_2   0.171219 0.874909 0.300234 -0.680708
O6    O     O_R   0.304618 0.892560 0.467662 -0.851146
H133  H     H_    0.288376 0.857940 0.490747 0.313162
C118  C     C_2   0.239755 0.095518 0.356437 0.944808
O7    O     O_2   0.171215 0.125090 0.300234 -0.680706
O8    O     O_R   0.304621 0.107444 0.467659 -0.851147
H134  H     H_    0.288378 0.142063 0.490743 0.313161
C119  C     C_2   0.742732 0.403951 0.356816 0.937179
O9    O     O_2   0.676815 0.372694 0.300469 -0.686373
O10   O     O_R   0.806197 0.393513 0.468893 -0.853719
H135  H     H_    0.791273 0.358519 0.492425 0.312422
C120  C     C_2   0.742771 0.596068 0.356796 0.937170
O11   O     O_2   0.676809 0.627299 0.300467 -0.686351
O12   O     O_R   0.806320 0.606555 0.468841 -0.853753
H136  H     H_    0.791409 0.641558 0.492364 0.312435

loop_
_geom_bond_atom_site_label_1
_geom_bond_atom_site_label_2
_ccdc_geom_bond_type
C45   O3    S    
C55   C59   S    
C4    N4    A    
C15   C109  A    
C7    N27   A    
C42   C58   S    
C119  O9    D    
C111  H107  S    
C46   C62   S    
C115  H127  S    
C50   H66   S    
C86   C88   S    
C37   N7    A    
C30   H19   S    
N9    Ni6   S    
C62   C70   S    
C113  H121  S    
C26   H14   S    
N6    Ni6   S    
C21   H5    S    
C17   C61   S    
C74   H78   S    
C77   C101  A    
C1    N1    A    
C32   C104  S    
C79   C102  A    
C36   C97   A    
C51   C57   S    
C79   N11   A    
N14   Ni1   S    
C76   H76   S    
C84   H92   S    
C66   H70   S    
N13   N14   A    
C78   C101  A    
C69   H61   S    
C91   H98   S    
C73   C81   S    
C44   C46   S    
C49   H65   S    
C111  N23   A    
C105  N17   A    
C40   H23   S    
C11   C20   A    
C94   H102  S    
C82   H90   S    
C10   N30   A    
N2    N5    A    
C24   C32   S    
C7    H111  S    
C90   C92   S    
O10   H135  S    
C22   H118  S    
C93   N13   A    
C14   C107  A    
C63   C71   S    
C7    C19   A    
C96   C104  A    
C53   C71   S    
N19   Ni3   S    
C22   H6    S    
C68   H72   S    
C89   C101  S    
C115  H129  S    
C13   C106  A    
C86   H95   S    
C56   H52   S    
C96   H104  S    
C106  N18   A    
N28   Ni7   S    
C55   H51   S    
N29   Ni2   S    
C2    H2    S    
C46   H34   S    
C110  N22   A    
C81   H81   S    
C114  H125  S    
C83   H83   S    
C48   C64   S    
C14   C88   S    
C61   C65   S    
C67   H47   S    
C78   H86   S    
C68   H48   S    
C25   H9    S    
C23   H119  S    
C16   C111  A    
C72   H58   S    
C6    H110  S    
C39   H22   S    
N3    N8    A    
C35   N5    A    
C93   C103  A    
C85   H93   S    
C21   C31   S    
N17   N18   A    
C82   C89   S    
C108  N20   A    
C77   N9    A    
C64   C68   S    
C23   H7    S    
N21   N22   A    
N9    N10   A    
C12   N32   A    
N17   Ni1   S    
N26   Ni5   S    
N11   Ni8   S    
C90   C102  S    
C25   H13   S    
C107  C119  S    
C16   C34   S    
C29   H17   S    
C120  O12   S    
C74   C87   S    
C89   C91   S    
C43   C59   S    
C3    N3    A    
C72   H64   S    
C59   C100  S    
C118  O8    S    
C29   C39   S    
C84   C90   S    
C51   H67   S    
C41   C47   S    
N20   Ni4   S    
N3    Ni3   S    
C47   H35   S    
C62   C66   S    
N10   Ni5   S    
C19   C63   S    
C18   C62   S    
C42   C48   S    
C38   N8    A    
C80   C102  A    
C8    N28   A    
C75   H79   S    
C117  O5    D    
C76   H80   S    
C43   C45   S    
C26   C33   S    
C13   C87   S    
C5    N25   A    
C116  H130  S    
C112  H108  S    
C51   C67   S    
C70   H62   S    
C55   C69   S    
C67   H71   S    
C92   H100  S    
C21   C25   S    
C35   H41   S    
C73   H73   S    
C28   H12   S    
C56   C70   S    
C49   C59   S    
N4    N7    A    
C50   C60   S    
C115  H128  S    
C84   H84   S    
N32   Ni3   S    
C30   H20   S    
C113  H122  S    
C73   H77   S    
C109  H105  S    
N1    Ni1   S    
C3    C99   A    
C9    C18   A    
C11   H115  S    
O3    C115  S    
O2    C114  S    
C9    H113  S    
C112  N24   A    
C78   N10   A    
C37   C100  A    
C25   C33   S    
C42   H26   S    
C113  H123  S    
C43   H31   S    
C55   H55   S    
C91   H97   S    
C76   C84   S    
N30   Ni1   S    
C36   H42   S    
N19   N20   A    
N16   Ni3   S    
C40   H24   S    
C1    H1    S    
C105  C117  S    
C47   C63   S    
C12   H116  S    
C5    C17   A    
N11   N12   A    
C116  H132  S    
C69   H59   S    
C70   H60   S    
C73   C87   S    
C27   H15   S    
C2    N2    A    
N21   Ni5   S    
C114  H124  S    
C71   H57   S    
C35   C98   A    
C41   H25   S    
C8    H112  S    
C81   C89   S    
C14   C108  A    
C51   H39   S    
C44   H28   S    
C15   C110  A    
C54   H54   S    
N28   N31   A    
C119  O10   S    
C36   N6    A    
N31   Ni4   S    
C24   H8    S    
C93   H101  S    
O12   H136  S    
C24   C28   S    
C79   H87   S    
N18   Ni2   S    
C13   C105  A    
N27   N32   A    
C86   H96   S    
O6    H133  S    
C53   C57   S    
C65   H69   S    
N25   N30   A    
O8    H134  S    
C52   H40   S    
C21   H117  S    
C33   C39   S    
C94   N14   A    
C53   H53   S    
C94   C103  A    
C45   H33   S    
C83   H91   S    
C16   C112  A    
C39   H21   S    
C4    H4    S    
C75   H75   S    
C38   C99   A    
C24   H120  S    
C81   H89   S    
C49   H37   S    
C65   H45   S    
C107  N19   A    
C6    N26   A    
C23   C32   S    
C41   C57   S    
C3    H3    S    
C75   C83   S    
C44   C60   S    
C57   C98   S    
C12   C19   A    
C45   C61   S    
C71   H63   S    
C28   C34   S    
C106  C118  S    
C82   H82   S    
C56   C60   S    
C29   C31   S    
C120  O11   D    
C22   C26   S    
N4    Ni4   S    
N5    Ni5   S    
C26   H10   S    
C77   H85   S    
C96   N16   A    
C74   C82   S    
C28   H16   S    
C74   H74   S    
C5    H109  S    
N12   Ni7   S    
C95   H103  S    
C118  O7    D    
C37   H43   S    
N13   Ni2   S    
C38   H44   S    
N1    N6    A    
C60   C99   S    
C109  N21   A    
C85   C91   S    
N23   Ni7   S    
N24   Ni8   S    
C8    C20   A    
C49   C65   S    
C34   C40   S    
N2    Ni2   S    
C10   C17   A    
C80   H88   S    
C114  H126  S    
C9    N29   A    
C42   H30   S    
C43   H27   S    
C11   N31   A    
C76   C88   S    
C52   C68   S    
C95   N15   A    
C58   C97   S    
C85   H94   S    
C85   C87   S    
C27   C34   S    
C6    C18   A    
C63   C67   S    
C22   C31   S    
C1    C97   A    
C27   H11   S    
N22   Ni6   S    
C80   N12   A    
C31   C103  S    
C20   C64   S    
C52   H68   S    
C41   H29   S    
C50   H38   S    
C29   H18   S    
C44   H32   S    
C56   H56   S    
O1    C113  S    
C30   C40   S    
C54   H50   S    
C50   C66   S    
C52   C58   S    
N15   Ni4   S    
C23   C27   S    
C4    C100  A    
N26   N29   A    
N23   N24   A    
C66   H46   S    
C95   C104  A    
C54   C58   S    
C61   C69   S    
C83   C90   S    
C108  C120  S    
N15   N16   A    
C47   O1    S    
C48   O2    S    
N7    Ni7   S    
C46   O4    S    
O4    C116  S    
N8    Ni8   S    
C117  O6    S    
C86   C92   S    
C30   C32   S    
C53   H49   S    
C48   H36   S    
C116  H131  S    
C64   C72   S    
C110  H106  S    
C75   C88   S    
C54   C72   S    
C2    C98   A    
C10   H114  S    
C92   H99   S    
N25   Ni6   S    
C15   C33   S    
N27   Ni8   S    
