data_mof_unit_pretest_326.cif
_audit_creation_date              2013-03-05T15:44:36-0500
_audit_creation_method            fapswitch 2.2
_symmetry_space_group_name_H-M    P1
_symmetry_Int_Tables_number       1
_space_group_crystal_system       triclinic
_cell_length_a                    27.79469
_cell_length_b                    10.923024
_cell_length_c                    9.648373
_cell_angle_alpha                 88.477294
_cell_angle_beta                  89.811934
_cell_angle_gamma                 90.722269
_cell_volume                      2927.9797384

loop_
_atom_site_label
_atom_site_type_symbol
_atom_site_description
_atom_site_fract_x
_atom_site_fract_y
_atom_site_fract_z
_atom_type_partial_charge
O1    O     O_R   0.500010 0.321960 0.617040 -0.542882
O2    O     O_R   0.499990 0.321920 0.382900 -0.602221
C1    C     C_R   0.499466 0.264576 0.502574 0.721322
O3    O     O_R   0.430270 0.500040 0.617060 -0.498773
O4    O     O_R   0.430260 0.500000 0.382910 -0.536675
C2    C     C_R   0.407401 0.499843 0.500270 0.872424
Cu1   Cu    Cu3+1 0.500010 0.500020 0.638630 0.984172
Cu2   Cu    Cu3+1 0.499990 0.499980 0.361370 0.965407
O5    O     O_R   0.500010 0.678080 0.617100 -0.592907
O6    O     O_R   0.499990 0.678040 0.382960 -0.575959
O7    O     O_R   0.569740 0.500000 0.617090 -0.593760
O8    O     O_R   0.569730 0.499960 0.382940 -0.529337
C3    C     C_R   0.501431 0.734379 0.498197 0.806183
C4    C     C_R   0.592548 0.498165 0.499722 0.833317
C5    C     C_R   0.177749 0.433135 0.606466 0.554986
O9    O     O_2   0.202768 0.363167 0.697554 -0.543394
N1    N     N_R   0.201671 0.506416 0.511171 -0.443282
C6    C     C_R   0.177389 0.578868 0.417934 0.549647
C7    C     C_R   0.279562 0.559718 0.613484 -0.192883
C8    C     C_R   0.329827 0.561071 0.609587 0.333955
C9    C     C_R   0.327512 0.444826 0.396631 0.403352
C10   C     C_R   0.277130 0.451219 0.398369 -0.220935
C11   C     C_R   0.253231 0.505949 0.507680 0.236596
C12   C     C_R   0.101486 0.501686 0.512567 -0.051036
C13   C     C_R   0.127247 0.429339 0.608756 -0.025820
C14   C     C_R   0.102075 0.356999 0.706634 -0.179184
C15   C     C_R   0.126888 0.578445 0.417415 -0.026721
C16   C     C_R   0.354312 0.502032 0.501681 -0.260561
C17   C     C_R   0.645463 0.492598 0.498931 -0.201137
C18   C     C_R   0.974124 0.399596 0.588672 -0.113647
C19   C     C_R   0.974306 0.582858 0.432067 0.086681
C20   C     C_R   0.948928 0.489508 0.508783 0.003972
C21   C     C_R   0.947468 0.297203 0.646615 0.319421
C22   C     C_R   0.897291 0.288073 0.623946 0.356532
C23   C     C_R   0.871978 0.387582 0.565698 -0.202293
C24   C     C_R   0.897917 0.486705 0.504833 -0.113148
C25   C     C_R   0.872751 0.582081 0.436498 0.024634
C26   C     C_R   0.822381 0.579341 0.435294 0.541918
N2    N     N_R   0.797825 0.484537 0.498834 -0.440392
C27   C     C_R   0.821162 0.389338 0.562583 0.638117
C28   C     C_R   0.720822 0.442170 0.386637 -0.275084
C29   C     C_R   0.670555 0.443656 0.385684 0.418272
C30   C     C_R   0.671389 0.535043 0.613207 -0.387715
C31   C     C_R   0.721779 0.534045 0.613072 0.499535
C32   C     C_R   0.746320 0.485918 0.500060 0.212167
O10   O     O_2   0.795083 0.298171 0.624418 -0.489521
C33   C     C_R   0.025136 0.414040 0.602036 0.082207
C34   C     C_R   0.050368 0.497769 0.512032 0.062433
C35   C     C_R   0.025053 0.578833 0.422767 0.040323
C36   C     C_R   0.052095 0.351113 0.704533 -0.147007
O11   O     O_2   0.202070 0.651525 0.326623 -0.540582
C37   C     C_R   0.101436 0.652420 0.323675 -0.143217
C38   C     C_R   0.948033 0.678203 0.367445 -0.209431
C39   C     C_R   0.898210 0.678116 0.370670 -0.168053
O12   O     O_2   0.798015 0.670775 0.371454 -0.570137
C40   C     C_R   0.051464 0.653227 0.326561 -0.214345
C41   C     C_2   0.491965 0.935263 0.390722 -0.131253
C42   C     C_2   0.508380 0.864781 0.494630 -0.247350
H1    H     H_    0.474912 0.895326 0.301071 0.157310
C43   C     C_2   0.498028 0.068218 0.393258 -0.272265
C44   C     C_2   0.495135 0.131052 0.511257 0.294617
C45   C     C_2   0.470897 0.428851 0.921782 0.531438
N3    N     N_2   0.499480 0.498660 0.846910 -0.303809
C46   C     C_2   0.469046 0.436975 0.080384 -0.209715
N4    N     N_2   0.499460 0.498630 0.153040 -0.293467
O13   O     O_3   0.350737 0.389599 0.287822 -0.573883
C47   C     C_3   0.340975 0.261843 0.289889 0.028128
H2    H     H_    0.337259 0.232655 0.181050 0.161636
H3    H     H_    0.307010 0.233248 0.344176 0.143454
C48   C     C_3   0.382766 0.193148 0.355503 -0.790410
H4    H     H_    0.387778 0.221185 0.464363 0.242576
H5    H     H_    0.375441 0.093003 0.354793 0.212765
H6    H     H_    0.416168 0.213325 0.295583 0.242038
H7    H     H_    0.260947 0.602842 0.697685 0.172152
H8    H     H_    0.120050 0.710735 0.247795 0.185169
H9    H     H_    0.965202 0.756583 0.317028 0.136202
H10   H     H_    0.652654 0.570559 0.701883 0.188064
H11   H     H_    0.879699 0.753350 0.319574 0.173881
O14   O     O_3   0.747539 0.574204 0.725840 -0.558669
C49   C     C_3   0.746601 0.703426 0.726587 0.052338
H12   H     H_    0.710515 0.735113 0.759366 0.143766
H13   H     H_    0.755718 0.744964 0.622741 0.167928
C50   C     C_3   0.783714 0.748959 0.829264 -0.744186
H14   H     H_    0.820252 0.720447 0.797315 0.245026
H15   H     H_    0.782934 0.850481 0.832163 0.203966
H16   H     H_    0.775678 0.710457 0.934635 0.266498
H17   H     H_    0.034316 0.710374 0.248888 0.140380
H18   H     H_    0.528851 0.902529 0.578488 0.168525
H19   H     H_    0.504138 0.115133 0.293953 0.138587
H20   H     H_    0.256418 0.411463 0.315552 0.161391
O15   O     O_3   0.478310 0.073328 0.633428 -0.569027
C51   C     C_3   0.511755 0.085835 0.743141 0.091243
H21   H     H_    0.507815 0.174862 0.793818 0.214302
H22   H     H_    0.549696 0.076486 0.707381 0.105922
C52   C     C_3   0.501401 0.988058 0.855123 -0.840548
H23   H     H_    0.504332 0.895082 0.812600 0.250500
H24   H     H_    0.527652 0.997080 0.940912 0.205302
H25   H     H_    0.464588 0.999645 0.897522 0.251970
O16   O     O_3   0.443754 0.342972 0.850120 -0.541502
C53   C     C_3   0.401406 0.304091 0.919905 0.042846
H26   H     H_    0.381156 0.383194 0.960125 0.183109
H27   H     H_    0.410307 0.238000 0.005398 0.125124
C54   C     C_3   0.369047 0.238072 0.818435 -0.720766
H28   H     H_    0.387979 0.158060 0.776376 0.254160
H29   H     H_    0.335693 0.205498 0.872107 0.200639
H30   H     H_    0.359169 0.301216 0.731301 0.252146
H31   H     H_    0.518034 0.568329 0.893026 0.145220
H32   H     H_    0.441465 0.386631 0.137864 0.190084
H33   H     H_    0.528293 0.540365 0.103819 0.198828
H34   H     H_    0.120888 0.305243 0.786520 0.186126
O17   O     O_3   0.646380 0.401194 0.271191 -0.552679
C55   C     C_3   0.636356 0.275031 0.292614 0.101923
H35   H     H_    0.616102 0.257074 0.391209 0.112176
H36   H     H_    0.670325 0.221991 0.294876 0.141428
C56   C     C_3   0.605446 0.229996 0.174009 -0.771876
H37   H     H_    0.624895 0.243854 0.073974 0.248846
H38   H     H_    0.597118 0.130911 0.190020 0.188962
H39   H     H_    0.571170 0.281130 0.169660 0.259761
H40   H     H_    0.740126 0.406412 0.299115 0.174457
O18   O     O_3   0.873174 0.179756 0.658184 -0.546992
C57   C     C_3   0.875340 0.101654 0.544024 0.119425
H41   H     H_    0.913291 0.080933 0.516540 0.156913
H42   H     H_    0.857153 0.143684 0.451991 0.136459
C58   C     C_3   0.849683 0.981397 0.581670 -0.752755
H43   H     H_    0.811556 0.998637 0.608991 0.261289
H44   H     H_    0.850672 0.919580 0.492219 0.205448
H45   H     H_    0.867679 0.935880 0.671459 0.241326
O19   O     O_3   0.971017 0.195349 0.700932 -0.578254
C59   C     C_3   0.958250 0.174897 0.842335 0.078949
H46   H     H_    0.920593 0.141835 0.854725 0.208982
H47   H     H_    0.962906 0.259710 0.902899 0.119623
C60   C     C_3   0.990215 0.075878 0.905058 -0.804348
H48   H     H_    0.028631 0.104530 0.898759 0.244350
H49   H     H_    0.980437 0.058913 0.015673 0.200317
H50   H     H_    0.985254 0.989425 0.848419 0.258560
H51   H     H_    0.035558 0.301872 0.789570 0.182707
O20   O     O_3   0.354767 0.618216 0.713912 -0.549469
C61   C     C_3   0.362600 0.742007 0.673153 0.095494
H52   H     H_    0.327778 0.790562 0.661206 0.140948
H53   H     H_    0.383152 0.749765 0.573793 0.127544
C62   C     C_3   0.391855 0.805236 0.783880 -0.746451
H54   H     H_    0.426808 0.758566 0.798482 0.260027
H55   H     H_    0.398738 0.902233 0.751606 0.221732
H56   H     H_    0.371832 0.802570 0.883729 0.241136

loop_
_geom_bond_atom_site_label_1
_geom_bond_atom_site_label_2
_geom_bond_distance
_ccdc_geom_bond_type
Cu2   O6    1.961573 S    
C17   C29   1.414753 A    
C28   C29   1.397520 A    
C21   O19   1.389416 S    
C52   H23   1.109225 S    
C12   C15   1.408620 A    
C30   C31   1.400740 A    
C37   H8    1.083430 S    
O19   C59   1.419792 S    
C55   H36   1.113919 S    
C52   H25   1.110673 S    
Cu1   Cu2   2.675121 S    
C43   H19   1.086327 S    
C31   C32   1.401847 A    
Cu1   O7    1.948557 S    
C45   N3    1.298505 D    
C50   H14   1.111039 S    
C20   C24   1.418444 A    
C24   C25   1.412159 A    
O17   C55   1.412184 S    
C62   H55   1.110435 S    
C26   N2    1.363701 A    
C9    O13   1.386278 S    
O7    C4    1.296699 A    
C41   H1    1.086602 S    
C5    O9    1.349730 S    
C39   H11   1.083451 S    
C5    N1    1.368091 A    
C22   C23   1.407744 A    
O5    C3    1.287418 A    
C51   H21   1.106478 S    
C57   C58   1.521615 S    
C45   C46   1.535908 S    
C2    C16   1.476111 S    
C26   O12   1.350062 S    
C23   C24   1.407367 A    
C60   H48   1.109904 S    
C56   H38   1.110582 S    
C48   H4    1.110565 S    
C14   H34   1.083525 S    
N2    C32   1.431870 S    
C59   C60   1.522626 S    
O13   C47   1.417859 S    
Cu2   N4    2.010592 S    
C9    C10   1.403047 A    
C17   C30   1.404947 A    
C19   C35   1.414382 A    
C49   C50   1.520799 S    
C53   H27   1.112191 S    
C55   H35   1.115393 S    
C6    O11   1.349730 S    
C46   H32   1.080759 S    
C33   C36   1.411965 A    
C1    C44   1.462095 S    
C22   O18   1.384235 S    
C47   H2    1.110286 S    
C12   C34   1.420964 A    
C33   C34   1.421268 A    
C18   C33   1.431229 A    
C12   C13   1.406463 A    
O3    C2    1.295604 A    
C62   H56   1.110530 S    
N2    C27   1.366015 A    
C40   H17   1.078617 S    
C3    C42   1.434497 S    
C8    C16   1.416004 A    
O3    Cu1   1.950226 S    
C13   C14   1.395625 A    
C38   C39   1.385061 A    
O6    C3    1.285517 A    
C53   C54   1.521302 S    
C28   H40   1.083220 S    
C45   O16   1.395440 S    
C43   C44   1.347599 D    
O1    C1    1.284321 A    
C8    O20   1.382177 S    
C7    C11   1.395927 A    
C29   O17   1.382452 S    
C25   C26   1.400074 A    
C19   C20   1.422490 A    
Cu2   O8    1.950220 S    
C56   H39   1.110752 S    
N4    H33   1.025859 S    
C48   H6    1.108722 S    
C51   H22   1.115241 S    
N1    C6    1.367737 A    
C10   H20   1.083340 S    
C54   H29   1.110395 S    
N1    C11   1.433459 S    
C19   C38   1.412187 A    
Cu1   N3    2.009227 S    
C57   H41   1.114270 S    
C61   H53   1.115080 S    
C58   H45   1.110910 S    
C25   C39   1.395492 A    
C49   H13   1.115906 S    
C34   C35   1.414222 A    
C50   H15   1.110509 S    
C9    C16   1.414031 A    
O8    C4    1.294613 A    
C38   H9    1.078614 S    
C27   O10   1.349227 S    
C4    C17   1.472792 S    
N3    H31   1.025987 S    
O15   C51   1.419252 S    
C15   C37   1.396840 A    
C58   H44   1.110337 S    
C59   H46   1.107952 S    
Cu1   O5    1.950520 S    
C18   C21   1.433714 A    
O1    Cu1   1.961573 S    
C31   O14   1.382554 S    
O2    Cu2   1.950520 S    
C6    C15   1.403618 A    
C49   H12   1.112777 S    
C41   C43   1.460757 S    
C61   C62   1.519956 S    
C42   H18   1.078523 S    
O4    Cu2   1.948560 S    
C52   H24   1.110720 S    
C30   H10   1.083273 S    
C35   C40   1.414633 A    
O20   C61   1.412162 S    
O16   C53   1.409311 S    
C47   C48   1.521390 S    
C46   N4    1.293904 D    
C7    C8    1.397342 A    
C14   C36   1.390114 A    
C23   C27   1.413186 A    
C36   H51   1.068437 S    
C62   H54   1.110459 S    
C18   C20   1.424706 A    
C41   C42   1.332973 D    
O4    C2    1.296546 A    
C37   C40   1.389299 A    
C60   H50   1.110874 S    
C53   H26   1.114716 S    
C21   C22   1.415098 A    
O2    C1    1.298851 A    
C54   H30   1.110561 S    
C10   C11   1.396380 A    
C51   C52   1.523067 S    
C57   H42   1.114418 S    
C5    C13   1.403847 A    
C61   H52   1.114365 S    
O14   C49   1.412269 S    
C44   O15   1.398266 S    
C50   H16   1.110752 S    
C60   H49   1.110651 S    
C54   H28   1.111040 S    
C28   C32   1.397327 A    
O18   C57   1.412592 S    
C7    H7    1.083193 S    
C48   H5    1.110354 S    
C47   H3    1.115239 S    
C55   C56   1.521631 S    
C56   H37   1.110604 S    
C58   H43   1.110765 S    
C59   H47   1.114763 S    
