data_mof_unit_pretest_1096.cif
_audit_creation_date              2012-12-11T17:45:30-0500
_audit_creation_method            fapswitch 2.2
_symmetry_space_group_name_H-M    P1
_symmetry_Int_Tables_number       1
_space_group_crystal_system       triclinic
_cell_length_a                    15.021198
_cell_length_b                    14.889584
_cell_length_c                    14.887915
_cell_angle_alpha                 109.522102
_cell_angle_beta                  109.007051
_cell_angle_gamma                 109.24655
_cell_volume                      2583.24326761

loop_
_atom_site_label
_atom_site_type_symbol
_atom_type_description
_atom_site_fract_x
_atom_site_fract_y
_atom_site_fract_z
_atom_type_partial_charge
C1    C     C_R   0.919529 0.200944 0.007377 -0.132388
C2    C     C_R   0.686441 0.246481 0.775304 -0.055325
C3    C     C_R   0.794664 0.590397 0.102844 -0.230509
C4    C     C_R   0.295471 0.803978 0.204598 0.407361
C5    C     C_R   0.014176 0.409950 0.706585 -0.111990
C6    C     C_R   0.707356 0.499838 0.081735 0.023341
C7    C     C_R   0.079737 0.500762 0.706158 0.051176
C8    C     C_R   0.679556 0.220621 0.673654 0.128649
C9    C     C_R   0.938780 0.762504 0.937681 0.035557
C10   C     C_R   0.711709 0.237204 0.240962 0.022800
C11   C     C_R   0.817805 0.323849 0.311219 -0.133354
C12   C     C_R   0.298096 0.867754 0.297940 -0.146897
C13   C     C_R   0.904163 0.302773 0.344746 0.069992
C14   C     C_R   0.882091 0.194019 0.308363 -0.168845
C15   C     C_R   0.775959 0.107987 0.239610 -0.149611
C16   C     C_R   0.223571 0.407949 0.972583 -0.030274
C17   C     C_R   0.690764 0.129319 0.205739 -0.096560
C18   C     C_R   0.054799 0.396029 0.527716 -0.144997
C19   C     C_R   0.115253 0.496973 0.624182 0.052105
C20   C     C_R   0.178169 0.591294 0.622758 0.032767
C21   C     C_R   0.159401 0.581500 0.520548 -0.221509
C22   C     C_R   0.069795 0.488755 0.424916 0.066375
C23   C     C_R   0.325746 0.499437 0.041958 0.012648
C24   C     C_R   0.015075 0.394110 0.429170 0.004579
C25   C     C_R   0.267106 0.796731 0.717917 -0.171694
C26   C     C_R   0.342766 0.899733 0.809105 -0.085866
C27   C     C_R   0.406630 0.909174 0.907339 -0.051370
C28   C     C_R   0.054844 0.588759 0.315364 -0.164898
C29   C     C_R   0.397420 0.815276 0.913418 -0.082735
C30   C     C_R   0.326342 0.711560 0.820163 -0.164451
C31   C     C_R   0.258155 0.700902 0.721801 0.109758
C32   C     C_R   0.139449 0.046210 0.257268 -0.166499
C33   C     C_R   0.239081 0.049532 0.298446 -0.102892
C34   C     C_R   0.033176 0.494508 0.324507 0.036900
C35   C     C_R   0.292925 0.072018 0.406867 0.150770
C36   C     C_R   0.246698 0.094171 0.474104 -0.064298
C37   C     C_R   0.147714 0.092491 0.433100 0.517386
C38   C     C_R   0.093502 0.066939 0.324242 -0.225534
C39   C     C_R   0.489814 0.150790 0.540181 0.393315
C40   C     C_R   0.314192 0.591544 0.060533 -0.161697
C41   C     C_R   0.583358 0.139670 0.570338 -0.081885
C42   C     C_R   0.582178 0.045049 0.504692 0.020407
C43   C     C_R   0.486628 0.959631 0.416604 -0.262691
C44   C     C_R   0.392872 0.966986 0.388310 0.043524
C45   C     C_R   0.707452 0.409066 0.015201 0.413927
C46   C     C_R   0.392650 0.063371 0.446300 -0.047608
C47   C     C_R   0.730134 0.042768 0.464850 -0.214027
C48   C     C_R   0.811085 0.014544 0.472888 -0.173507
C49   C     C_R   0.837229 0.968418 0.538333 -0.105225
C50   C     C_R   0.782931 0.950591 0.596660 0.544059
C51   C     C_R   0.703011 0.981648 0.590529 -0.320569
C52   C     C_R   0.966921 0.405565 0.220754 -0.060247
C53   C     C_R   0.676561 0.027614 0.524584 0.127330
C54   C     C_3   0.543317 0.412442 0.103235 0.475905
C55   C     C_3   0.442466 0.420345 0.102234 -0.484792
C56   C     C_R   0.098313 0.590961 0.792811 -0.131313
C57   C     C_3   0.632931 0.614357 0.161227 -0.408446
C58   C     C_3   0.536588 0.473663 0.962722 -0.544821
C59   C     C_3   0.608265 0.500081 0.080055 0.149766
C60   C     C_3   0.427707 0.498050 0.058617 0.170127
C61   C     C_3   0.527013 0.614263 0.145332 -0.482227
C62   C     C_3   0.426783 0.461625 0.946363 0.350216
C63   C     C_R   0.208127 0.072622 0.809187 -0.060949
C64   C     C_R   0.207949 0.805012 0.298876 0.440814
C65   C     C_R   0.105563 0.033349 0.799997 -0.148230
C66   C     C_R   0.094555 0.044114 0.892536 0.009458
C67   C     C_R   0.782079 0.254908 0.686896 -0.118785
C68   C     C_R   0.187042 0.092314 0.993648 -0.257767
C69   C     C_R   0.289193 0.127845 0.001807 0.510134
C70   C     C_R   0.299792 0.119375 0.909861 -0.226715
C71   C     C_R   0.955542 0.872541 0.848264 -0.144090
C72   C     C_R   0.897359 0.822236 0.890230 0.106370
C73   C     C_R   0.833363 0.862685 0.920859 0.082684
C74   C     C_R   0.849924 0.964835 0.933621 -0.287413
C75   C     C_R   0.934007 0.029436 0.923702 0.051053
C76   C     C_R   0.009422 0.202078 0.914490 -0.139800
C77   C     C_R   0.988041 0.981680 0.880216 0.100703
C78   C     C_R   0.927626 0.742217 0.019502 -0.120677
C79   C     C_R   0.649995 0.707102 0.842967 0.570867
C80   C     C_R   0.557210 0.664458 0.852845 -0.273534
C81   C     C_R   0.560464 0.713549 0.952648 -0.151888
C82   C     C_R   0.655621 0.802505 0.044033 -0.116520
C83   C     C_R   0.747418 0.846781 0.035080 -0.274691
C84   C     C_R   0.744782 0.800538 0.934520 0.032833
C85   C     C_R   0.960105 0.142754 0.954523 0.072173
C86   C     C_R   0.018873 0.739800 0.927366 -0.091222
Cl1   Cl    Cl    0.090976 0.120530 0.517879 -0.704402
Cl2   Cl    Cl    0.497408 0.276139 0.615895 -0.656495
Cl3   Cl    Cl    0.324019 0.324015 0.840476 -0.675307
Cl4   Cl    Cl    0.403006 0.178132 0.126085 -0.693034
Cl5   Cl    Cl    0.648032 0.277420 0.999252 -0.746649
H1    H     H_    0.862159 0.171378 0.033294 0.118329
H2    H     H_    0.645578 0.253724 0.215520 0.219928
H3    H     H_    0.832525 0.407195 0.340855 0.144459
H4    H     H_    0.946953 0.176454 0.336130 0.142246
H5    H     H_    0.759885 0.025095 0.214899 0.116296
H6    H     H_    0.014956 0.320979 0.527460 0.146811
H7    H     H_    0.208458 0.649892 0.515864 0.131079
H8    H     H_    0.215222 0.792491 0.644537 0.122601
H9    H     H_    0.351130 0.972097 0.803300 0.129002
H10   H     H_    0.462816 0.989310 0.978596 0.142875
H11   H     H_    0.445507 0.823463 0.990746 0.129205
H12   H     H_    0.150236 0.675871 0.822498 0.124291
H13   H     H_    0.320812 0.639379 0.825544 0.121761
H14   H     H_    0.015525 0.062197 0.291013 0.129140
H15   H     H_    0.203190 0.323169 0.940418 0.149080
H16   H     H_    0.097249 0.026415 0.173061 0.135995
H17   H     H_    0.273149 0.032163 0.245120 0.147500
H18   H     H_    0.285948 0.109725 0.557148 0.174967
H19   H     H_    0.485126 0.884614 0.370230 0.153635
H20   H     H_    0.708242 0.075402 0.411281 0.147550
H21   H     H_    0.851799 0.026174 0.426337 0.179915
H22   H     H_    0.898290 0.944316 0.541820 0.150339
H23   H     H_    0.805683 0.247698 0.624773 0.120117
H24   H     H_    0.104650 0.672314 0.381112 0.134507
H25   H     H_    0.659067 0.966818 0.633753 0.136001
H26   H     H_    0.511172 0.330212 0.035436 0.168630
H27   H     H_    0.369877 0.338135 0.049916 0.190724
H28   H     H_    0.451008 0.450826 0.185402 0.198536
H29   H     H_    0.684310 0.637792 0.247112 0.173518
H30   H     H_    0.527574 0.642099 0.224945 0.190569
H31   H     H_    0.577956 0.539557 0.947961 0.195687
H32   H     H_    0.525784 0.397799 0.900699 0.237016
H33   H     H_    0.376018 0.676288 0.108455 0.160271
H34   H     H_    0.874353 0.751935 0.051054 0.117216
H35   H     H_    0.409341 0.513179 0.912361 0.091272
H36   H     H_    0.677800 0.678809 0.146672 0.182252
H37   H     H_    0.523715 0.675071 0.119170 0.163813
H38   H     H_    0.378691 0.146987 0.915728 0.179011
H39   H     H_    0.216415 0.064138 0.737673 0.182501
H40   H     H_    0.034738 0.991985 0.720670 0.161704
H41   H     H_    0.178979 0.095923 0.064313 0.152646
H42   H     H_    0.996237 0.837635 0.812413 0.118838
H43   H     H_    0.799380 0.994610 0.955772 0.149454
H44   H     H_    0.938294 0.320589 0.196658 0.113558
H45   H     H_    0.049673 0.745785 0.872623 0.097226
H46   H     H_    0.482138 0.594587 0.783261 0.152533
H47   H     H_    0.489003 0.683305 0.959774 0.110225
H48   H     H_    0.657082 0.838094 0.121149 0.112759
H49   H     H_    0.819966 0.919066 0.105497 0.135735
H50   H     H_    0.029388 0.173000 0.851223 0.133285
H51   H     H_    0.401583 0.919894 0.203534 0.327410
H52   H     H_    0.759551 0.889896 0.688867 0.332174
H53   H     H_    0.627091 0.486710 0.263001 0.324627
H54   H     H_    0.575789 0.598745 0.689033 0.336446
H55   H     H_    0.089612 0.793110 0.326237 0.309652
H56   H     H_    0.620333 0.228258 0.792764 0.173044
H57   H     H_    0.826149 0.675079 0.160224 0.125432
H58   H     H_    0.995075 0.326293 0.661469 0.123139
H59   H     H_    0.608559 0.062333 0.153849 0.120542
N1    N     N_R   0.947080 0.293830 0.002870 -0.041819
N2    N     N_R   0.153670 0.443180 0.946090 -0.051036
N3    N     N_R   0.002360 0.556820 0.208890 -0.051421
N4    N     N_R   0.210070 0.556820 0.002870 -0.032081
N5    N     N_R   0.945960 0.443180 0.152110 -0.035041
N6    N     N_R   0.151710 0.706170 0.208890 -0.134130
N7    N     N_R   0.004320 0.293830 0.946090 -0.054214
N8    N     N_R   0.789930 0.443180 0.997130 -0.069398
N9    N     N_R   0.054040 0.556820 0.847890 -0.039875
N10   N     N_R   0.848290 0.293830 0.791110 -0.055891
N11   N     N_R   0.995680 0.706170 0.053910 -0.051209
N12   N     N_R   0.052920 0.706170 0.997130 -0.041078
N13   N     N_R   0.791050 0.293830 0.847890 -0.046037
N14   N     N_R   0.846330 0.556820 0.053910 -0.058304
N15   N     N_R   0.997640 0.443180 0.791110 -0.046678
N16   N     N_R   0.208950 0.706170 0.152110 -0.092400
Ni1   Ni    Ni4+2 0.869690 0.369690 0.000000 0.278908
Ni2   Ni    Ni4+2 0.130310 0.630310 0.000000 0.255025
Ni3   Ni    Ni4+2 0.000970 0.369690 0.869780 0.236455
Ni4   Ni    Ni4+2 0.999030 0.630310 0.130220 0.203980
O1    O     O_3   0.352741 0.839802 0.156275 -0.782278
O2    O     O_3   0.806827 0.899401 0.655415 -0.769964
O3    O     O_3   0.608726 0.419071 0.200353 -0.712412
O4    O     O_3   0.648289 0.663182 0.744344 -0.744956
O5    O     O_3   0.167760 0.846091 0.363286 -0.771327

loop_
_geom_bond_atom_site_label_1
_geom_bond_atom_site_label_2
_ccdc_geom_bond_type
C25   C31   A    
C49   H22   S    
C63   C65   A    
C58   C62   S    
N2    Ni3   S    
C6    C45   A    
C27   C29   A    
C41   C42   A    
C66   C68   A    
C17   H59   S    
C9    C72   S    
C3    C6    A    
C40   N4    A    
N11   N12   A    
C39   C41   A    
C55   H28   S    
C52   N5    A    
C26   C27   A    
C37   C38   A    
C83   C84   A    
C18   C24   A    
C39   Cl2   S    
C54   O3    S    
C61   H30   S    
C36   C37   A    
C4    O1    S    
C67   H23   S    
H52   O2    S    
C56   N9    A    
C42   C53   S    
C30   C31   A    
C12   C64   A    
C47   H20   S    
C57   C59   S    
C10   C17   A    
C80   H46   S    
C62   Cl3   S    
C5    H58   S    
N9    Ni2   S    
C60   C62   S    
C18   C19   A    
C73   C74   A    
C63   H39   S    
C68   H41   S    
C13   C14   A    
N7    Ni3   S    
N14   Ni4   S    
C75   C85   S    
C5    N15   A    
C35   C36   A    
N5    Ni1   S    
C68   C69   A    
C32   H16   S    
N3    Ni4   S    
N10   Ni3   S    
C67   N10   A    
C86   N12   A    
C18   H6    S    
C32   C38   A    
C4    C12   A    
C29   C30   A    
C73   C84   S    
N8    N14   A    
C47   C53   A    
C76   H50   S    
C28   C34   A    
C3    H57   S    
C21   C22   A    
N16   Ni2   S    
C79   O4    S    
N4    Ni2   S    
C81   H47   S    
C33   H17   S    
C7    C56   A    
C40   H33   S    
C83   H49   S    
C65   H40   S    
C44   C46   A    
N8    Ni1   S    
C81   C82   A    
C54   C59   S    
N15   Ni3   S    
C23   C60   S    
C22   C34   S    
C76   N7    A    
C58   H31   S    
C74   C75   A    
N10   N13   A    
C8    C41   S    
C15   H5    S    
C62   H35   S    
C72   C73   A    
C10   H2    S    
C25   C26   A    
C27   H10   S    
C70   H38   S    
N9    N15   A    
C13   C24   S    
C60   C61   S    
C51   C53   A    
H53   O3    S    
N13   Ni1   S    
C43   C44   A    
C57   H36   S    
C82   H48   S    
C28   H24   S    
C9    C86   A    
C47   C48   A    
C63   C70   A    
N6    N16   A    
H55   O5    S    
C50   C51   A    
C58   H32   S    
C16   N2    A    
C20   C21   A    
C64   O5    S    
C75   C77   A    
C3    N14   A    
C78   N11   A    
C39   C46   A    
N12   Ni2   S    
N11   Ni4   S    
C11   H3    S    
C86   H45   S    
C48   C49   A    
C43   H19   S    
N2    N4    A    
C65   C66   A    
C1    H1    S    
C7    C19   S    
C57   H29   S    
C28   N3    A    
C22   C24   A    
C58   C59   S    
C1    C85   A    
N3    N5    A    
C42   C43   A    
C69   Cl4   S    
N1    N7    A    
C14   H4    S    
C71   C77   A    
C5    C7    A    
C15   C17   A    
C66   C77   S    
C54   C55   S    
C48   H21   S    
C78   H34   S    
C6    C59   S    
C37   Cl1   S    
C2    C8    A    
C45   N8    A    
C56   H12   S    
C80   C81   A    
C2    N13   A    
C71   H42   S    
C57   C61   S    
C16   H15   S    
C16   C23   A    
C64   N6    A    
C34   C52   A    
C51   H25   S    
C32   C33   A    
C19   C20   A    
C25   H8    S    
C2    H56   S    
C71   C72   A    
C12   C44   S    
C21   H7    S    
C11   C13   A    
C79   C84   A    
C38   H14   S    
N1    Ni1   S    
C74   H43   S    
N6    Ni4   S    
C33   C35   A    
C4    N16   A    
C29   H11   S    
C1    N1    A    
C61   H37   S    
C9    C78   A    
C69   C70   A    
C45   Cl5   S    
C10   C11   A    
C79   C80   A    
H54   O4    S    
C8    C67   A    
C49   C50   A    
C54   H26   S    
C30   H13   S    
C36   H18   S    
C52   H44   S    
C14   C15   A    
C50   O2    S    
C82   C83   A    
C55   C60   S    
C35   C46   S    
C76   C85   A    
C55   H27   S    
C23   C40   A    
C26   H9    S    
H51   O1    S    
C20   C31   S    
