data_mof_unit_pretest_499.cif
_audit_creation_date              2012-12-10T16:57:42-0500
_audit_creation_method            fapswitch 2.2
_symmetry_space_group_name_H-M    P1
_symmetry_Int_Tables_number       1
_space_group_crystal_system       triclinic
_cell_length_a                    7.955306
_cell_length_b                    8.687035
_cell_length_c                    19.129535
_cell_angle_alpha                 94.992804
_cell_angle_beta                  84.936791
_cell_angle_gamma                 92.19874
_cell_volume                      1311.22184286

loop_
_atom_site_label
_atom_site_type_symbol
_atom_type_description
_atom_site_fract_x
_atom_site_fract_y
_atom_site_fract_z
_atom_type_partial_charge
C1    C     C_R   0.543947 0.793743 0.504302 0.876778
C2    C     C_R   0.688401 0.607844 0.187180 0.158373
C3    C     C_R   0.586337 0.521962 0.850493 -0.035937
C4    C     C_R   0.571760 0.532101 0.143343 -0.032746
C5    C     C_R   0.648223 0.398108 0.803653 0.160929
C6    C     C_R   0.422388 0.460690 0.172758 0.179513
C7    C     C_R   0.595965 0.380080 0.735104 0.139254
C8    C     C_R   0.406171 0.440708 0.245096 0.132095
C9    C     C_R   0.511386 0.501566 0.709691 -0.125952
C10   C     C_R   0.514881 0.524536 0.289712 -0.141693
C11   C     C_R   0.603568 0.525711 0.066718 0.315509
C12   C     C_R   0.457144 0.207932 0.506791 0.884116
C13   C     C_R   0.608469 0.521535 0.925633 0.314233
C14   C     C_3   0.408441 0.778360 0.725356 -0.939137
C15   C     C_3   0.746938 0.731570 0.307475 -0.864147
C16   C     C_3   0.405328 0.759842 0.878459 -0.848702
C17   C     C_3   0.854034 0.675279 0.155679 -0.879985
C18   C     C_3   0.771305 0.285669 0.825761 -0.862812
C19   C     C_3   0.277323 0.412060 0.128193 -0.871270
C20   C     C_3   0.637122 0.233510 0.688551 -0.870510
C21   C     C_3   0.271599 0.333722 0.275052 -0.920083
C22   C     C_3   0.860747 0.981643 0.460922 -0.715567
C23   C     C_2   0.570201 0.957537 0.514581 -0.045014
C24   C     C_3   0.209276 0.060919 0.616477 -0.800247
C25   C     C_3   0.925460 0.290449 0.377426 -0.741869
C26   C     C_3   0.052666 0.687285 0.629119 -0.693746
C27   C     C_2   0.436002 0.050174 0.523038 -0.052216
C28   C     C_R   0.501267 0.500424 0.633929 0.873883
C29   C     C_R   0.501960 0.505058 0.365835 0.891605
C30   C     C_R   0.466194 0.634269 0.754410 0.149411
C31   C     C_R   0.649301 0.617819 0.260645 0.141387
C32   C     C_R   0.487782 0.636519 0.826756 0.157091
H1    H     H_    0.269805 0.787417 0.736255 0.250168
H2    H     H_    0.909612 0.595196 0.112063 0.239235
H3    H     H_    0.832621 0.788297 0.135535 0.255317
H4    H     H_    0.950778 0.691764 0.194222 0.244781
H5    H     H_    0.872481 0.260668 0.782923 0.239450
H6    H     H_    0.837816 0.333441 0.871808 0.243000
H7    H     H_    0.703502 0.176136 0.838425 0.246120
H8    H     H_    0.153973 0.432870 0.158866 0.242696
H9    H     H_    0.276542 0.481727 0.082276 0.241442
H10   H     H_    0.285162 0.287650 0.109636 0.253056
H11   H     H_    0.553686 0.214391 0.645180 0.233253
H12   H     H_    0.471377 0.882508 0.750497 0.244847
H13   H     H_    0.770440 0.239522 0.665986 0.252170
H14   H     H_    0.616563 0.130506 0.719032 0.229911
H15   H     H_    0.322232 0.262484 0.313384 0.227800
H16   H     H_    0.172242 0.408763 0.300719 0.260504
H17   H     H_    0.217662 0.251087 0.234879 0.254020
H18   H     H_    0.784296 0.000881 0.567990 0.224755
H19   H     H_    0.964406 0.068483 0.462389 0.250227
H20   H     H_    0.802315 0.983984 0.410575 0.227950
H21   H     H_    0.918640 0.868613 0.463767 0.254534
H22   H     H_    0.185753 0.002601 0.510211 0.245870
H23   H     H_    0.443256 0.781969 0.668169 0.228663
H24   H     H_    0.080107 0.014355 0.630187 0.236275
H25   H     H_    0.202020 0.188529 0.618634 0.263073
H26   H     H_    0.293081 0.030596 0.656225 0.244962
H27   H     H_    0.145862 0.343046 0.425289 0.280495
H28   H     H_    0.990148 0.194492 0.344930 0.201748
H29   H     H_    0.914699 0.388153 0.344716 0.245914
H30   H     H_    0.798243 0.246228 0.393910 0.290450
H31   H     H_    0.850742 0.657709 0.571070 0.282453
H32   H     H_    0.977577 0.771816 0.664683 0.186350
H33   H     H_    0.181173 0.737233 0.619512 0.295514
H34   H     H_    0.668191 0.769041 0.356154 0.234545
H35   H     H_    0.053388 0.578389 0.655562 0.247112
H36   H     H_    0.863342 0.678786 0.321170 0.251423
H37   H     H_    0.780860 0.838908 0.281201 0.233382
H38   H     H_    0.343297 0.706752 0.925230 0.240523
H39   H     H_    0.501548 0.848262 0.895045 0.251026
H40   H     H_    0.303798 0.819280 0.856416 0.244237
N1    N     N_R   0.572801 0.390328 0.958113 -0.168334
N2    N     N_2   0.978079 0.659766 0.563324 -0.241855
N3    N     N_R   0.644857 0.656008 0.034151 -0.170070
N4    N     N_R   0.571983 0.392068 0.027466 -0.167174
N5    N     N_R   0.648911 0.653548 0.964526 -0.173343
N6    N     N_2   0.950330 0.457950 0.481240 0.030124
N7    N     N_2   0.049670 0.542050 0.518760 0.021784
N8    N     N_2   0.739101 0.017411 0.520396 -0.269908
N9    N     N_2   0.271042 0.996113 0.546943 -0.273640
N10   N     N_2   0.019270 0.338194 0.437399 -0.237040
O1    O     O_R   0.389250 0.738570 0.504600 -0.593624
O2    O     O_R   0.610750 0.261430 0.495400 -0.586177
O3    O     O_R   0.678400 0.711620 0.492580 -0.648930
O4    O     O_R   0.321600 0.288380 0.507420 -0.648187
O5    O     O_R   0.355380 0.513500 0.607880 -0.624240
O6    O     O_R   0.644620 0.486500 0.392120 -0.617161
O7    O     O_R   0.644530 0.486550 0.595850 -0.634070
O8    O     O_R   0.355470 0.513450 0.404150 -0.636800
Zn1   Zn    Zn3+2 0.306930 0.517990 0.508030 0.943133
Zn2   Zn    Zn3+2 0.693070 0.482010 0.491970 0.943716

loop_
_geom_bond_atom_site_label_1
_geom_bond_atom_site_label_2
_ccdc_geom_bond_type
O5    Zn1   S    
C16   H40   S    
H27   N10   S    
C24   N9    S    
C14   H1    S    
C21   H17   S    
C6    C19   S    
C26   H35   S    
C22   H20   S    
C18   H5    S    
C11   N4    A    
C12   O2    A    
C26   H32   S    
C29   O6    A    
C10   C31   A    
C1    O1    A    
O6    Zn2   S    
C24   H25   S    
C28   O7    A    
C17   H4    S    
C23   C27   D    
C23   N8    S    
N7    Zn1   S    
C20   H13   S    
C3    C13   S    
C19   H10   S    
C21   H16   S    
C14   H23   S    
C2    C17   S    
C16   H39   S    
C14   C30   S    
C29   O8    A    
O3    Zn2   S    
C22   H21   S    
C1    O3    A    
C15   H37   S    
C13   N5    A    
C12   C27   S    
C27   N9    S    
C16   H38   S    
C4    C6    A    
C5    C7    A    
N6    N7    D    
C6    C8    A    
C5    C18   S    
N6    Zn2   S    
C15   H34   S    
C2    C31   A    
O7    Zn2   S    
C2    C4    A    
C18   H7    S    
N6    N10   S    
C28   O5    A    
C8    C21   S    
C25   H29   S    
C4    C11   S    
O2    Zn2   S    
N3    N5    A    
C9    C30   A    
C8    C10   A    
C25   H28   S    
C13   N1    A    
C1    C23   S    
N2    N7    S    
C25   N10   S    
N1    N4    A    
C24   H24   S    
C17   H2    S    
C20   H11   S    
C14   H12   S    
C7    C9    A    
C26   H33   S    
C3    C5    A    
H18   N8    S    
C15   C31   S    
H31   N2    S    
C16   C32   S    
O1    Zn1   S    
C12   O4    A    
O4    Zn1   S    
C18   H6    S    
C22   N8    S    
C11   N3    A    
C30   C32   A    
C10   C29   S    
O8    Zn1   S    
C15   H36   S    
C26   N2    S    
C25   H30   S    
C3    C32   A    
C19   H8    S    
C24   H26   S    
C7    C20   S    
C17   H3    S    
H22   N9    S    
C20   H14   S    
C19   H9    S    
C9    C28   S    
C22   H19   S    
C21   H15   S    
