data_mof_unit_pretest_715.cif
_audit_creation_date              2013-03-05T16:40:44-0500
_audit_creation_method            fapswitch 2.2
_symmetry_space_group_name_H-M    P1
_symmetry_Int_Tables_number       1
_space_group_crystal_system       triclinic
_cell_length_a                    17.702896
_cell_length_b                    16.426409
_cell_length_c                    10.918952
_cell_angle_alpha                 89.996927
_cell_angle_beta                  90.135976
_cell_angle_gamma                 90.00176
_cell_volume                      3175.16781031

loop_
_atom_site_label
_atom_site_type_symbol
_atom_site_description
_atom_site_fract_x
_atom_site_fract_y
_atom_site_fract_z
_atom_type_partial_charge
O1    O     O_R   0.391260 0.567930 0.500000 -0.590339
O2    O     O_R   0.608740 0.432070 0.500000 -0.598896
O3    O     O_R   0.608740 0.567930 0.500000 -0.590350
O4    O     O_R   0.391260 0.432070 0.500000 -0.598901
C1    C     C_R   0.355288 0.499998 0.499799 0.929683
C2    C     C_R   0.644714 0.500000 0.500216 0.929651
O5    O     O_R   0.500000 0.567910 0.319660 -0.597917
O6    O     O_R   0.500000 0.432090 0.680340 -0.582444
O7    O     O_R   0.500000 0.567910 0.680340 -0.597936
O8    O     O_R   0.500000 0.432090 0.319660 -0.582472
C3    C     C_R   0.499992 0.500091 0.261716 0.916529
C4    C     C_R   0.500007 0.500088 0.738286 0.916424
Cu1   Cu    Cu3+1 0.500000 0.580420 0.500000 0.963551
Cu2   Cu    Cu3+1 0.500000 0.419580 0.500000 0.973735
H1    H     H_    0.454110 0.222866 0.084465 0.136809
H2    H     H_    0.455566 0.778697 0.913637 0.136823
H3    H     H_    0.545633 0.222816 0.915622 0.136807
H4    H     H_    0.544597 0.778670 0.086315 0.136826
C5    C     C_R   0.543849 0.647611 0.107268 0.035783
C6    C     C_R   0.544829 0.353904 0.894343 0.049656
C7    C     C_R   0.456233 0.647636 0.892715 0.035859
C8    C     C_R   0.455035 0.353954 0.105705 0.049843
C9    C     C_R   0.523893 0.721219 0.050877 -0.243899
C10   C     C_R   0.524393 0.280246 0.950116 -0.230988
C11   C     C_R   0.476237 0.721233 0.949085 -0.243939
C12   C     C_R   0.475402 0.280273 0.049952 -0.230945
C13   C     C_R   0.487537 0.573856 0.939136 0.043700
C14   C     C_R   0.487179 0.427451 0.060473 0.038975
C15   C     C_R   0.512506 0.573849 0.060855 0.043666
C16   C     C_R   0.512751 0.427436 0.939551 0.038963
C17   C     C_R   0.500115 0.500484 0.872259 -0.141022
C18   C     C_R   0.499876 0.500490 0.127746 -0.141029
C19   C     C_R   0.846657 0.572356 0.478535 0.416278
C20   C     C_R   0.153683 0.426416 0.476671 0.420430
C21   C     C_R   0.153364 0.572241 0.522179 0.416065
C22   C     C_R   0.846310 0.426376 0.522879 0.420135
C23   C     C_R   0.767445 0.571627 0.475646 -0.258359
C24   C     C_R   0.232938 0.428024 0.473554 -0.261331
C25   C     C_R   0.232568 0.571524 0.524977 -0.257900
C26   C     C_R   0.767065 0.427957 0.525991 -0.260975
H5    H     H_    0.737175 0.626931 0.453367 0.174456
H6    H     H_    0.263694 0.373354 0.450318 0.163258
H7    H     H_    0.262831 0.626769 0.547625 0.174711
H8    H     H_    0.736335 0.373173 0.548748 0.163178
C27   C     C_R   0.727540 0.499908 0.500618 -0.125715
C28   C     C_R   0.272463 0.499895 0.499449 -0.125926
C29   C     C_R   0.885439 0.499220 0.500543 -0.061138
C30   C     C_R   0.114571 0.499184 0.499628 -0.061154
C31   C     C_1   0.966191 0.498989 0.500236 0.106217
C32   C     C_1   0.033818 0.498976 0.499945 0.106257
C33   C     C_R   0.546301 0.828754 0.580859 -0.279298
C34   C     C_R   0.433696 0.170509 0.476850 -0.284334
C35   C     C_R   0.453724 0.828757 0.419103 -0.279265
C36   C     C_R   0.566334 0.170521 0.523074 -0.284292
H9    H     H_    0.582882 0.860372 0.644711 0.136111
H10   H     H_    0.381196 0.138886 0.458406 0.139142
H11   H     H_    0.417150 0.860377 0.355240 0.136125
H12   H     H_    0.618847 0.138912 0.541484 0.139140
C37   C     C_R   0.545461 0.742940 0.579441 0.052483
C38   C     C_R   0.434810 0.256333 0.477423 0.057620
C39   C     C_R   0.454548 0.742942 0.420545 0.052520
C40   C     C_R   0.565199 0.256344 0.522549 0.057616
H13   H     H_    0.581378 0.709717 0.642238 0.129330
H14   H     H_    0.382739 0.288181 0.459196 0.120672
H15   H     H_    0.418629 0.709721 0.357752 0.129380
H16   H     H_    0.617264 0.288200 0.540790 0.120657
N1    N     N_R   0.500000 0.701220 0.500000 -0.181265
N2    N     N_R   0.500000 0.298780 0.500000 -0.171123
C41   C     C_R   0.500016 0.872829 0.499975 0.147453
C42   C     C_R   0.500018 0.126420 0.499958 0.154314
C43   C     C_1   0.500021 0.962349 0.499964 -0.047460
C44   C     C_1   0.500022 0.036899 0.499958 -0.048147
C45   C     C_2   0.606889 0.649700 0.196923 0.401942
H17   H     H_    0.620896 0.706079 0.243655 0.048643
O9    O     O_2   0.645625 0.589461 0.215852 -0.561508
C46   C     C_2   0.609374 0.352380 0.808064 0.392655
H18   H     H_    0.627093 0.295233 0.767430 0.030318
O10   O     O_2   0.645708 0.413873 0.786265 -0.567124
C47   C     C_2   0.393177 0.649760 0.803090 0.401944
H19   H     H_    0.379188 0.706148 0.756363 0.048565
O11   O     O_2   0.354411 0.589539 0.784182 -0.561521
C48   C     C_2   0.390496 0.352501 0.192000 0.392393
H20   H     H_    0.372726 0.295374 0.232654 0.030204
O12   O     O_2   0.354221 0.414032 0.213785 -0.567272
O13   O     O_3   0.887281 0.642038 0.449463 -0.601761
C49   C     C_3   0.868711 0.707702 0.528095 0.062838
H21   H     H_    0.921680 0.728343 0.573253 0.173295
H22   H     H_    0.828702 0.691860 0.603417 0.127513
C50   C     C_3   0.836905 0.778257 0.452321 -0.335849
H23   H     H_    0.879880 0.798133 0.384534 0.227428
H24   H     H_    0.785934 0.757822 0.401398 0.218176
C51   C     C_3   0.815700 0.850407 0.533314 -0.932410
H25   H     H_    0.771134 0.832453 0.599510 0.254930
H26   H     H_    0.793667 0.900731 0.475467 0.259983
H27   H     H_    0.866015 0.872669 0.584248 0.257914
O14   O     O_3   0.113027 0.356737 0.446615 -0.601158
C52   C     C_3   0.136338 0.288332 0.516332 0.069913
H28   H     H_    0.085382 0.262558 0.561191 0.170794
H29   H     H_    0.176862 0.302667 0.591854 0.128286
C53   C     C_3   0.169495 0.223469 0.431238 -0.340461
H30   H     H_    0.125558 0.203857 0.364585 0.229384
H31   H     H_    0.217606 0.249192 0.378886 0.213236
C54   C     C_3   0.197033 0.149440 0.503021 -0.946853
H32   H     H_    0.242404 0.167383 0.568104 0.256691
H33   H     H_    0.220139 0.103437 0.438676 0.256965
H34   H     H_    0.149595 0.121564 0.554574 0.261876
O15   O     O_3   0.112779 0.641836 0.551790 -0.601564
C55   C     C_3   0.131048 0.707587 0.473124 0.062809
H35   H     H_    0.077946 0.728110 0.428256 0.173490
H36   H     H_    0.170965 0.691900 0.397600 0.127406
C56   C     C_3   0.162856 0.778179 0.548804 -0.335819
H37   H     H_    0.120024 0.797829 0.616970 0.227550
H38   H     H_    0.214042 0.757869 0.599274 0.218092
C57   C     C_3   0.183597 0.850491 0.467802 -0.932293
H39   H     H_    0.228003 0.832764 0.401192 0.254979
H40   H     H_    0.205666 0.900827 0.525582 0.260053
H41   H     H_    0.133057 0.872636 0.417338 0.257900
O16   O     O_3   0.886905 0.356538 0.552219 -0.601034
C58   C     C_3   0.863922 0.288687 0.481016 0.069958
H42   H     H_    0.915031 0.263465 0.435912 0.170848
H43   H     H_    0.823489 0.303556 0.405586 0.128546
C59   C     C_3   0.830743 0.222984 0.564621 -0.340691
H44   H     H_    0.874639 0.202774 0.630937 0.229233
H45   H     H_    0.782567 0.248164 0.617407 0.213122
C60   C     C_3   0.803312 0.149631 0.491179 -0.946253
H46   H     H_    0.757847 0.168134 0.426616 0.256974
H47   H     H_    0.780355 0.102909 0.554481 0.256870
H48   H     H_    0.850767 0.122421 0.438876 0.261786

loop_
_geom_bond_atom_site_label_1
_geom_bond_atom_site_label_2
_geom_bond_distance
_ccdc_geom_bond_type
C2    C27   1.466271 S    
C13   C15   1.399634 A    
C45   H17   1.085801 S    
C21   C25   1.402447 A    
C56   H37   1.111686 S    
O3    C2    1.284795 A    
C35   C41   1.404295 A    
C57   H39   1.111083 S    
C29   C31   1.429556 S    
C6    C16   1.423554 A    
O13   C49   1.417778 S    
C20   O14   1.390904 S    
O5    C3    1.281176 A    
O1    C1    1.284787 A    
C8    C48   1.482857 S    
C10   C12   1.394631 A    
C24   H6    1.080739 S    
C15   C18   1.426949 A    
C36   H12   1.083210 S    
C16   C17   1.424385 A    
C49   H22   1.117365 S    
C55   H35   1.111397 S    
C6    C46   1.482857 S    
C22   C29   1.404204 A    
C41   C43   1.470487 S    
O7    Cu1   1.979805 S    
O16   C58   1.418028 S    
C51   H25   1.111077 S    
C19   O13   1.388929 S    
C34   C38   1.409935 A    
C37   N1    1.366181 A    
C35   C39   1.409790 A    
C6    C10   1.402364 A    
C60   H48   1.110855 S    
O15   C55   1.417778 S    
C50   H24   1.110711 S    
C22   O16   1.390707 S    
C26   H8    1.080797 S    
O3    Cu1   1.935920 S    
C30   C32   1.429568 S    
C7    C13   1.425301 A    
C8    C14   1.423552 A    
Cu1   Cu2   2.642025 S    
O4    Cu2   1.935923 S    
C45   O9    1.221249 D    
O2    C2    1.284774 A    
C21   C30   1.404134 A    
C53   H31   1.110386 S    
C52   H29   1.116831 S    
C52   H28   1.111275 S    
C33   C37   1.409792 A    
C58   H43   1.116923 S    
C26   C27   1.400818 A    
H3    C10   1.083480 S    
C40   H16   1.078015 S    
C13   C17   1.426979 A    
H4    C9    1.083517 S    
C22   C26   1.403597 A    
C34   C42   1.401881 A    
C46   H18   1.084981 S    
C54   H33   1.110589 S    
O8    Cu2   1.979807 S    
C47   O11   1.221244 D    
C35   H11   1.083094 S    
C49   H21   1.111395 S    
H1    C12   1.083481 S    
C25   H7    1.082157 S    
C36   C40   1.409925 A    
C53   C54   1.526063 S    
C19   C23   1.402607 A    
C54   H34   1.110851 S    
C5    C9    1.401709 A    
C39   N1    1.366180 A    
C36   C42   1.401877 A    
C14   C18   1.424370 A    
O6    C4    1.283742 A    
O14   C52   1.418039 S    
C7    C47   1.483162 S    
C51   H26   1.110498 S    
C56   H38   1.110729 S    
C50   C51   1.526223 S    
C25   C28   1.400688 A    
C5    C45   1.483164 S    
C3    C18   1.462822 S    
C31   C32   1.197211 T    
C48   O12   1.221201 D    
C4    C17   1.462857 S    
C60   H46   1.111044 S    
C19   C29   1.404157 A    
O1    Cu1   1.935911 S    
C59   H45   1.110430 S    
C5    C15   1.425301 A    
C52   C53   1.531592 S    
Cu1   N1    1.984309 S    
C58   C59   1.531515 S    
H2    C11   1.083519 S    
C7    C11   1.401704 A    
O6    Cu2   1.979827 S    
C20   C24   1.403795 A    
C46   O10   1.221198 D    
O4    C1    1.284754 A    
C49   C50   1.530527 S    
C57   H40   1.110504 S    
C58   H42   1.111291 S    
C1    C28   1.466229 S    
C37   H13   1.081743 S    
C55   C56   1.530483 S    
C40   N2    1.370190 A    
C38   H14   1.078039 S    
C59   C60   1.526092 S    
C14   C16   1.396810 A    
C59   H44   1.111624 S    
C43   C44   1.224586 T    
C53   H30   1.111643 S    
C55   H36   1.117395 S    
C56   C57   1.526238 S    
C33   H9    1.083093 S    
C51   H27   1.110885 S    
C23   H5    1.082117 S    
O2    Cu2   1.935907 S    
O7    C4    1.281175 A    
C24   C28   1.400839 A    
C57   H41   1.110890 S    
C21   O15   1.388819 S    
O8    C3    1.283719 A    
C47   H19   1.085798 S    
C39   H15   1.081740 S    
O5    Cu1   1.979829 S    
C9    C11   1.393791 A    
C20   C30   1.404262 A    
C38   N2    1.370179 A    
C48   H20   1.084979 S    
C8    C12   1.402356 A    
C54   H32   1.110990 S    
C60   H47   1.110484 S    
Cu2   N2    1.984309 S    
C42   C44   1.470525 S    
C33   C41   1.404298 A    
C50   H23   1.111680 S    
C23   C27   1.400755 A    
C34   H10   1.083177 S    
