data_mof_unit_pretest_924.cif
_audit_creation_date              2012-12-10T21:42:38-0500
_audit_creation_method            fapswitch 2.2
_symmetry_space_group_name_H-M    P1
_symmetry_Int_Tables_number       1
_space_group_crystal_system       triclinic
_cell_length_a                    10.732256
_cell_length_b                    16.084094
_cell_length_c                    17.003907
_cell_angle_alpha                 87.887701
_cell_angle_beta                  90.221868
_cell_angle_gamma                 92.274812
_cell_volume                      2930.87635341

loop_
_atom_site_label
_atom_site_type_symbol
_atom_type_description
_atom_site_fract_x
_atom_site_fract_y
_atom_site_fract_z
_atom_type_partial_charge
C1    C     C_R   0.498747 0.489028 0.652584 0.884775
C2    C     C_R   0.500729 0.444041 0.220332 -0.228620
C3    C     C_R   0.497784 0.551784 0.860644 -0.212003
C4    C     C_R   0.502303 0.448209 0.139359 -0.212005
C5    C     C_R   0.494093 0.473710 0.901046 0.329265
C6    C     C_R   0.505996 0.526283 0.098955 0.329270
C7    C     C_R   0.490469 0.400653 0.859152 -0.206085
C8    C     C_R   0.509589 0.599341 0.140847 -0.206095
C9    C     C_R   0.491757 0.404896 0.777504 -0.239626
C10   C     C_R   0.508266 0.595101 0.222495 -0.239636
C11   C     C_R   0.462322 0.761737 0.449779 -0.071958
C12   C     C_R   0.501255 0.510972 0.347416 0.884776
C13   C     C_R   0.537546 0.238262 0.550270 -0.071979
C14   C     C_R   0.450828 0.848564 0.453502 -0.091493
C15   C     C_R   0.549043 0.151434 0.546567 -0.091510
C16   C     C_R   0.739777 0.499504 0.500921 0.900195
C17   C     C_R   0.260224 0.500496 0.499078 0.900197
C18   C     C_R   0.499631 0.889890 0.520155 0.271139
C19   C     C_R   0.500390 0.110105 0.479873 0.271142
C20   C     C_R   0.551865 0.841385 0.581140 -0.334935
C21   C     C_R   0.448282 0.158611 0.418843 -0.334948
C22   C     C_R   0.558309 0.755006 0.575074 -0.015932
C23   C     C_R   0.127956 0.501787 0.498424 -0.142998
C24   C     C_R   0.441823 0.244991 0.424895 -0.015918
C25   C     C_R   0.825513 0.709698 0.689748 -0.176957
C26   C     C_R   0.174562 0.290295 0.310283 -0.176916
C27   C     C_R   0.868154 0.671186 0.623131 -0.097207
C28   C     C_R   0.131884 0.328810 0.376889 -0.097110
C29   C     C_R   0.875073 0.584185 0.623221 0.152367
C30   C     C_R   0.124936 0.415810 0.376784 0.152361
C31   C     C_R   0.837287 0.536190 0.690097 -0.180529
C32   C     C_R   0.162728 0.463800 0.309907 -0.180532
C33   C     C_R   0.795656 0.574978 0.756750 -0.117197
C34   C     C_R   0.872046 0.498213 0.501576 -0.142996
C35   C     C_R   0.204392 0.425007 0.243264 -0.117198
C36   C     C_R   0.789222 0.661619 0.756508 -0.125122
C37   C     C_R   0.210856 0.338368 0.243521 -0.125155
C38   C     C_R   0.068075 0.546619 0.555857 -0.069799
C39   C     C_R   0.931927 0.453382 0.444142 -0.069796
C40   C     C_R   0.620233 0.108075 0.609437 0.136300
C41   C     C_R   0.584202 0.112189 0.688492 -0.166073
C42   C     C_R   0.650806 0.070626 0.747745 -0.139597
C43   C     C_R   0.754128 0.025208 0.728604 -0.126148
C44   C     C_R   0.791601 0.021738 0.650221 -0.158767
C45   C     C_R   0.061408 0.456033 0.442021 -0.066207
C46   C     C_R   0.725476 0.063352 0.590807 -0.118529
C47   C     C_R   0.379472 0.891926 0.390711 0.136269
C48   C     C_R   0.274331 0.936692 0.409465 -0.118525
C49   C     C_R   0.208048 0.978308 0.350127 -0.158677
C50   C     C_R   0.245255 0.974795 0.271698 -0.126154
C51   C     C_R   0.348472 0.929333 0.252434 -0.139616
C52   C     C_R   0.415237 0.887770 0.311610 -0.166083
C53   C     C_R   0.139250 0.593991 0.615986 0.142176
C54   C     C_R   0.180359 0.676774 0.599315 -0.088116
C55   C     C_R   0.239866 0.723109 0.657473 -0.137754
C56   C     C_R   0.938595 0.543966 0.557980 -0.066190
C57   C     C_R   0.256102 0.687738 0.732940 -0.132214
C58   C     C_R   0.213982 0.605712 0.750095 -0.118355
C59   C     C_R   0.156933 0.558559 0.691630 -0.151236
C60   C     C_R   0.860757 0.406016 0.384006 0.142158
C61   C     C_R   0.843095 0.441453 0.308362 -0.151246
C62   C     C_R   0.786066 0.394303 0.249888 -0.118325
C63   C     C_R   0.743946 0.312275 0.267034 -0.132249
C64   C     C_R   0.760159 0.276900 0.342502 -0.137807
C65   C     C_R   0.819646 0.323233 0.400669 -0.088097
C66   C     C_R   0.496527 0.482763 0.737662 -0.017288
C67   C     C_R   0.503495 0.517234 0.262338 -0.017280
C68   C     C_R   0.499324 0.555955 0.779670 -0.228631
H1    H     H_    0.756451 0.691462 0.808123 0.122682
H2    H     H_    0.179062 0.223176 0.310337 0.126186
H3    H     H_    0.844385 0.469167 0.691511 0.119570
H4    H     H_    0.155614 0.530822 0.308483 0.119562
H5    H     H_    0.769006 0.537840 0.808793 0.146505
H6    H     H_    0.231049 0.462140 0.191219 0.146505
H7    H     H_    0.500057 0.390249 0.108865 0.146736
H8    H     H_    0.500055 0.609744 0.891139 0.146739
H9    H     H_    0.487365 0.340470 0.889996 0.133778
H10   H     H_    0.512692 0.659523 0.110001 0.133773
H11   H     H_    0.503886 0.146775 0.704080 0.118782
H12   H     H_    0.243653 0.308521 0.191913 0.122683
H13   H     H_    0.622144 0.073487 0.808510 0.123006
H14   H     H_    0.805336 0.992884 0.774522 0.120386
H15   H     H_    0.871878 0.986785 0.635493 0.125285
H16   H     H_    0.755798 0.060438 0.530322 0.123281
H17   H     H_    0.244210 0.939637 0.469988 0.123296
H18   H     H_    0.127853 0.013294 0.364952 0.125286
H19   H     H_    0.193921 0.007117 0.225838 0.120395
H20   H     H_    0.376926 0.926438 0.191633 0.123016
H21   H     H_    0.495470 0.853151 0.295926 0.118771
H22   H     H_    0.594477 0.718046 0.623579 0.151394
H23   H     H_    0.489493 0.347644 0.745822 0.155643
H24   H     H_    0.405747 0.281948 0.376357 0.151369
H25   H     H_    0.898790 0.709043 0.572321 0.117796
H26   H     H_    0.101248 0.290957 0.427701 0.117770
H27   H     H_    0.165767 0.705268 0.541468 0.116723
H28   H     H_    0.272252 0.786661 0.644250 0.129338
H29   H     H_    0.301343 0.723835 0.778142 0.119103
H30   H     H_    0.225944 0.578551 0.808683 0.142166
H31   H     H_    0.124189 0.495196 0.705587 0.123266
H32   H     H_    0.875842 0.504816 0.294412 0.123270
H33   H     H_    0.774122 0.421467 0.191300 0.142164
H34   H     H_    0.510505 0.652353 0.254175 0.155649
H35   H     H_    0.698719 0.276180 0.221824 0.119104
H36   H     H_    0.727773 0.213346 0.355717 0.129351
H37   H     H_    0.834224 0.294734 0.458516 0.116723
H38   H     H_    0.496495 0.383176 0.249875 0.171406
H39   H     H_    0.503559 0.616820 0.750128 0.171424
H40   H     H_    0.576915 0.270933 0.599629 0.137250
H41   H     H_    0.422845 0.729064 0.400453 0.137221
H42   H     H_    0.586546 0.870483 0.633775 0.165375
H43   H     H_    0.413707 0.129511 0.366183 0.165354
H44   H     H_    0.821036 0.776817 0.689704 0.126171
N1    N     N_2   0.494457 0.466066 0.983667 -0.214508
N2    N     N_2   0.505645 0.533925 0.016333 -0.214511
N3    N     N_R   0.515300 0.716920 0.509720 -0.089420
N4    N     N_R   0.484700 0.283080 0.490280 -0.089419
N5    N     N_2   0.492534 0.977686 0.530696 -0.175650
N6    N     N_2   0.507496 0.022307 0.469342 -0.175638
O1    O     O_R   0.494530 0.422540 0.612660 -0.640681
O2    O     O_R   0.505470 0.577460 0.387340 -0.640653
O3    O     O_R   0.504350 0.561840 0.618900 -0.618511
O4    O     O_R   0.495650 0.438160 0.381100 -0.618526
O5    O     O_R   0.678330 0.430350 0.496870 -0.620959
O6    O     O_R   0.321670 0.569650 0.503130 -0.620974
O7    O     O_R   0.688150 0.569660 0.503110 -0.612914
O8    O     O_R   0.311850 0.430340 0.496890 -0.612903
Zn1   Zn    Zn3+2 0.493440 0.406980 0.495830 0.951520
Zn2   Zn    Zn3+2 0.506560 0.593020 0.504170 0.951523

loop_
_geom_bond_atom_site_label_1
_geom_bond_atom_site_label_2
_ccdc_geom_bond_type
C66   C68   A    
C35   H6    S    
C34   C56   A    
O8    Zn1   S    
C23   C45   A    
C27   C29   A    
C59   H31   S    
C41   C42   A    
C14   C18   A    
C30   C45   S    
C3    C68   A    
C58   H30   S    
C44   H15   S    
C9    H23   S    
C53   C59   A    
C32   H4    S    
C10   C67   A    
C15   C19   A    
C17   C23   S    
C35   C37   A    
C16   O5    A    
C11   C14   A    
C17   O8    A    
C11   H41   S    
C33   C36   A    
C28   H26   S    
C1    O1    A    
O4    Zn1   S    
C9    C66   A    
C6    N2    S    
C4    H7    S    
C25   H44   S    
C16   C34   S    
C12   O2    A    
C19   N6    S    
N4    Zn1   S    
O7    Zn2   S    
C31   C33   A    
C68   H39   S    
C11   N3    A    
C16   O7    A    
C7    H9    S    
C62   H33   S    
C31   H3    S    
C8    H10   S    
C52   H21   S    
C42   H13   S    
C13   H40   S    
C24   H24   S    
C65   H37   S    
C12   C67   S    
C44   C46   A    
C1    C66   S    
C37   H12   S    
C51   C52   A    
C32   C35   A    
C10   H34   S    
O3    Zn2   S    
C4    C6    A    
C2    C67   A    
C5    C7    A    
C6    C8    A    
C58   C59   A    
C53   C54   A    
C2    H38   S    
N3    Zn2   S    
C34   C39   A    
C60   C61   A    
C2    C4    A    
C43   C44   A    
C62   C63   A    
C21   H43   S    
C17   O6    A    
O5    Zn1   S    
C47   C48   A    
C57   H29   S    
C50   C51   A    
C22   H22   S    
C38   C56   A    
C3    H8    S    
C18   N5    S    
C54   H27   S    
C47   C52   A    
C50   H19   S    
C46   H16   S    
C63   H35   S    
C48   C49   A    
C20   C22   A    
C60   C65   A    
C24   N4    A    
C55   C57   A    
C26   H2    S    
C20   H42   S    
C27   H25   S    
C61   H32   S    
C42   C43   A    
C40   C46   A    
O6    Zn2   S    
C36   H1    S    
N1    N2    D    
C33   H5    S    
C64   H36   S    
C54   C55   A    
C22   N3    A    
C5    N1    S    
C49   H18   S    
C55   H28   S    
C3    C5    A    
C51   H20   S    
C41   H11   S    
O2    Zn2   S    
C26   C37   A    
C14   C47   S    
C29   C56   S    
C25   C27   A    
C23   C38   A    
C26   C28   A    
C39   C45   A    
C64   C65   A    
C13   C15   A    
C29   C31   A    
N5    N6    D    
C30   C32   A    
C57   C58   A    
C38   C53   S    
C39   C60   S    
C28   C30   A    
C18   C20   A    
C61   C62   A    
C1    O3    A    
C15   C40   S    
C13   N4    A    
C25   C36   A    
C63   C64   A    
C7    C9    A    
C12   O4    A    
C8    C10   A    
C49   C50   A    
C21   C24   A    
C43   H14   S    
C48   H17   S    
C40   C41   A    
C19   C21   A    
O1    Zn1   S    
