data_mof_unit_pretest_890.cif
_audit_creation_date              2012-12-11T14:56:33-0500
_audit_creation_method            fapswitch 2.2
_symmetry_space_group_name_H-M    P1
_symmetry_Int_Tables_number       1
_space_group_crystal_system       triclinic
_cell_length_a                    10.55114
_cell_length_b                    10.657695
_cell_length_c                    17.151097
_cell_angle_alpha                 80.420652
_cell_angle_beta                  90.009354
_cell_angle_gamma                 119.253273
_cell_volume                      1651.82719554

loop_
_atom_site_label
_atom_site_type_symbol
_atom_type_description
_atom_site_fract_x
_atom_site_fract_y
_atom_site_fract_z
_atom_type_partial_charge
C1    C     C_R   0.276873 0.887618 0.133023 0.553868
C2    C     C_1   0.651420 0.345169 0.707530 -0.037569
C3    C     C_R   0.524373 0.791067 0.777681 -0.154041
C4    C     C_R   0.637967 0.280513 0.087038 0.565961
C5    C     C_R   0.526141 0.783476 0.698116 0.213407
C6    C     C_R   0.660714 0.855306 0.653181 0.013715
C7    C     C_R   0.789431 0.947565 0.685509 -0.110304
C8    C     C_R   0.789313 0.948922 0.765910 0.213105
C9    C     C_R   0.655245 0.866223 0.812881 -0.010704
C10   C     C_R   0.256973 0.966090 0.758983 -0.101213
C11   C     C_R   0.238850 0.951515 0.680975 -0.115264
C12   C     C_R   0.756139 0.308765 0.286336 0.001567
C13   C     C_R   0.152519 0.812720 0.663452 0.056498
C14   C     C_R   0.091376 0.687218 0.724132 -0.135429
C15   C     C_R   0.112241 0.701803 0.802609 -0.162879
C16   C     C_R   0.640528 0.858549 0.125471 0.552215
C17   C     C_R   0.190665 0.841790 0.819940 0.035212
C18   C     C_R   0.686410 0.809811 0.357197 0.540074
C19   C     C_R   0.683227 0.385335 0.398365 0.546296
C20   C     C_R   0.107277 0.811970 0.359647 0.554235
C21   C     C_R   0.676172 0.806029 0.582144 0.574866
C22   C     C_R   0.678905 0.382533 0.624525 0.543676
C23   C     C_R   0.777114 0.343523 0.203486 -0.026110
C24   C     C_R   0.098867 0.801454 0.586378 0.560305
C25   C     C_R   0.223310 0.863228 0.899449 0.542190
C26   C     C_R   0.637123 0.284417 0.860845 0.546854
C27   C     C_R   0.639381 0.870279 0.895672 0.540022
C28   C     C_R   0.542737 0.339552 0.200082 0.214875
C29   C     C_R   0.544309 0.344216 0.281060 -0.147367
C30   C     C_R   0.650285 0.329419 0.324390 -0.025787
C31   C     C_3   0.833366 0.235121 0.333181 -0.222291
C32   C     C_3   0.992654 0.339818 0.345787 -0.369064
C33   C     C_3   0.930270 0.409628 0.161578 -0.228993
C34   C     C_R   0.658678 0.336647 0.161183 0.048535
C35   C     C_3   0.975551 0.296928 0.148865 -0.361654
C36   C     C_1   0.668794 0.849010 0.205541 -0.044036
C37   C     C_1   0.679900 0.839067 0.274918 -0.049980
C38   C     C_1   0.224682 0.852361 0.215392 -0.045863
C39   C     C_1   0.176500 0.833113 0.282787 -0.048614
C40   C     C_1   0.643629 0.323148 0.778048 -0.037655
Cr1   Cr    Cr6+3 0.402240 0.783890 0.019450 1.025938
Cr2   Cr    Cr6+3 0.382360 0.097900 0.991800 1.065084
Cr3   Cr    Cr6+3 0.715380 0.118170 0.988700 1.016029
Cr4   Cr    Cr6+3 0.936650 0.882420 0.465510 1.009256
Cr5   Cr    Cr6+3 0.605770 0.565620 0.493360 1.049064
Cr6   Cr    Cr6+3 0.921340 0.550490 0.496380 1.026205
H1    H     H_    0.286138 0.048876 0.634724 0.129264
H2    H     H_    0.020049 0.456252 0.332007 0.182928
H3    H     H_    0.012065 0.314508 0.408645 0.140030
H4    H     H_    0.771027 0.174697 0.392067 0.150573
H5    H     H_    0.828362 0.148127 0.303644 0.135189
H6    H     H_    0.074878 0.315829 0.178669 0.120358
H7    H     H_    0.887409 0.182767 0.170851 0.173848
H8    H     H_    0.002996 0.308825 0.084560 0.160111
H9    H     H_    0.939196 0.478429 0.103204 0.157261
H10   H     H_    0.011359 0.489132 0.194953 0.143931
H11   H     H_    0.318881 0.641272 0.706886 0.325674
H12   H     H_    0.022251 0.578924 0.711338 0.153012
H13   H     H_    0.912973 0.985286 0.853073 0.338180
H14   H     H_    0.064878 0.605469 0.849468 0.130419
H15   H     H_    0.463989 0.361051 0.309959 0.127426
H16   H     H_    0.419291 0.736040 0.812254 0.148193
H17   H     H_    0.894295 0.006150 0.650507 0.176187
H18   H     H_    0.323668 0.074940 0.771664 0.144197
H19   H     H_    0.360423 0.343872 0.194080 0.315958
H20   H     H_    0.068779 0.325681 0.308595 0.116695
O1    O     O_R   0.521780 0.757110 0.108900 -0.495347
O2    O     O_R   0.805020 0.410040 0.421340 -0.519821
O3    O     O_R   0.049240 0.685450 0.403290 -0.503852
O4    O     O_R   0.275160 0.783810 0.101120 -0.506932
O5    O     O_R   0.077520 0.903010 0.551800 -0.525296
O6    O     O_R   0.802980 0.872780 0.546830 -0.536407
O7    O     O_R   0.578090 0.681300 0.569920 -0.441860
O8    O     O_R   0.608530 0.436370 0.586530 -0.497184
O9    O     O_R   0.798770 0.401880 0.597100 -0.512289
O10   O     O_R   0.043450 0.677890 0.566230 -0.495852
O11   O     O_3   0.821250 0.666180 0.485090 -0.255538
O12   O     O_R   0.513330 0.228330 0.898660 -0.501980
O13   O     O_R   0.237900 0.972600 0.090980 -0.486191
O14   O     O_R   0.511190 0.220540 0.061620 -0.449507
O15   O     O_R   0.736920 0.257720 0.063840 -0.543715
O16   O     O_R   0.710450 0.984050 0.081720 -0.512479
O17   O     O_R   0.524090 0.765520 0.933110 -0.516525
O18   O     O_R   0.277300 0.791600 0.938160 -0.510857
O19   O     O_R   0.240210 0.981010 0.915190 -0.508314
O20   O     O_3   0.432773 0.342960 0.157590 -0.672433
O21   O     O_3   0.399716 0.701220 0.664304 -0.672719
O22   O     O_3   0.921794 0.025615 0.795793 -0.681636
O23   O     O_R   0.739230 0.266130 0.888050 -0.504256
O24   O     O_R   0.712580 0.991850 0.918770 -0.485101
O25   O     O_3   0.499990 0.999980 0.999980 -0.282384
O26   O     O_R   0.083770 0.911170 0.376030 -0.504978
O27   O     O_R   0.808770 0.880340 0.383890 -0.507744
O28   O     O_R   0.584340 0.689460 0.394160 -0.508217
O29   O     O_R   0.614320 0.443940 0.423590 -0.504263

loop_
_geom_bond_atom_site_label_1
_geom_bond_atom_site_label_2
_ccdc_geom_bond_type
C33   H9    S    
Cr2   O14   S    
C35   H7    S    
C11   C13   A    
C15   H14   S    
C11   H1    S    
Cr6   O10   S    
C7    C8    A    
Cr1   O1    S    
C26   O23   A    
C20   O26   A    
C12   C23   A    
C26   O12   A    
C27   O24   A    
C36   C37   T    
C18   C37   S    
C4    O14   A    
C38   C39   T    
C10   C17   A    
Cr1   O17   S    
C21   O7    A    
Cr4   O5    S    
Cr5   O7    S    
Cr2   O25   S    
H13   O22   S    
Cr6   O3    S    
Cr4   O27   S    
C4    O15   A    
C8    C9    A    
C23   C33   S    
C2    C22   S    
C25   O18   A    
Cr4   O26   S    
C33   H10   S    
C28   C34   A    
Cr2   O13   S    
C13   C14   A    
C35   H8    S    
C32   H2    S    
C22   O9    A    
Cr5   O28   S    
C16   O16   A    
Cr6   O9    S    
C4    C34   S    
C14   H12   S    
C29   H15   S    
Cr3   O24   S    
C21   O6    A    
H19   O20   S    
Cr2   O19   S    
C20   C39   S    
C24   O10   A    
C6    C21   S    
Cr3   O25   S    
H11   O21   S    
C13   C24   S    
Cr5   O8    S    
C8    O22   S    
Cr6   O2    S    
C29   C30   A    
C3    C9    A    
C31   C32   S    
C23   C34   A    
C25   O19   A    
C19   O2    A    
C16   O1    A    
Cr3   O23   S    
C7    H17   S    
C1    C38   S    
Cr1   O25   S    
Cr2   O12   S    
C12   C31   S    
C28   O20   S    
C1    O13   A    
C20   O3    A    
C22   O8    A    
C31   H4    S    
Cr5   O29   S    
C19   O29   A    
C9    C27   S    
C32   H20   S    
C3    H16   S    
C15   C17   A    
C28   C29   A    
Cr3   O15   S    
C12   C30   A    
C10   H18   S    
C31   H5    S    
C3    C5    A    
Cr6   O11   S    
C6    C7    A    
Cr4   O11   S    
C1    O4    A    
C17   C25   S    
C27   O17   A    
C16   C36   S    
Cr1   O18   S    
C26   C40   S    
C5    C6    A    
C18   O28   A    
C33   C35   S    
Cr4   O6    S    
C32   H3    S    
C10   C11   A    
C5    O21   S    
C2    C40   T    
C35   H6    S    
C18   O27   A    
C14   C15   A    
Cr5   O11   S    
C19   C30   S    
Cr3   O16   S    
C24   O5    A    
Cr1   O4    S    
