data_mof_unit_pretest_44.cif
_audit_creation_date              2012-12-11T15:12:42-0500
_audit_creation_method            fapswitch 2.2
_symmetry_space_group_name_H-M    P1
_symmetry_Int_Tables_number       1
_space_group_crystal_system       triclinic
_cell_length_a                    22.291566
_cell_length_b                    7.014228
_cell_length_c                    19.386807
_cell_angle_alpha                 90.351116
_cell_angle_beta                  99.248069
_cell_angle_gamma                 89.685417
_cell_volume                      2991.79616966

loop_
_atom_site_label
_atom_site_type_symbol
_atom_type_description
_atom_site_fract_x
_atom_site_fract_y
_atom_site_fract_z
_atom_type_partial_charge
O1    O     O_R   0.448420 0.506120 0.415750 -0.531633
O2    O     O_R   0.551580 0.006120 0.584250 -0.530296
O3    O     O_R   0.436490 0.174470 0.555610 -0.539592
O4    O     O_R   0.563510 0.674470 0.444390 -0.540739
C1    C     C_R   0.421698 0.344845 0.576151 0.801634
C2    C     C_R   0.578496 0.843419 0.423983 0.798154
O5    O     O_R   0.441310 0.176330 0.414520 -0.541912
O6    O     O_R   0.558690 0.676330 0.585480 -0.542157
O7    O     O_R   0.556430 0.007110 0.442150 -0.526740
O8    O     O_R   0.443570 0.507110 0.557850 -0.528155
C3    C     C_R   0.426657 0.345021 0.388718 0.932156
C4    C     C_R   0.573399 0.845237 0.611232 0.931454
O9    O     O_3   0.537770 0.339560 0.509230 -0.380379
O10   O     O_3   0.462230 0.839560 0.490770 -0.381243
V1    V     V_3+5 0.492990 0.064280 0.498290 1.546021
V2    V     V_3+5 0.507010 0.564280 0.501710 1.545063
C5    C     C_R   0.869387 0.982859 0.693990 0.616342
C6    C     C_R   0.129680 0.471312 0.306700 0.613849
H1    H     H_    0.786021 0.984165 0.579734 0.195773
H2    H     H_    0.212770 0.466525 0.421168 0.195783
C7    C     C_R   0.886909 0.941881 0.819884 -0.156775
C8    C     C_R   0.112885 0.442266 0.180242 -0.149765
C9    C     C_R   0.591941 0.821040 0.739190 0.486682
C10   C     C_R   0.408435 0.325937 0.260481 0.486956
C11   C     C_R   0.629173 0.820032 0.803951 0.618017
C12   C     C_R   0.371293 0.327001 0.195647 0.616818
C13   C     C_R   0.691452 0.849590 0.809230 -0.321422
C14   C     C_R   0.308821 0.354190 0.190509 -0.325006
C15   C     C_R   0.718679 0.882544 0.749297 -0.023752
C16   C     C_R   0.281263 0.382289 0.250688 -0.022462
C17   C     C_R   0.680019 0.886079 0.682464 -0.114230
C18   C     C_R   0.319756 0.382547 0.317661 -0.114852
C19   C     C_R   0.782962 0.912605 0.753764 0.063179
C20   C     C_R   0.216802 0.410635 0.246343 0.062845
C21   C     C_R   0.806841 0.949890 0.691666 -0.097569
C22   C     C_R   0.192475 0.441134 0.308798 -0.097656
C23   C     C_R   0.768191 0.954600 0.627305 -0.200928
C24   C     C_R   0.230933 0.441964 0.373322 -0.197896
C25   C     C_R   0.706251 0.921919 0.622274 0.569558
C26   C     C_R   0.293117 0.412371 0.378162 0.569950
C27   C     C_R   0.824501 0.907981 0.817644 -0.231548
C28   C     C_R   0.175492 0.410456 0.182269 -0.235042
C29   C     C_R   0.909676 0.979841 0.757573 0.015293
C30   C     C_R   0.089644 0.473822 0.242897 0.021253
C31   C     C_R   0.616240 0.853184 0.678075 -0.298329
C32   C     C_R   0.383789 0.352781 0.321869 -0.299754
H3    H     H_    0.809935 0.880575 0.866986 0.118207
H4    H     H_    0.190354 0.387682 0.132654 0.117537
H5    H     H_    0.716943 0.846687 0.861310 0.158186
H6    H     H_    0.283439 0.353129 0.138352 0.158277
C33   C     C_3   0.807950 0.752778 0.257135 -0.453694
C34   C     C_3   0.199277 0.232790 0.750038 -0.468322
C35   C     C_3   0.791044 0.100304 0.254800 -0.482791
C36   C     C_3   0.208850 0.586177 0.750383 -0.481905
C37   C     C_3   0.739095 0.092681 0.301061 0.647278
C38   C     C_3   0.260424 0.590376 0.704292 0.645921
H7    H     H_    0.855394 0.778575 0.283672 0.127556
H8    H     H_    0.150277 0.238014 0.726546 0.132741
H9    H     H_    0.788245 0.235150 0.224850 0.198364
H10   H     H_    0.209252 0.720641 0.781162 0.189936
H11   H     H_    0.836354 0.106827 0.288734 0.123427
H12   H     H_    0.163505 0.584411 0.716389 0.121432
C39   C     C_1   0.624990 0.850075 0.379518 -0.173624
C40   C     C_1   0.375907 0.355307 0.621396 -0.169016
C41   C     C_3   0.789853 0.922114 0.205496 0.092571
C42   C     C_3   0.213511 0.408220 0.799324 0.077755
C43   C     C_3   0.764121 0.730763 0.312149 0.565349
C44   C     C_3   0.240690 0.225989 0.691782 0.574517
C45   C     C_3   0.711042 0.884794 0.296011 0.031540
C46   C     C_3   0.291399 0.387361 0.707109 0.035267
C47   C     C_3   0.679939 0.844365 0.216126 -0.019079
C48   C     C_3   0.324590 0.352201 0.785823 -0.045802
C49   C     C_3   0.723050 0.900661 0.160806 0.246680
C50   C     C_3   0.280781 0.390341 0.843126 0.252187
C51   C     C_1   0.664215 0.862107 0.342697 0.063010
C52   C     C_1   0.337417 0.368673 0.659150 0.058764
C53   C     C_1   0.837370 0.938689 0.159462 -0.011234
C54   C     C_1   0.164917 0.425956 0.843943 0.002075
C55   C     C_1   0.875677 0.945331 0.121465 -0.205355
C56   C     C_1   0.125381 0.438525 0.880211 -0.213711
H13   H     H_    0.678824 0.687177 0.211731 0.198104
H14   H     H_    0.330685 0.195115 0.786544 0.179910
H15   H     H_    0.812962 0.615208 0.231203 0.197042
H16   H     H_    0.203546 0.098234 0.780169 0.192808
O11   O     O_R   0.056480 0.288780 0.942210 -0.533979
O12   O     O_R   0.943520 0.788780 0.057790 -0.535312
O13   O     O_R   0.058700 0.616820 0.085490 -0.541818
O14   O     O_R   0.941300 0.116820 0.914510 -0.534807
C57   C     C_R   0.072425 0.448737 0.111952 0.737213
C58   C     C_R   0.927296 0.948491 0.888237 0.733625
O15   O     O_R   0.063520 0.618570 0.944410 -0.538416
O16   O     O_R   0.936480 0.118570 0.055590 -0.537617
O17   O     O_R   0.948420 0.787670 0.915740 -0.538680
O18   O     O_R   0.051580 0.287670 0.084260 -0.535125
C59   C     C_R   0.078742 0.449438 0.924236 0.721174
C60   C     C_R   0.921385 0.951016 0.076041 0.716550
O19   O     O_3   0.962260 0.453430 0.990800 -0.367577
O20   O     O_3   0.037740 0.953430 0.009200 -0.368954
V3    V     V_3+5 0.007000 0.728750 0.001710 1.407721
V4    V     V_3+5 0.993000 0.228750 0.998290 1.414769
C61   C     C_3   0.976655 0.017130 0.757363 -0.308093
C62   C     C_3   0.989022 0.230408 0.753844 -0.687054
H17   H     H_    0.963525 0.292056 0.705086 0.258359
H18   H     H_    0.975364 0.305360 0.799547 0.216749
H19   H     H_    0.038315 0.253696 0.754361 0.196979
H20   H     H_    0.005443 0.957624 0.804443 0.150106
H21   H     H_    0.991545 0.944008 0.711931 0.214573
C63   C     C_3   0.022353 0.508988 0.242854 -0.319374
C64   C     C_3   0.987918 0.321476 0.242855 -0.720032
H22   H     H_    0.992658 0.235155 0.195862 0.222275
H23   H     H_    0.005651 0.238181 0.290392 0.249044
H24   H     H_    0.938883 0.351357 0.242535 0.204195
H25   H     H_    0.015204 0.593915 0.289447 0.227996
H26   H     H_    0.002265 0.595143 0.196966 0.161003
C65   C     C_3   0.763448 0.174351 0.375622 -0.299223
C66   C     C_3   0.715353 0.235666 0.419780 -0.587334
H27   H     H_    0.680223 0.329417 0.390072 0.282334
H28   H     H_    0.693386 0.113479 0.440489 0.223319
H29   H     H_    0.738147 0.313095 0.466718 0.190589
H30   H     H_    0.796704 0.084535 0.407640 0.121019
H31   H     H_    0.790130 0.302762 0.368763 0.226674
C67   C     C_3   0.234923 0.674644 0.630855 -0.297716
C68   C     C_3   0.282063 0.736905 0.586046 -0.581441
H32   H     H_    0.318187 0.826186 0.616110 0.288831
H33   H     H_    0.302973 0.615290 0.562657 0.214315
H34   H     H_    0.258525 0.818574 0.540809 0.192268
H35   H     H_    0.201155 0.586678 0.598607 0.120017
H36   H     H_    0.208343 0.802620 0.640005 0.222085
F1    F     F_    0.694043 0.218590 0.273441 -0.665449
F2    F     F_    0.302903 0.720314 0.734420 -0.663041
C69   C     C_3   0.719995 0.749914 0.099313 -0.308735
C70   C     C_3   0.749908 0.555992 0.113139 -0.841227
H37   H     H_    0.800081 0.566527 0.118713 0.234586
H38   H     H_    0.735666 0.488754 0.159096 0.263333
H39   H     H_    0.735434 0.464302 0.066714 0.232082
H40   H     H_    0.671532 0.723037 0.077594 0.203476
H41   H     H_    0.741295 0.810869 0.056274 0.197111
C71   C     C_3   0.288035 0.212807 0.894237 -0.329095
C72   C     C_3   0.248175 0.206276 0.951799 -0.736489
H42   H     H_    0.241440 0.348637 0.974447 0.227178
H43   H     H_    0.203426 0.142181 0.931252 0.220430
H44   H     H_    0.270112 0.112710 0.994693 0.224650
H45   H     H_    0.280614 0.076453 0.864898 0.171976
H46   H     H_    0.336209 0.203775 0.919960 0.195584
C73   C     C_3   0.704892 0.096553 0.122454 -0.364219
C74   C     C_3   0.654916 0.100326 0.057364 -0.747054
H47   H     H_    0.670456 0.031061 0.011717 0.240824
H48   H     H_    0.612164 0.033910 0.066108 0.245707
H49   H     H_    0.644194 0.250929 0.042653 0.232268
H50   H     H_    0.692308 0.203948 0.158510 0.259403
H51   H     H_    0.745809 0.152979 0.103876 0.174272
C75   C     C_3   0.295074 0.580745 0.887284 -0.290966
C76   C     C_3   0.346859 0.580951 0.950269 -0.725023
H52   H     H_    0.339900 0.474203 0.990033 0.265086
H53   H     H_    0.392051 0.559940 0.935303 0.235851
H54   H     H_    0.347782 0.722779 0.976238 0.219940
H55   H     H_    0.302821 0.700913 0.853650 0.228924
H56   H     H_    0.254046 0.624332 0.909234 0.163683
F3    F     F_    0.737587 0.553089 0.302356 -0.674925
F4    F     F_    0.270584 0.052793 0.697003 -0.668352
C77   C     C_3   0.609544 0.875518 0.196144 -0.403945
C78   C     C_3   0.582456 0.071964 0.207889 -0.462128
H57   H     H_    0.590092 0.112074 0.263943 0.264175
H58   H     H_    0.599239 0.185063 0.176757 0.241221
H59   H     H_    0.532510 0.065077 0.190959 0.239369
H60   H     H_    0.594259 0.828711 0.141575 0.181453
H61   H     H_    0.586455 0.773860 0.227020 0.198315
C79   C     C_3   0.394036 0.398685 0.805489 -0.393555
C80   C     C_3   0.415794 0.601560 0.795394 -0.457742
H62   H     H_    0.408919 0.639620 0.739233 0.266285
H63   H     H_    0.394181 0.708842 0.825388 0.237533
H64   H     H_    0.465384 0.607831 0.814790 0.244971
H65   H     H_    0.410632 0.351844 0.859643 0.181151
H66   H     H_    0.419705 0.305395 0.773663 0.193591
F5    F     F_    0.891446 0.018615 0.633883 -0.701689
F6    F     F_    0.107212 0.497915 0.367304 -0.700938
F7    F     F_    0.531409 0.791311 0.735877 -0.696616
F8    F     F_    0.469201 0.299406 0.263570 -0.692547
F9    F     F_    0.604685 0.789445 0.862608 -0.660681
F10   F     F_    0.396076 0.301106 0.136752 -0.661609
F11   F     F_    0.672522 0.927569 0.557571 -0.748620
F12   F     F_    0.326642 0.414715 0.443034 -0.747546
C81   C     C_3   0.803729 0.720972 0.386315 -0.338803
C82   C     C_3   0.769085 0.710363 0.448161 -0.674486
H67   H     H_    0.754925 0.852990 0.463554 0.230029
H68   H     H_    0.728095 0.621441 0.435438 0.251517
H69   H     H_    0.798859 0.648237 0.494042 0.221596
H70   H     H_    0.831585 0.588996 0.387778 0.192397
H71   H     H_    0.839247 0.831693 0.395047 0.137245
C83   C     C_3   0.198479 0.220091 0.619246 -0.337921
C84   C     C_3   0.230547 0.214601 0.555111 -0.667170
H72   H     H_    0.242447 0.358703 0.539911 0.226815
H73   H     H_    0.272699 0.128716 0.564930 0.251813
H74   H     H_    0.199848 0.151820 0.509994 0.221406
H75   H     H_    0.171258 0.087843 0.617277 0.188591
H76   H     H_    0.162549 0.330505 0.614211 0.134651

loop_
_geom_bond_atom_site_label_1
_geom_bond_atom_site_label_2
_ccdc_geom_bond_type
C61   H21   S    
C24   C26   A    
C49   C69   S    
C83   C84   S    
C9    C31   A    
O12   V3    S    
C13   C15   A    
C80   H63   S    
C80   H62   S    
C35   C37   S    
O1    C3    A    
O2    C4    A    
C2    O7    A    
C84   H73   S    
C73   C74   S    
C35   H9    S    
O3    V1    S    
C68   H32   S    
C36   H10   S    
C63   C64   S    
C79   H66   S    
C50   C71   S    
C61   C62   S    
C37   C65   S    
C65   H31   S    
C21   C23   A    
C10   C12   A    
C74   H47   S    
C71   H45   S    
C64   H23   S    
C74   H48   S    
C72   H44   S    
C54   C56   T    
C68   H33   S    
C12   F10   S    
C65   C66   S    
C74   H49   S    
C15   C19   A    
O16   C60   A    
C41   C49   S    
C82   H67   S    
C62   H19   S    
C45   C47   S    
C33   C41   S    
C63   H26   S    
C67   H35   S    
C34   H16   S    
H1    C23   S    
C7    C29   A    
C14   H6    S    
C8    C30   A    
C82   H68   S    
C70   H37   S    
C37   F1    S    
C20   C28   A    
C8    C28   A    
C34   H8    S    
C33   H7    S    
C44   C83   S    
C76   H53   S    
C35   C41   S    
O17   V3    S    
C78   H58   S    
C77   H60   S    
C34   C44   S    
C83   H76   S    
C44   C46   S    
C53   C55   T    
O6    V2    S    
C48   C79   S    
C50   C75   S    
C35   H11   S    
C81   H71   S    
C12   C14   A    
O19   V3    S    
C77   C78   S    
C26   F12   S    
C7    C58   S    
C30   C63   S    
C27   H3    S    
C79   H65   S    
C42   C54   S    
C36   C38   S    
C41   C53   S    
C16   C20   A    
C44   F4    S    
C84   H72   S    
C48   C50   S    
C69   H40   S    
C64   H24   S    
C47   C49   S    
C68   H34   S    
C28   H4    S    
O5    V1    S    
C36   H12   S    
C43   C81   S    
C1    C40   S    
C49   C73   S    
C43   C45   S    
C38   C67   S    
C2    C39   S    
O4    V2    S    
O5    C3    A    
C81   C82   S    
C29   C61   S    
C69   H41   S    
C6    C30   A    
C78   H59   S    
H2    C24   S    
O18   V4    S    
O6    C4    A    
C40   C52   T    
O1    V2    S    
C77   H61   S    
C72   H43   S    
C56   C59   S    
C62   H18   S    
O2    V1    S    
C25   F11   S    
O12   C60   A    
C83   H75   S    
C75   H56   S    
C7    C27   A    
O4    C2    A    
C79   C80   S    
O14   C58   A    
C65   H30   S    
C38   C46   S    
O9    V1    S    
C10   F8    S    
C80   H64   S    
O10   V2    S    
C46   C52   S    
C69   C70   S    
O14   V4    S    
C33   H15   S    
O19   V4    S    
C34   C42   S    
O16   V4    S    
C58   O17   A    
C78   H57   S    
C61   H20   S    
C75   H55   S    
C47   C77   S    
C18   C32   A    
C73   H50   S    
C4    C31   S    
O3    C1    A    
C57   O18   A    
C46   C48   S    
C72   H42   S    
C11   F9    S    
C67   C68   S    
C36   C42   S    
C73   H51   S    
C11   C13   A    
C63   H25   S    
O20   V4    S    
C66   H29   S    
C82   H69   S    
C37   C45   S    
C14   C16   A    
O7    V1    S    
C84   H74   S    
C19   C27   A    
C1    O8    A    
C15   C17   A    
O11   V4    S    
O8    V2    S    
C81   H70   S    
C16   C18   A    
O11   C59   A    
C76   H54   S    
C33   C43   S    
C39   C51   T    
C71   H46   S    
C70   H39   S    
C70   H38   S    
C22   C24   A    
C19   C21   A    
C8    C57   S    
C66   H28   S    
C66   H27   S    
C45   C51   S    
C20   C22   A    
C18   C26   A    
C67   H36   S    
C62   H17   S    
C38   F2    S    
C9    F7    S    
C71   C72   S    
O15   C59   A    
O13   V3    S    
C5    F5    S    
C55   C60   S    
C9    C11   A    
C75   C76   S    
C23   C25   A    
O20   V3    S    
C17   C31   A    
O9    V2    S    
C5    C29   A    
C17   C25   A    
O13   C57   A    
O10   V1    S    
C3    C32   S    
C43   F3    S    
C5    C21   A    
O15   V3    S    
C76   H52   S    
C64   H22   S    
C6    C22   A    
C48   H14   S    
C13   H5    S    
C6    F6    S    
C10   C32   A    
C47   H13   S    
C42   C50   S    
