data_mof_unit_pretest_474.cif
_audit_creation_date              2012-12-10T17:21:38-0500
_audit_creation_method            fapswitch 2.2
_symmetry_space_group_name_H-M    P1
_symmetry_Int_Tables_number       1
_space_group_crystal_system       triclinic
_cell_length_a                    10.729562
_cell_length_b                    10.768633
_cell_length_c                    9.623352
_cell_angle_alpha                 90.023016
_cell_angle_beta                  89.955339
_cell_angle_gamma                 92.897381
_cell_volume                      1110.48642415

loop_
_atom_site_label
_atom_site_type_symbol
_atom_type_description
_atom_site_fract_x
_atom_site_fract_y
_atom_site_fract_z
_atom_type_partial_charge
C1    C     C_R   0.495179 0.262657 0.500002 0.787601
C2    C     C_3   0.878161 0.499362 0.501764 0.092807
C3    C     C_3   0.935521 0.622952 0.439594 -0.002294
C4    C     C_3   0.922088 0.389010 0.413272 -0.407401
C5    C     C_R   0.296404 0.119840 0.646948 -0.198524
C6    C     C_R   0.204710 0.050468 0.719868 -0.114975
C7    C     C_R   0.206170 0.921411 0.722610 -0.088434
C8    C     C_R   0.298889 0.860880 0.651758 -0.187339
C9    C     C_R   0.393358 0.929221 0.577658 0.101287
C10   C     C_R   0.392656 0.060572 0.576220 0.108949
C11   C     C_R   0.486007 0.128416 0.499765 -0.110908
C12   C     C_R   0.260022 0.498019 0.500242 0.739618
C13   C     C_R   0.572997 0.067655 0.420289 -0.175239
C14   C     C_R   0.572596 0.939654 0.420316 -0.153325
C15   C     C_R   0.486178 0.870373 0.500568 -0.101508
C16   C     C_R   0.665789 0.667860 0.142658 -0.197792
C17   C     C_R   0.744790 0.750747 0.068505 0.143357
C18   C     C_R   0.743661 0.749290 0.925610 -0.212621
C19   C     C_R   0.664131 0.666232 0.855231 -0.182962
C20   C     C_R   0.580970 0.581831 0.925067 0.203955
C21   C     C_R   0.581326 0.582127 0.074486 0.184682
C22   C     C_R   0.422564 0.422200 0.073847 -0.049069
C23   C     C_R   0.495227 0.736934 0.500157 0.801730
C24   C     C_R   0.422590 0.422248 0.926117 -0.053538
C25   C     C_R   0.739935 0.499357 0.500323 0.782429
C26   C     C_3   0.070971 0.488505 0.652203 -0.366717
C27   C     C_3   0.928089 0.482888 0.652101 -0.347046
C28   C     C_3   0.079215 0.619322 0.434559 -0.359635
C29   C     C_3   0.065758 0.385407 0.417093 -0.383249
C30   C     C_3   0.121990 0.497634 0.501055 0.106983
Cu1   Cu    Cu3+1 0.499990 0.499990 0.640660 0.931068
Cu2   Cu    Cu3+1 0.500010 0.500010 0.359340 0.938864
H1    H     H_    0.105932 0.570770 0.713597 0.184157
H2    H     H_    0.891077 0.398571 0.303606 0.183992
H3    H     H_    0.110866 0.625505 0.324462 0.175210
H4    H     H_    0.900628 0.633346 0.331703 0.160026
H5    H     H_    0.643361 0.119795 0.360247 0.167667
H6    H     H_    0.289209 0.219582 0.644393 0.129744
H7    H     H_    0.131472 0.097028 0.773275 0.141295
H8    H     H_    0.134141 0.867789 0.778292 0.159118
H9    H     H_    0.293822 0.760500 0.653771 0.147338
H10   H     H_    0.642199 0.894181 0.360138 0.190259
H11   H     H_    0.358969 0.358361 0.128819 0.135495
H12   H     H_    0.103996 0.403879 0.704291 0.161890
H13   H     H_    0.674388 0.674734 0.252341 0.212444
H14   H     H_    0.805212 0.813344 0.868135 0.201767
H15   H     H_    0.671979 0.672562 0.745892 0.232690
H16   H     H_    0.358994 0.358444 0.871152 0.130183
H17   H     H_    0.892627 0.391675 0.694733 0.174681
H18   H     H_    0.895008 0.555906 0.722901 0.199344
H19   H     H_    0.123434 0.700840 0.489446 0.181992
H20   H     H_    0.102516 0.387290 0.308887 0.177889
H21   H     H_    0.092978 0.296909 0.465524 0.170970
H22   H     H_    0.879663 0.299567 0.453380 0.176981
N1    N     N_R   0.501200 0.501210 0.147910 -0.192061
N2    N     N_R   0.501250 0.501290 0.852040 -0.195553
O1    O     O_R   0.499990 0.319640 0.618810 -0.574633
O2    O     O_R   0.500000 0.319660 0.381240 -0.574478
O3    O     O_R   0.317680 0.499970 0.618790 -0.600377
O4    O     O_R   0.317700 0.499990 0.381210 -0.581333
O5    O     O_R   0.500000 0.680340 0.618760 -0.594133
O6    O     O_R   0.500010 0.680360 0.381190 -0.586669
O7    O     O_R   0.682300 0.500010 0.618790 -0.594133
O8    O     O_R   0.682320 0.500030 0.381210 -0.602307
I1    I     I_    0.868016 0.881838 0.167112 -0.438139
I2    I     I_    0.881747 0.786289 0.551283 -0.492070

loop_
_geom_bond_atom_site_label_1
_geom_bond_atom_site_label_2
_ccdc_geom_bond_type
C16   H13   S    
C2    C4    S    
C7    H8    S    
C16   C21   A    
C22   H11   S    
Cu1   N2    S    
C24   N2    A    
C9    C10   A    
Cu1   O5    S    
C26   H1    S    
C17   I1    S    
C4    C29   S    
C1    C11   S    
C27   H18   S    
Cu2   O2    S    
C20   N2    A    
C2    C27   S    
C12   C30   S    
Cu1   O1    S    
C19   C20   A    
C15   C23   S    
C17   C18   A    
C9    C15   A    
C22   N1    A    
Cu2   O6    S    
C5    C10   A    
Cu1   Cu2   S    
C14   H10   S    
C20   C21   A    
C11   C13   A    
C26   C27   S    
C29   C30   S    
C29   H21   S    
C3    H4    S    
C18   H14   S    
C28   C30   S    
C3    C28   S    
C26   C30   S    
C6    C7    A    
C19   H15   S    
C4    H2    S    
C5    C6    A    
C28   H19   S    
C22   C24   A    
C3    I2    S    
C10   C11   A    
Cu2   O4    S    
C26   H12   S    
C12   O4    A    
Cu1   O7    S    
C2    C25   S    
C7    C8    A    
C5    H6    S    
C8    H9    S    
Cu2   O8    S    
C18   C19   A    
C25   O7    A    
C23   O5    A    
Cu1   O3    S    
C21   N1    A    
C6    H7    S    
C16   C17   A    
C2    C3    S    
C14   C15   A    
Cu2   N1    S    
C13   C14   A    
C4    H22   S    
C1    O2    A    
C12   O3    A    
C13   H5    S    
C25   O8    A    
C23   O6    A    
C27   H17   S    
C28   H3    S    
C24   H16   S    
C8    C9    A    
C29   H20   S    
C1    O1    A    
