data_mof_unit_pretest_1220.cif
_audit_creation_date              2012-12-10T17:09:49-0500
_audit_creation_method            fapswitch 2.2
_symmetry_space_group_name_H-M    P1
_symmetry_Int_Tables_number       1
_space_group_crystal_system       triclinic
_cell_length_a                    11.022145
_cell_length_b                    13.11707
_cell_length_c                    11.970509
_cell_angle_alpha                 102.392239
_cell_angle_beta                  94.324989
_cell_angle_gamma                 93.818115
_cell_volume                      1679.4406776

loop_
_atom_site_label
_atom_site_type_symbol
_atom_type_description
_atom_site_fract_x
_atom_site_fract_y
_atom_site_fract_z
_atom_type_partial_charge
C1    C     C_R   0.502742 0.299287 0.475910 0.870229
C2    C     C_R   0.072534 0.520443 0.611824 -0.022194
C3    C     C_R   0.124683 0.489975 0.503712 -0.169491
C4    C     C_R   0.045350 0.436702 0.405797 0.130768
C5    C     C_R   0.918935 0.425493 0.412615 0.095098
C6    C     C_R   0.868379 0.476723 0.510189 -0.147274
C7    C     C_R   0.495019 0.817615 0.536539 -0.091636
C8    C     C_R   0.506806 0.184390 0.457129 -0.146805
C9    C     C_R   0.428505 0.008431 0.350879 0.104458
C10   C     C_R   0.457802 0.115269 0.353781 0.122294
C11   C     C_R   0.560106 0.141231 0.543894 0.072771
C12   C     C_R   0.261410 0.496659 0.499741 0.841271
C13   C     C_R   0.540163 0.033483 0.538210 0.074919
C14   C     C_R   0.474111 0.966079 0.442571 0.049740
C15   C     C_R   0.460290 0.857540 0.439402 -0.165068
C16   C     C_R   0.539626 0.891471 0.637862 -0.023908
C17   C     C_R   0.574385 0.994064 0.633210 -0.181743
C18   C     C_R   0.401596 0.390301 0.012806 -0.073192
C19   C     C_R   0.405278 0.403683 0.134872 0.067340
C20   C     C_R   0.550222 0.550189 0.162805 0.287833
C21   C     C_R   0.547543 0.547525 0.038267 -0.005177
C22   C     C_R   0.478214 0.458769 0.964321 -0.017702
C23   C     C_R   0.496795 0.701739 0.523331 0.840280
C24   C     C_R   0.484399 0.441414 0.842097 0.026538
C25   C     C_R   0.574046 0.610768 0.858176 0.057366
C26   C     C_R   0.606359 0.624566 0.978840 -0.017865
C27   C     C_R   0.736504 0.492569 0.501674 0.860884
C28   C     C_R   0.141876 0.574058 0.713738 0.169331
C29   C     C_R   0.102690 0.573810 0.822174 0.118231
C30   C     C_R   0.979772 0.538299 0.828292 -0.041809
C31   C     C_R   0.901150 0.512014 0.726106 -0.237052
C32   C     C_R   0.944812 0.504832 0.616145 0.061289
Cu1   Cu    Cu3+1 0.509250 0.507730 0.615930 0.973535
Cu2   Cu    Cu3+1 0.490750 0.492270 0.384070 1.026169
H1    H     H_    0.612711 0.046690 0.711888 0.179875
H2    H     H_    0.451412 0.366448 0.787243 0.150403
H3    H     H_    0.599079 0.672740 0.816004 0.147654
H4    H     H_    0.349544 0.351650 0.171763 0.165632
H5    H     H_    0.808603 0.489923 0.737466 0.203601
H6    H     H_    0.421474 0.803135 0.361770 0.204215
N1    N     N_R   0.523180 0.519350 0.790130 -0.195191
N2    N     N_R   0.476820 0.480650 0.209890 -0.192011
O1    O     O_R   0.506570 0.354460 0.582000 -0.581950
O2    O     O_R   0.490940 0.341410 0.386200 -0.548928
O3    O     O_R   0.327470 0.506530 0.597920 -0.570900
O4    O     O_R   0.311840 0.493480 0.402120 -0.548008
O5    O     O_R   0.509060 0.658590 0.613800 -0.574898
O6    O     O_R   0.493430 0.645540 0.418000 -0.553632
O7    O     O_R   0.688160 0.506520 0.597880 -0.607832
O8    O     O_R   0.672530 0.493470 0.402080 -0.547612
I1    I     I_    0.108926 0.365113 0.245521 -0.326897
I2    I     I_    0.493179 0.154646 0.196622 -0.408392
I3    I     I_    0.702754 0.230506 0.662025 -0.448295
C33   C     C_R   0.306440 0.309304 0.940444 0.102732
C34   C     C_R   0.274324 0.217117 0.976908 -0.110339
C35   C     C_R   0.178934 0.145552 0.920873 -0.118323
C36   C     C_R   0.120606 0.157824 0.817748 -0.095227
C37   C     C_R   0.149128 0.248638 0.778312 -0.113570
C38   C     C_R   0.236514 0.326259 0.842629 -0.128706
H7    H     H_    0.318482 0.200715 0.051897 0.164499
H8    H     H_    0.152173 0.079578 0.957049 0.140696
H9    H     H_    0.050954 0.098780 0.770920 0.145416
H10   H     H_    0.100969 0.260350 0.699944 0.153880
H11   H     H_    0.248475 0.399160 0.814612 0.151089
C39   C     C_R   0.706178 0.717709 0.021225 0.090968
C40   C     C_R   0.796331 0.738626 0.948668 -0.203308
C41   C     C_R   0.879222 0.829446 0.976383 -0.149260
C42   C     C_R   0.877166 0.903101 0.079576 -0.100810
C43   C     C_R   0.795252 0.882616 0.156465 -0.284768
C44   C     C_R   0.712196 0.791331 0.126124 -0.044141
H12   H     H_    0.803445 0.685228 0.867641 0.141106
H13   H     H_    0.943845 0.843269 0.916658 0.157980
H14   H     H_    0.936486 0.974835 0.099472 0.178505
H15   H     H_    0.788762 0.942781 0.235652 0.198320
H16   H     H_    0.789295 0.786146 0.186986 0.198760
I4    I     I_    0.680078 0.650818 0.281165 -0.415310
I5    I     I_    0.223389 0.714796 0.692087 -0.395070
I6    I     I_    0.234632 0.626006 0.967129 -0.356801
C45   C     C_R   0.927908 0.520101 0.933419 0.115204
C46   C     C_R   0.844644 0.431053 0.925335 -0.145686
C47   C     C_R   0.796146 0.408274 0.021302 -0.103894
C48   C     C_R   0.832058 0.473320 0.127349 -0.062002
C49   C     C_R   0.910861 0.563735 0.136647 -0.103729
C50   C     C_R   0.954294 0.589100 0.039730 -0.086142
H17   H     H_    0.820230 0.377136 0.845520 0.171024
H18   H     H_    0.732840 0.339436 0.014427 0.168130
H19   H     H_    0.795582 0.457545 0.202856 0.191089
H20   H     H_    0.936307 0.615648 0.219177 0.168286
H21   H     H_    0.005942 0.663514 0.048551 0.179551
I7    I     I_    0.813821 0.289052 0.311306 -0.311029
C51   C     C_R   0.514597 0.880745 0.751828 0.145962
C52   C     C_R   0.613838 0.883920 0.832211 -0.196170
C53   C     C_R   0.596633 0.913607 0.947196 -0.125723
C54   C     C_R   0.482331 0.922943 0.985392 -0.047221
C55   C     C_R   0.383718 0.923083 0.906451 -0.068482
C56   C     C_R   0.404015 0.912873 0.791793 -0.103253
H22   H     H_    0.705200 0.879140 0.806694 0.147195
H23   H     H_    0.671201 0.941408 0.008147 0.192890
H24   H     H_    0.475777 0.940711 0.077056 0.190549
H25   H     H_    0.297183 0.942448 0.937335 0.157498
H26   H     H_    0.333675 0.933509 0.735178 0.154328
I8    I     I_    0.288990 0.924276 0.225373 -0.392957

loop_
_geom_bond_atom_site_label_1
_geom_bond_atom_site_label_2
_ccdc_geom_bond_type
C6    C32   A    
C21   C26   A    
C53   C54   A    
C1    C8    S    
Cu1   O3    S    
C55   C56   A    
Cu2   N2    S    
C34   C35   A    
C10   I2    S    
C47   C48   A    
C36   H9    S    
C38   H11   S    
C24   H2    S    
C49   C50   A    
C21   C22   A    
C28   C29   A    
C18   C19   A    
C45   C50   A    
C46   C47   A    
Cu1   O7    S    
C48   H19   S    
C35   C36   A    
C20   I4    S    
C2    C32   A    
C41   H13   S    
C3    C12   S    
C25   H3    S    
C51   C56   A    
C1    O1    A    
C29   I6    S    
C6    C27   S    
C16   C17   A    
Cu2   O4    S    
C13   C14   A    
C29   C30   A    
C9    C10   A    
C47   H18   S    
C11   I3    S    
C19   N2    A    
C7    C15   A    
C49   H20   S    
C56   H26   S    
C24   N1    A    
C54   C55   A    
C52   H22   S    
C33   C38   A    
Cu2   O8    S    
C23   O5    A    
C4    I1    S    
C41   C42   A    
Cu1   O1    S    
Cu2   O2    S    
C12   O4    A    
C25   N1    A    
C51   C52   A    
C55   H25   S    
C42   C43   A    
C42   H14   S    
C9    C14   A    
C46   H17   S    
C19   H4    S    
C1    O2    A    
C40   H12   S    
C14   C15   A    
C30   C31   A    
Cu1   Cu2   S    
C43   H15   S    
C28   I5    S    
C9    I8    S    
C30   C45   S    
C7    C16   A    
C39   C40   A    
Cu1   O5    S    
C22   C24   A    
C37   C38   A    
Cu2   O6    S    
C50   H21   S    
C3    C4    A    
C37   H10   S    
C33   C34   A    
C23   O6    A    
C18   C22   A    
C26   C39   S    
C31   C32   A    
C5    I7    S    
C4    C5    A    
C20   N2    A    
C27   O8    A    
C12   O3    A    
C13   C17   A    
Cu1   N1    S    
C2    C3    A    
C25   C26   A    
C11   C13   A    
C36   C37   A    
C5    C6    A    
C54   H24   S    
C8    C11   A    
C7    C23   S    
C52   C53   A    
C31   H5    S    
C40   C41   A    
C43   C44   A    
C15   H6    S    
C18   C33   S    
C45   C46   A    
C27   O7    A    
C20   C21   A    
C16   C51   S    
C8    C10   A    
C48   C49   A    
C44   H16   S    
C35   H8    S    
C2    C28   A    
C17   H1    S    
C34   H7    S    
C53   H23   S    
C39   C44   A    
