data_mof_unit_pretest_1724.cif
_audit_creation_date              2012-10-26T19:34:45-0400
_audit_creation_method            fapswitch 2.2
_symmetry_space_group_name_H-M    P1
_symmetry_Int_Tables_number       1
_space_group_crystal_system       triclinic
_cell_length_a                    13.890971
_cell_length_b                    18.211181
_cell_length_c                    19.413541
_cell_angle_alpha                 90.154908
_cell_angle_beta                  90.009326
_cell_angle_gamma                 85.03984
_cell_volume                      4892.65310168

loop_
_atom_site_label
_atom_site_type_symbol
_atom_type_description
_atom_site_fract_x
_atom_site_fract_y
_atom_site_fract_z
_atom_type_partial_charge
C1    C     C_R   0.499254 0.500149 0.632171 0.564904
C2    C     C_R   0.513050 0.564432 0.037765 -0.108046
C3    C     C_R   0.512075 0.501472 0.927600 -0.010250
C4    C     C_R   0.512015 0.496960 0.072358 -0.010143
C5    C     C_R   0.553424 0.278204 0.450451 0.034550
C6    C     C_R   0.447303 0.721497 0.450117 0.028966
C7    C     C_R   0.553897 0.201182 0.444627 -0.125017
C8    C     C_R   0.446840 0.798484 0.444357 -0.131164
C9    C     C_R   0.501280 0.161548 0.491424 0.008674
C10   C     C_R   0.498650 0.838429 0.491606 0.009054
C11   C     C_R   0.448590 0.201702 0.542767 -0.042386
C12   C     C_R   0.499178 0.499953 0.367821 0.528189
C13   C     C_R   0.550476 0.798612 0.543381 -0.038324
C14   C     C_R   0.446526 0.278914 0.545351 0.392304
C15   C     C_R   0.552586 0.721403 0.545916 0.394261
C16   C     C_R   0.683091 0.488229 0.500005 0.553022
C17   C     C_R   0.316914 0.511771 0.500066 0.561168
C18   C     C_R   0.412638 0.045170 0.484903 0.222547
C19   C     C_R   0.587409 0.954759 0.485739 0.221980
C20   C     C_R   0.411663 0.967526 0.487009 -0.024112
C21   C     C_R   0.588348 0.032423 0.487691 -0.023472
C22   C     C_R   0.499090 0.921250 0.487504 -0.029184
C23   C     C_R   0.434710 0.459475 0.254666 -0.022371
C24   C     C_R   0.500920 0.078698 0.487355 -0.029193
C25   C     C_1   0.213868 0.518776 0.500242 0.039548
C26   C     C_1   0.786152 0.481223 0.500027 0.025658
C27   C     C_2   0.023544 0.530384 0.500568 -0.098263
C28   C     C_2   0.976487 0.469615 0.499995 -0.098312
C29   C     C_1   0.872928 0.475480 0.500027 -0.014661
C30   C     C_1   0.127098 0.524519 0.500402 -0.006529
C31   C     C_R   0.566510 0.539125 0.257842 -0.127582
C32   C     C_R   0.566739 0.452206 0.742114 -0.100529
C33   C     C_R   0.571491 0.537380 0.186250 -0.105472
C34   C     C_R   0.434676 0.549024 0.745302 -0.006687
C35   C     C_R   0.571722 0.453308 0.813704 -0.097051
C36   C     C_R   0.508097 0.497102 0.148243 0.046292
C37   C     C_R   0.508181 0.501840 0.851716 0.047242
C38   C     C_R   0.438447 0.459603 0.182781 -0.056501
C39   C     C_R   0.438398 0.548403 0.817183 -0.050303
C40   C     C_1   0.319753 0.935861 0.490999 0.283770
C41   C     C_1   0.680184 0.064129 0.492381 0.281441
C42   C     C_1   0.362028 0.420094 0.288280 0.224925
C43   C     C_1   0.361875 0.597871 0.711687 0.246772
C44   C     C_R   0.499410 0.499498 0.292519 0.003230
C45   C     C_R   0.499505 0.500572 0.707454 0.030465
C46   C     C_R   0.514636 0.430999 0.033926 0.244453
C47   C     C_R   0.514403 0.567112 0.966032 0.244354
C48   C     C_R   0.513345 0.433850 0.962193 -0.104852
Cl1   Cl    Cl    0.370415 0.324997 0.606683 -0.525838
Cl2   Cl    Cl    0.627843 0.675731 0.607764 -0.504657
Cl3   Cl    Cl    0.301636 0.100229 0.476516 -0.517022
Cl4   Cl    Cl    0.698552 0.899634 0.478421 -0.526613
Cl5   Cl    Cl    0.524658 0.343458 0.073088 -0.547254
Cl6   Cl    Cl    0.524134 0.653374 0.926875 -0.533712
Cu1   Cu    Cu3+1 0.500030 0.426640 0.500000 1.052772
Cu2   Cu    Cu3+1 0.499970 0.573360 0.500000 1.050509
H1    H     H_    0.015429 0.415227 0.499436 0.166897
H2    H     H_    0.386484 0.583883 0.846344 0.165146
H3    H     H_    0.513122 0.382906 0.933240 0.164846
H4    H     H_    0.512600 0.615420 0.066719 0.160630
H5    H     H_    0.595013 0.307634 0.414301 0.147162
H6    H     H_    0.406209 0.691872 0.413653 0.142686
H7    H     H_    0.594939 0.172839 0.403622 0.139232
H8    H     H_    0.406432 0.826559 0.403044 0.133745
H9    H     H_    0.984606 0.584773 0.501112 0.164765
H10   H     H_    0.407735 0.173215 0.580237 0.178278
H11   H     H_    0.590680 0.827349 0.581210 0.181081
H12   H     H_    0.616577 0.570107 0.286346 0.137921
H13   H     H_    0.616902 0.414701 0.713599 0.139802
H14   H     H_    0.625287 0.567104 0.160476 0.137134
H15   H     H_    0.625627 0.416583 0.839473 0.137439
H16   H     H_    0.386649 0.430859 0.153620 0.166338
N1    N     N_R   0.500010 0.316380 0.499980 -0.223316
N2    N     N_R   0.499990 0.683620 0.500020 -0.223150
N3    N     N_1   0.246267 0.910569 0.494239 -0.207278
N4    N     N_1   0.753612 0.089452 0.496181 -0.211666
N5    N     N_1   0.303847 0.388570 0.315276 -0.234360
N6    N     N_1   0.303597 0.636973 0.684687 -0.234243
O1    O     O_R   0.500040 0.438020 0.599820 -0.461939
O2    O     O_R   0.499960 0.561980 0.400180 -0.522777
O3    O     O_R   0.500000 0.561930 0.599810 -0.448031
O4    O     O_R   0.500000 0.438070 0.400190 -0.505471
O5    O     O_R   0.637870 0.429290 0.499990 -0.516379
O6    O     O_R   0.362130 0.570710 0.500010 -0.509280
O7    O     O_R   0.637830 0.553200 0.499980 -0.450039
O8    O     O_R   0.362170 0.446800 0.500020 -0.440719

loop_
_geom_bond_atom_site_label_1
_geom_bond_atom_site_label_2
_ccdc_geom_bond_type
Cu1   Cu2   S    
C4    C36   S    
C32   C45   A    
Cu2   O3    S    
C4    C46   A    
C28   H1    S    
C10   C22   S    
C43   N6    T    
C23   C42   S    
C18   C24   A    
C28   C29   S    
C35   C37   A    
C20   C40   S    
C11   C14   A    
C2    H4    S    
C14   Cl1   S    
C1    O3    A    
C3    C48   A    
C33   C36   A    
C15   Cl2   S    
C19   Cl4   S    
C31   C33   A    
C6    N2    A    
C11   H10   S    
C35   H15   S    
C27   C30   S    
C18   Cl3   S    
Cu2   O6    S    
C46   C48   A    
C16   C26   S    
C31   H12   S    
C38   H16   S    
Cu2   N2    S    
C31   C44   A    
C12   O4    A    
C34   C39   A    
C32   C35   A    
C19   C22   A    
C5    C7    A    
C6    C8    A    
C39   H2    S    
C16   O5    A    
C23   C44   A    
C17   O8    A    
C2    C4    A    
C14   N1    A    
C27   H9    S    
Cu1   O1    S    
C5    H5    S    
C34   C45   A    
Cu1   O4    S    
C9    C11   A    
C7    H7    S    
C33   H14   S    
C8    H8    S    
C47   Cl6   S    
C21   C41   S    
C20   C22   A    
C13   C15   A    
C16   O7    A    
C1    O1    A    
Cu1   O5    S    
C48   H3    S    
C13   H11   S    
C25   C30   T    
C7    C9    A    
C19   C21   A    
C34   C43   S    
C10   C13   A    
C9    C24   S    
C32   H13   S    
C2    C47   A    
C23   C38   A    
Cu2   O2    S    
C40   N3    T    
C17   O6    A    
C17   C25   S    
C6    H6    S    
Cu1   O8    S    
C36   C38   A    
C37   C39   A    
C41   N4    T    
C1    C45   S    
Cu2   O7    S    
C12   O2    A    
C46   Cl5   S    
C3    C47   A    
C18   C20   A    
C5    N1    A    
Cu1   N1    S    
C15   N2    A    
C3    C37   S    
C26   C29   T    
C8    C10   A    
C21   C24   A    
C27   C28   D    
C42   N5    T    
C12   C44   S    
