data_mof_unit_pretest_1923.cif
_audit_creation_date              2012-12-10T16:59:27-0500
_audit_creation_method            fapswitch 2.2
_symmetry_space_group_name_H-M    P1
_symmetry_Int_Tables_number       1
_space_group_crystal_system       triclinic
_cell_length_a                    19.32193
_cell_length_b                    10.911424
_cell_length_c                    9.80041
_cell_angle_alpha                 90.131928
_cell_angle_beta                  88.642734
_cell_angle_gamma                 91.476838
_cell_volume                      2064.9493712

loop_
_atom_site_label
_atom_site_type_symbol
_atom_type_description
_atom_site_fract_x
_atom_site_fract_y
_atom_site_fract_z
_atom_type_partial_charge
C1    C     C_R   0.497834 0.265708 0.499981 0.862354
C2    C     C_R   0.292157 0.498166 0.504293 -0.111283
C3    C     C_R   0.930469 0.492753 0.499468 0.429185
C4    C     C_R   0.070584 0.485375 0.501801 0.445764
C5    C     C_R   0.816542 0.541459 0.609241 -0.125206
C6    C     C_R   0.744518 0.542086 0.607568 -0.189940
C7    C     C_R   0.708603 0.495047 0.495122 -0.096907
C8    C     C_R   0.746590 0.445759 0.383523 0.266746
C9    C     C_R   0.818781 0.446775 0.385708 -0.154054
C10   C     C_R   0.854310 0.494248 0.498081 -0.003298
C11   C     C_2   0.496462 0.933401 0.395738 -0.183353
C12   C     C_R   0.367893 0.501549 0.501493 0.824203
C13   C     C_2   0.516658 0.865600 0.501212 0.024135
C14   C     C_2   0.505177 0.066375 0.391406 -0.089708
C15   C     C_2   0.490036 0.133759 0.501389 -0.255596
C16   C     C_2   0.454878 0.437864 0.925007 0.241264
C17   C     C_2   0.463494 0.423173 0.077267 0.334724
C18   C     C_R   0.503378 0.734325 0.500157 0.805270
C19   C     C_R   0.632375 0.497734 0.498291 0.813232
C20   C     C_R   0.253480 0.573398 0.592635 0.162561
C21   C     C_R   0.181321 0.566214 0.591186 -0.178024
C22   C     C_R   0.146735 0.485164 0.502706 -0.042532
C23   C     C_R   0.185847 0.408284 0.415971 0.192259
C24   C     C_R   0.257921 0.416510 0.416832 -0.201345
Cu1   Cu    Cu3+1 0.500010 0.500020 0.638630 1.040290
Cu2   Cu    Cu3+1 0.499990 0.499980 0.361370 1.072126
H1    H     H_    0.520122 0.108965 0.294714 0.213678
H2    H     H_    0.470665 0.091041 0.595198 0.190211
H3    H     H_    0.547849 0.511204 0.885635 0.216047
H4    H     H_    0.152132 0.626587 0.657439 0.187511
H5    H     H_    0.287505 0.356613 0.350770 0.205616
H6    H     H_    0.842601 0.578848 0.697273 0.176773
H7    H     H_    0.716851 0.580475 0.694399 0.184938
H8    H     H_    0.847052 0.407908 0.299961 0.191007
H9    H     H_    0.471550 0.890249 0.309088 0.191390
N1    N     N_R   0.036208 0.467719 0.384137 -0.178595
N2    N     N_R   0.967494 0.470600 0.383069 -0.210677
N3    N     N_R   0.964909 0.512640 0.616916 -0.215667
N4    N     N_R   0.033680 0.509257 0.617993 -0.210512
N5    N     N_2   0.499250 0.498660 0.846910 -0.297332
N6    N     N_2   0.499230 0.498630 0.153040 -0.132605
O1    O     O_R   0.500010 0.321960 0.617040 -0.564479
O2    O     O_R   0.499990 0.321920 0.382900 -0.541153
O3    O     O_R   0.400160 0.500010 0.617110 -0.540721
O4    O     O_R   0.400130 0.499970 0.382960 -0.554693
O5    O     O_R   0.500010 0.678080 0.617100 -0.535967
O6    O     O_R   0.499990 0.678040 0.382960 -0.568390
O7    O     O_R   0.599870 0.500030 0.617040 -0.587489
O8    O     O_R   0.599840 0.499990 0.382890 -0.524154
I1    I     I_    0.299602 0.706841 0.722758 -0.241653
I2    I     I_    0.581172 0.931768 0.661924 -0.262100
I3    I     I_    0.368735 0.337099 0.841568 -0.173530
Br1   Br    Br    0.413085 0.287660 0.162208 -0.454172
I4    I     I_    0.529021 0.675463 0.083858 -0.195405
I5    I     I_    0.142442 0.269942 0.288265 -0.202608
Br2   Br    Br    0.704440 0.368058 0.228686 -0.448141

loop_
_geom_bond_atom_site_label_1
_geom_bond_atom_site_label_2
_ccdc_geom_bond_type
Cu1   O1    S    
C23   C24   A    
C4    N1    A    
C23   I5    S    
C6    C7    A    
C1    C15   S    
C14   H1    S    
C4    C22   S    
C9    C10   A    
C19   O8    A    
C4    N4    A    
C6    H7    S    
C5    H6    S    
C2    C12   S    
C18   O6    A    
C8    Br2   S    
C11   H9    S    
C24   H5    S    
C5    C10   A    
C12   O3    A    
C3    C10   S    
C13   I2    S    
C21   C22   A    
C11   C13   D    
Cu1   O7    S    
C15   H2    S    
C9    H8    S    
C13   C18   S    
C16   N5    D    
C5    C6    A    
C18   O5    A    
H3    N5    S    
N1    N2    A    
Cu2   O2    S    
C7    C19   S    
Cu1   N5    S    
C2    C24   A    
N3    N4    A    
C11   C14   S    
C17   N6    D    
N6    I4    S    
C2    C20   A    
C17   Br1   S    
C1    O1    A    
C7    C8    A    
C20   C21   A    
C3    N2    A    
C21   H4    S    
Cu2   O8    S    
Cu1   O3    S    
C12   O4    A    
Cu2   O6    S    
C22   C23   A    
C16   C17   S    
C20   I1    S    
C19   O7    A    
Cu2   O4    S    
Cu1   Cu2   S    
C14   C15   D    
Cu1   O5    S    
C1    O2    A    
C16   I3    S    
Cu2   N6    S    
C3    N3    A    
C8    C9    A    
