data_mof_unit_pretest_877.cif
_audit_creation_date              2012-12-10T17:35:43-0500
_audit_creation_method            fapswitch 2.2
_symmetry_space_group_name_H-M    P1
_symmetry_Int_Tables_number       1
_space_group_crystal_system       triclinic
_cell_length_a                    10.503532
_cell_length_b                    11.991782
_cell_length_c                    12.887623
_cell_angle_alpha                 93.218597
_cell_angle_beta                  90.175561
_cell_angle_gamma                 86.8556
_cell_volume                      1618.27368478

loop_
_atom_site_label
_atom_site_type_symbol
_atom_type_description
_atom_site_fract_x
_atom_site_fract_y
_atom_site_fract_z
_atom_type_partial_charge
C1    C     C_R   0.498918 0.521916 0.700431 0.877186
C2    C     C_R   0.600958 0.162727 0.592884 0.013529
C3    C     C_R   0.546498 0.859015 0.545593 -0.026206
C4    C     C_R   0.453502 0.140985 0.454406 -0.026199
C5    C     C_R   0.539740 0.976225 0.537929 0.087889
C6    C     C_R   0.460261 0.023775 0.462071 0.087896
C7    C     C_R   0.742535 0.500981 0.501455 0.912752
C8    C     C_R   0.257465 0.499019 0.498545 0.912751
C9    C     C_3   0.962341 0.434529 0.575635 -0.320452
C10   C     C_3   0.037659 0.565472 0.424363 -0.320482
C11   C     C_3   0.042223 0.538731 0.594154 -0.333206
C12   C     C_R   0.501082 0.478084 0.299569 0.877182
C13   C     C_3   0.957777 0.461270 0.405843 -0.333243
C14   C     C_3   0.122730 0.498089 0.498557 -0.096428
C15   C     C_3   0.877270 0.501912 0.501441 -0.096427
C16   C     C_3   0.044070 0.395873 0.480335 0.589546
C17   C     C_3   0.955930 0.604127 0.519663 0.589546
C18   C     C_R   0.502386 0.465121 0.188245 -0.046821
C19   C     C_R   0.497614 0.534879 0.811755 -0.046822
C20   C     C_R   0.460693 0.648036 0.969815 -0.223268
C21   C     C_R   0.539307 0.351964 0.030185 -0.223267
C22   C     C_R   0.467500 0.639273 0.862452 -0.207258
C23   C     C_R   0.523264 0.439789 0.867700 -0.278939
C24   C     C_R   0.532500 0.360727 0.137548 -0.207264
C25   C     C_3   0.006707 0.209662 0.448323 0.115981
C26   C     C_3   0.068339 0.096770 0.411516 -0.862161
C27   C     C_3   0.993287 0.790348 0.551625 0.115978
C28   C     C_3   0.931677 0.903221 0.588520 -0.862165
C29   C     C_R   0.476736 0.560211 0.132300 -0.278940
C30   C     C_R   0.515913 0.447567 0.974313 0.186501
C31   C     C_R   0.484087 0.552433 0.025687 0.186500
C32   C     C_R   0.389820 0.953203 0.396191 -0.344135
C33   C     C_R   0.610181 0.046797 0.603808 -0.344163
C34   C     C_R   0.399043 0.837273 0.407115 0.013525
H1    H     H_    0.081408 0.570712 0.669515 0.153324
H2    H     H_    0.563434 0.271215 0.991059 0.138045
H3    H     H_    0.392291 0.179145 0.397014 0.148312
H4    H     H_    0.607709 0.820855 0.602986 0.148319
H5    H     H_    0.655405 0.217012 0.643700 0.125143
H6    H     H_    0.344597 0.782988 0.356299 0.125140
H7    H     H_    0.328487 0.987156 0.336682 0.148611
H8    H     H_    0.671518 0.012843 0.663315 0.148629
H9    H     H_    0.933426 0.234024 0.389927 0.140615
H10   H     H_    0.959672 0.200638 0.524440 0.142313
H11   H     H_    0.139258 0.067811 0.469605 0.262211
H12   H     H_    0.918590 0.429292 0.330482 0.153309
H13   H     H_    0.994434 0.034385 0.401121 0.215604
H14   H     H_    0.116973 0.103823 0.335964 0.251914
H15   H     H_    0.040211 0.799408 0.475469 0.142314
H16   H     H_    0.066657 0.765972 0.609946 0.140625
H17   H     H_    0.883123 0.896126 0.664101 0.251935
H18   H     H_    0.005582 0.965608 0.598892 0.215605
H19   H     H_    0.860695 0.932206 0.530492 0.262200
H20   H     H_    0.926950 0.381193 0.635834 0.152356
H21   H     H_    0.073050 0.618806 0.364164 0.152347
H22   H     H_    0.452015 0.640926 0.171478 0.157121
H23   H     H_    0.547986 0.359074 0.828521 0.157122
H24   H     H_    0.552455 0.286761 0.180657 0.160724
H25   H     H_    0.447545 0.713239 0.819343 0.160726
H26   H     H_    0.436566 0.728785 0.008941 0.138044
N1    N     N_R   0.523490 0.207800 0.519350 -0.102459
N2    N     N_R   0.476510 0.792200 0.480650 -0.102460
O1    O     O_R   0.506270 0.421700 0.658830 -0.630972
O2    O     O_3   0.898247 0.711868 0.541348 -0.603188
O3    O     O_R   0.493730 0.578300 0.341170 -0.630972
O4    O     O_R   0.491200 0.609310 0.646410 -0.632791
O5    O     O_R   0.508800 0.390690 0.353590 -0.632793
O6    O     O_R   0.693580 0.406210 0.506230 -0.649060
O7    O     O_R   0.306420 0.593790 0.493770 -0.649060
O8    O     O_R   0.678510 0.593830 0.493810 -0.573584
O9    O     O_R   0.321490 0.406170 0.506190 -0.573580
O10   O     O_3   0.101754 0.288132 0.458658 -0.603185
Zn1   Zn    Zn3+2 0.510060 0.374730 0.508290 0.951289
Zn2   Zn    Zn3+2 0.489940 0.625270 0.491710 0.951288

loop_
_geom_bond_atom_site_label_1
_geom_bond_atom_site_label_2
_ccdc_geom_bond_type
C6    C32   A    
C16   O10   S    
C25   H9    S    
C7    O8    A    
C21   H2    S    
C8    O7    A    
C34   H6    S    
C33   H8    S    
C9    C16   S    
C17   O2    S    
C30   C31   A    
C28   H17   S    
C10   C17   S    
O4    Zn2   S    
C34   N2    A    
C23   H23   S    
C26   H11   S    
C7    O6    A    
C2    H5    S    
C3    H4    S    
C5    C33   A    
O8    Zn2   S    
C32   H7    S    
O5    Zn1   S    
C20   H26   S    
C27   H16   S    
C26   H14   S    
O6    Zn1   S    
C7    C15   S    
C1    O1    A    
C25   H10   S    
C12   O5    A    
C1    C19   S    
C23   C30   A    
C19   C22   A    
C18   C24   A    
C4    C6    A    
C10   C14   S    
C22   H25   S    
C18   C29   A    
O1    Zn1   S    
N1    Zn1   S    
C25   C26   S    
C4    N1    A    
O3    Zn2   S    
C32   C34   A    
C19   C23   A    
C1    O4    A    
O7    Zn2   S    
C25   O10   S    
C10   H21   S    
C9    C11   S    
C26   H13   S    
C2    C33   A    
C20   C22   A    
C13   C15   S    
C14   C16   S    
C13   C16   S    
O9    Zn1   S    
C12   O3    A    
C3    N2    A    
C15   C17   S    
C11   C17   S    
C8    O9    A    
C8    C14   S    
C3    C5    A    
C10   C13   S    
C28   H19   S    
C2    N1    A    
C29   H22   S    
C21   C30   A    
C11   H1    S    
C9    C15   S    
C29   C31   A    
C28   H18   S    
C5    C6    A    
C11   C14   S    
C27   O2    S    
C4    H3    S    
C24   H24   S    
C21   C24   A    
C12   C18   S    
C27   C28   S    
C13   H12   S    
N2    Zn2   S    
C9    H20   S    
C27   H15   S    
C20   C31   A    
