data_mof_unit_pretest_1643.cif
_audit_creation_date              2012-10-26T20:59:55-0400
_audit_creation_method            fapswitch 2.2
_symmetry_space_group_name_H-M    P1
_symmetry_Int_Tables_number       1
_space_group_crystal_system       triclinic
_cell_length_a                    14.420978
_cell_length_b                    13.141115
_cell_length_c                    10.706902
_cell_angle_alpha                 90.128173
_cell_angle_beta                  90.027674
_cell_angle_gamma                 89.944776
_cell_volume                      2029.03444262

loop_
_atom_site_label
_atom_site_type_symbol
_atom_type_description
_atom_site_fract_x
_atom_site_fract_y
_atom_site_fract_z
_atom_type_partial_charge
Br1   Br    Br    0.381315 0.697174 0.106903 -0.458099
Br2   Br    Br    0.627979 0.308632 0.905805 -0.405022
Br3   Br    Br    0.580869 0.719317 0.896452 -0.448871
Br4   Br    Br    0.406954 0.285310 0.092241 -0.391631
C1    C     C_R   0.328713 0.500051 0.500085 0.561803
C2    C     C_3   0.552511 0.421895 0.962597 0.136956
C3    C     C_3   0.537831 0.589714 0.962738 0.092853
C4    C     C_3   0.461895 0.412187 0.037122 0.144653
C5    C     C_3   0.414535 0.491219 0.952499 0.229309
C6    C     C_3   0.584912 0.509611 0.047564 0.230374
C7    C     C_3   0.504958 0.500949 0.878211 -0.035025
C8    C     C_3   0.494472 0.499930 0.121860 -0.033721
C9    C     C_1   0.500000 0.173621 0.499997 0.194557
C10   C     C_1   0.500000 0.826378 0.500004 0.194031
C11   C     C_1   0.227146 0.500165 0.500006 -0.016680
C12   C     C_R   0.671287 0.499972 0.499970 0.562975
C13   C     C_1   0.772855 0.499972 0.500145 -0.014686
C14   C     C_1   0.142320 0.500231 0.500029 -0.033758
C15   C     C_1   0.857682 0.500071 0.500199 -0.030941
C16   C     C_3   0.254353 0.521540 0.937477 0.033278
C17   C     C_3   0.223596 0.478295 0.064111 -0.249505
C18   C     C_3   0.136734 0.532036 0.111983 -0.466385
C19   C     C_3   0.737835 0.570565 0.059818 0.035014
C20   C     C_3   0.773696 0.531384 0.933356 -0.255150
C21   C     C_3   0.851477 0.598593 0.883559 -0.465541
C22   C     C_1   0.042416 0.500246 0.500101 0.004146
C23   C     C_1   0.957587 0.500194 0.500168 0.005662
C24   C     C_1   0.500000 0.050681 0.499999 0.011834
C25   C     C_1   0.500001 0.949315 0.500003 0.011308
C26   C     C_R   0.491200 0.499906 0.257075 0.617066
C27   C     C_R   0.508498 0.500196 0.742992 0.614495
C28   C     C_3   0.446394 0.579849 0.037831 0.086176
Cu1   Cu    Cu3+1 0.500000 0.592680 0.500000 1.084115
Cu2   Cu    Cu3+1 0.500000 0.407320 0.500000 1.100415
H1    H     H_    0.196165 0.511271 0.870594 0.154585
H2    H     H_    0.800315 0.452558 0.944616 0.210040
H3    H     H_    0.716819 0.530244 0.863490 0.183280
H4    H     H_    0.826109 0.677666 0.870167 0.188604
H5    H     H_    0.875665 0.568591 0.792149 0.160806
H6    H     H_    0.910950 0.599084 0.949540 0.145703
H7    H     H_    0.266733 0.604668 0.940755 0.184058
H8    H     H_    0.208783 0.395738 0.053737 0.211220
H9    H     H_    0.279424 0.487584 0.134610 0.183725
H10   H     H_    0.150451 0.614548 0.124976 0.185422
H11   H     H_    0.116176 0.499138 0.203292 0.164001
H12   H     H_    0.078556 0.521945 0.045059 0.146520
H13   H     H_    0.797392 0.572293 0.125647 0.154627
H14   H     H_    0.712860 0.650154 0.055136 0.186628
N1    N     N_1   0.500000 0.268070 0.500000 -0.145202
N2    N     N_1   0.500000 0.731930 0.500000 -0.143979
O1    O     O_R   0.376050 0.578280 0.500000 -0.477704
O2    O     O_3   0.670614 0.505538 0.112161 -0.536840
O3    O     O_R   0.623950 0.421720 0.500000 -0.472320
O4    O     O_R   0.623950 0.578280 0.500000 -0.483298
O5    O     O_R   0.376050 0.421720 0.500000 -0.475970
O6    O     O_R   0.499980 0.578250 0.316850 -0.457858
O7    O     O_R   0.500020 0.421750 0.683150 -0.454130
O8    O     O_R   0.500020 0.578250 0.683150 -0.462916
O9    O     O_R   0.499980 0.421750 0.316850 -0.460639
O10   O     O_3   0.331185 0.468762 0.887989 -0.534369

loop_
_geom_bond_atom_site_label_1
_geom_bond_atom_site_label_2
_ccdc_geom_bond_type
C2    C6    S    
C3    C6    S    
C19   C20   S    
C9    C24   S    
Cu1   O8    S    
C3    C28   S    
C21   H4    S    
Cu1   O1    S    
C15   C23   S    
C11   C14   T    
C14   C22   S    
C4    C8    S    
Br4   C4    S    
C5    O10   S    
C6    O2    S    
C26   O9    A    
C27   O7    A    
Cu1   O6    S    
C20   H3    S    
C19   O2    S    
C7    C27   S    
Cu2   O5    S    
C20   H2    S    
C17   C18   S    
C21   H5    S    
C3    C7    S    
C5    C7    S    
C22   C23   T    
Br2   C2    S    
C6    C8    S    
Cu2   O7    S    
C9    N1    T    
C27   O8    A    
C24   C25   T    
C13   C15   T    
C18   H10   S    
Cu1   Cu2   S    
Br3   C3    S    
C21   H6    S    
Cu2   O9    S    
C12   O4    A    
C16   O10   S    
C1    C11   S    
C19   H13   S    
C10   N2    T    
C10   C25   S    
C17   H8    S    
C18   H12   S    
Cu1   O4    S    
C18   H11   S    
C20   C21   S    
Cu2   O3    S    
C2    C7    S    
C12   O3    A    
C1    O1    A    
Cu2   N1    S    
C2    C4    S    
C19   H14   S    
Cu1   N2    S    
C5    C28   S    
C8    C26   S    
C16   C17   S    
C17   H9    S    
C16   H1    S    
C26   O6    A    
C1    O5    A    
Br1   C28   S    
C8    C28   S    
C12   C13   S    
C16   H7    S    
C4    C5    S    
