data_mof_unit_pretest_691.cif
_audit_creation_date              2012-12-10T18:45:11-0500
_audit_creation_method            fapswitch 2.2
_symmetry_space_group_name_H-M    P1
_symmetry_Int_Tables_number       1
_space_group_crystal_system       triclinic
_cell_length_a                    10.723071
_cell_length_b                    9.809957
_cell_length_c                    10.628818
_cell_angle_alpha                 89.998936
_cell_angle_beta                  89.725772
_cell_angle_gamma                 90.000916
_cell_volume                      1118.06301493

loop_
_atom_site_label
_atom_site_type_symbol
_atom_type_description
_atom_site_fract_x
_atom_site_fract_y
_atom_site_fract_z
_atom_type_partial_charge
C1    C     C_R   0.259785 0.499961 0.499393 0.918925
C2    C     C_R   0.740215 0.499963 0.500628 0.919009
C3    C     C_R   0.936166 0.624409 0.499818 -0.130632
C4    C     C_R   0.063844 0.624406 0.499202 -0.131160
C5    C     C_R   0.569159 0.072042 0.585537 -0.070951
C6    C     C_R   0.430841 0.072043 0.414463 -0.070918
C7    C     C_R   0.569221 0.927944 0.585502 0.022448
C8    C     C_R   0.430778 0.927945 0.414499 0.022531
C9    C     C_R   0.514114 0.500233 0.259894 0.926915
C10   C     C_R   0.485873 0.500229 0.740102 0.926880
C11   C     C_R   0.585192 0.748254 0.099767 0.500000
C12   C     C_R   0.414721 0.748229 0.900206 0.499862
C13   C     C_R   0.545353 0.871262 0.046637 -0.306604
C14   C     C_R   0.454537 0.871249 0.953328 -0.306624
C15   C     C_R   0.468868 0.624328 0.942468 -0.101620
C16   C     C_R   0.531063 0.624338 0.057518 -0.101640
C17   C     C_R   0.530108 0.500332 0.125285 -0.026776
C18   C     C_R   0.469853 0.500323 0.874707 -0.026785
C19   C     C_R   0.512128 0.376291 0.063148 -0.190351
C20   C     C_R   0.487845 0.376287 0.936852 -0.190395
C21   C     C_R   0.063830 0.375694 0.500307 -0.172577
C22   C     C_R   0.936162 0.375697 0.500905 -0.172947
C23   C     C_R   0.872631 0.500033 0.500609 -0.005035
C24   C     C_R   0.127370 0.500028 0.499475 -0.004615
H1    H     H_    0.515586 0.279352 0.111928 0.166993
H2    H     H_    0.484406 0.279347 0.888076 0.166979
H3    H     H_    0.583577 0.967303 0.078704 0.201343
H4    H     H_    0.416298 0.967280 0.921252 0.201333
H5    H     H_    0.112267 0.278751 0.500567 0.167800
H6    H     H_    0.887720 0.278755 0.501544 0.167700
H7    H     H_    0.887723 0.721342 0.499507 0.181728
H8    H     H_    0.112295 0.721338 0.498626 0.181071
H9    H     H_    0.624367 0.126827 0.653822 0.129238
H10   H     H_    0.375633 0.126829 0.346179 0.129293
H11   H     H_    0.624351 0.873116 0.653828 0.116972
H12   H     H_    0.375647 0.873118 0.346174 0.116880
N1    N     N_R   0.500000 0.857200 0.500000 -0.048898
N2    N     N_R   0.500000 0.142810 0.500000 -0.084312
O1    O     O_R   0.316770 0.614620 0.499990 -0.587861
O2    O     O_R   0.683230 0.614620 0.500010 -0.587972
O3    O     O_R   0.316800 0.385290 0.500000 -0.636707
O4    O     O_R   0.683200 0.385290 0.500000 -0.636579
O5    O     O_R   0.500010 0.614690 0.316770 -0.606740
O6    O     O_R   0.499990 0.614690 0.683230 -0.606742
O7    O     O_R   0.500040 0.385360 0.316770 -0.639010
O8    O     O_R   0.499960 0.385360 0.683230 -0.639070
Zn1   Zn    Zn3+2 0.500000 0.653120 0.500000 1.055006
Zn2   Zn    Zn3+2 0.500000 0.346880 0.500000 0.969146
S1    S     S_3+6 0.723272 0.752564 0.190415 0.011648
O9    O     O_2   0.698770 0.825979 0.311934 -0.327650
O10   O     O_2   0.771273 0.611487 0.216496 -0.334582
O11   O     O_3   0.832220 0.839424 0.109141 -0.540173
H13   H     H_    0.906209 0.840920 0.164587 0.388191
S2    S     S_3+6 0.276651 0.752504 0.809538 0.011853
O12   O     O_2   0.301154 0.825918 0.688015 -0.327411
O13   O     O_2   0.228673 0.611416 0.783462 -0.334455
O14   O     O_3   0.167681 0.839344 0.890794 -0.540209
H14   H     H_    0.093708 0.840852 0.835327 0.388260

loop_
_geom_bond_atom_site_label_1
_geom_bond_atom_site_label_2
_ccdc_geom_bond_type
C21   H5    S    
C10   O8    A    
C15   C18   A    
C6    N2    A    
C9    O7    A    
C11   S1    S    
C13   C14   A    
N1    Zn1   S    
O6    Zn1   S    
C22   H6    S    
C11   C16   A    
C3    C23   A    
C19   C20   A    
C12   C15   A    
S1    O11   S    
C6    H10   S    
C7    N1    A    
O4    Zn2   S    
C21   C22   A    
C3    H7    S    
C11   C13   A    
O14   H14   S    
C4    H8    S    
C20   H2    S    
C2    O4    A    
C19   H1    S    
C1    O3    A    
C17   C19   A    
O3    Zn2   S    
C10   C18   S    
C18   C20   A    
C22   C23   A    
C4    C24   A    
S2    O13   D    
C9    O5    A    
C8    N1    A    
C1    O1    A    
C10   O6    A    
C15   C16   A    
O8    Zn2   S    
C2    O2    A    
C7    H11   S    
N2    Zn2   S    
O11   H13   S    
C1    C24   S    
O1    Zn1   S    
S1    O9    D    
C8    H12   S    
C21   C24   A    
C9    C17   S    
C2    C23   S    
C5    C7    A    
S2    O12   D    
C13   H3    S    
C6    C8    A    
O7    Zn2   S    
C14   H4    S    
C5    N2    A    
O2    Zn1   S    
O5    Zn1   S    
C12   S2    S    
C3    C4    A    
C12   C14   A    
C16   C17   A    
S1    O10   D    
S2    O14   S    
C5    H9    S    
