data_mof_unit_pretest_577.cif
_audit_creation_date              2012-12-10T18:42:59-0500
_audit_creation_method            fapswitch 2.2
_symmetry_space_group_name_H-M    P1
_symmetry_Int_Tables_number       1
_space_group_crystal_system       triclinic
_cell_length_a                    18.126323
_cell_length_b                    18.112373
_cell_length_c                    18.024526
_cell_angle_alpha                 119.756131
_cell_angle_beta                  90.068085
_cell_angle_gamma                 59.673849
_cell_volume                      4181.58273531

loop_
_atom_site_label
_atom_site_type_symbol
_atom_type_description
_atom_site_fract_x
_atom_site_fract_y
_atom_site_fract_z
_atom_type_partial_charge
C1    C     C_R   0.890723 0.217006 0.608821 0.817928
C2    C     C_R   0.109272 0.782994 0.391179 0.817803
C3    C     C_3   0.537853 0.401175 0.427614 -0.203465
C4    C     C_3   0.462145 0.598829 0.572392 -0.203692
C5    C     C_3   0.450874 0.968612 0.959551 0.264676
C6    C     C_3   0.549790 0.030948 0.039784 0.260657
C7    C     C_3   0.471588 0.035441 0.948102 0.055705
C8    C     C_3   0.528813 0.964317 0.051355 0.089006
C9    C     C_3   0.450031 0.102807 0.051519 -0.115429
C10   C     C_3   0.550425 0.896967 0.948090 -0.105651
C11   C     C_3   0.427840 0.036234 0.063130 -0.256022
C12   C     C_3   0.572632 0.963433 0.936207 -0.289629
C13   C     C_3   0.983893 0.429411 0.444385 0.075926
C14   C     C_3   0.016238 0.570473 0.555606 0.075984
C15   C     C_3   0.078813 0.403785 0.447203 0.068356
C16   C     C_3   0.921316 0.596109 0.552784 0.068696
C17   C     C_3   0.051199 0.501504 0.450444 -0.149055
C18   C     C_3   0.948908 0.498400 0.549552 -0.148774
C19   C     C_3   0.956314 0.527269 0.447775 0.065716
C20   C     C_3   0.043811 0.472614 0.552215 0.065887
C21   C     C_3   0.925095 0.034459 0.478798 0.227437
C22   C     C_3   0.074892 0.965542 0.521201 0.227642
C23   C     C_R   0.608241 0.782897 0.890945 0.789290
C24   C     C_R   0.391854 0.217027 0.109004 0.797219
C25   C     C_3   0.954739 0.963138 0.512304 -0.306573
C26   C     C_3   0.045248 0.036861 0.487695 -0.306466
C27   C     C_3   0.052447 0.896788 0.447151 -0.151460
C28   C     C_3   0.947541 0.103212 0.552848 -0.151526
C29   C     C_3   0.021289 0.968438 0.414329 0.233969
C30   C     C_3   0.978698 0.031562 0.585670 0.234169
C31   C     C_3   0.976319 0.438911 0.992798 0.231375
C32   C     C_3   0.023899 0.560905 0.007019 0.231268
C33   C     C_3   0.954014 0.536803 0.083823 -0.312199
C34   C     C_3   0.046181 0.463034 0.916000 -0.312244
C35   C     C_3   0.052805 0.500194 0.050494 -0.148454
C36   C     C_3   0.947379 0.499653 0.949342 -0.148540
C37   C     C_3   0.073600 0.403168 0.960696 0.234209
C38   C     C_3   0.926617 0.596670 0.039131 0.233850
C39   C     C_3   0.587775 0.421415 0.975191 -0.186391
C40   C     C_3   0.412228 0.578555 0.024784 -0.184401
C41   C     C_3   0.511174 0.406821 0.952946 -0.269336
C42   C     C_3   0.488828 0.593149 0.047031 -0.266325
C43   C     C_3   0.448123 0.500413 0.051152 -0.045796
C44   C     C_3   0.551879 0.499560 0.948825 -0.045136
C45   C     C_R   0.608537 0.499686 0.891412 0.792726
C46   C     C_R   0.391463 0.500304 0.108579 0.793225
C47   C     C_3   0.523266 0.514755 0.072416 0.282538
C48   C     C_3   0.476737 0.485214 0.927560 0.283637
C49   C     C_R   0.891550 0.499547 0.608037 0.786984
C50   C     C_R   0.108481 0.500425 0.391961 0.787535
C51   C     C_R   0.890581 0.500393 0.892260 0.817439
C52   C     C_R   0.109483 0.499551 0.107684 0.817286
C53   C     C_R   0.608438 0.500057 0.608383 0.774272
C54   C     C_R   0.391561 0.499944 0.391618 0.778668
C55   C     C_3   0.582931 0.459902 0.451388 -0.188150
C56   C     C_3   0.417067 0.540101 0.548617 -0.186419
C57   C     C_3   0.492897 0.558228 0.472264 0.135333
C58   C     C_3   0.507101 0.441773 0.527740 0.135607
C59   C     C_3   0.448589 0.500163 0.448968 -0.009046
C60   C     C_3   0.551409 0.499839 0.551036 -0.007173
H1    H     H_    0.918744 0.932113 0.521537 0.151875
H2    H     H_    0.081244 0.067886 0.478461 0.151929
H3    H     H_    0.917486 0.566576 0.152286 0.156581
H4    H     H_    0.082696 0.433286 0.847542 0.156570
H5    H     H_    0.518130 0.331866 0.914937 0.144550
H6    H     H_    0.481871 0.668104 0.085044 0.146184
H7    H     H_    0.660007 0.358311 0.955311 0.155341
H8    H     H_    0.339996 0.641657 0.044663 0.156188
H9    H     H_    0.651330 0.427769 0.412695 0.144213
H10   H     H_    0.348668 0.572233 0.587310 0.144148
H11   H     H_    0.567566 0.320403 0.367801 0.145313
H12   H     H_    0.432438 0.679599 0.632208 0.140011
H13   H     H_    0.368136 0.067475 0.115352 0.147406
H14   H     H_    0.632475 0.932103 0.884096 0.152609
O1    O     O_3   0.750010 0.499980 0.749990 -0.473664
O2    O     O_3   0.249990 0.500020 0.250010 -0.471903
O3    O     O_R   0.571190 0.561490 0.867270 -0.627180
O4    O     O_R   0.428810 0.438510 0.132730 -0.632454
O5    O     O_R   0.867310 0.438490 0.571220 -0.659029
O6    O     O_R   0.132690 0.561510 0.428780 -0.658894
O7    O     O_R   0.867280 0.265380 0.694210 -0.644746
O8    O     O_R   0.132720 0.734620 0.305790 -0.644693
O9    O     O_R   0.694250 0.734550 0.867270 -0.646938
O10   O     O_R   0.305750 0.265450 0.132730 -0.645713
O11   O     O_R   0.867280 0.265410 0.571220 -0.650760
O12   O     O_R   0.132720 0.734590 0.428780 -0.650957
O13   O     O_R   0.571230 0.734580 0.867270 -0.639021
O14   O     O_R   0.428770 0.265420 0.132730 -0.656817
O15   O     O_R   0.694200 0.438470 0.867270 -0.655421
O16   O     O_R   0.305800 0.561530 0.132730 -0.654653
O17   O     O_R   0.867340 0.561470 0.694210 -0.653880
O18   O     O_R   0.132660 0.438530 0.305790 -0.653918
O19   O     O_R   0.867310 0.438430 0.867270 -0.641549
O20   O     O_R   0.132690 0.561570 0.132730 -0.641564
O21   O     O_R   0.694200 0.438520 0.571220 -0.652953
O22   O     O_R   0.305800 0.561480 0.428780 -0.653131
O23   O     O_R   0.867340 0.561440 0.867270 -0.651495
O24   O     O_R   0.132660 0.438560 0.132730 -0.651739
O25   O     O_R   0.571190 0.561530 0.694210 -0.641807
O26   O     O_R   0.428810 0.438470 0.305790 -0.640473
Zn1   Zn    Zn3+2 0.618190 0.587870 0.793920 0.965099
Zn2   Zn    Zn3+2 0.381810 0.412130 0.206080 0.956304
Zn3   Zn    Zn3+2 0.793940 0.412090 0.793920 0.957663
Zn4   Zn    Zn3+2 0.206060 0.587910 0.206080 0.957901
Zn5   Zn    Zn3+2 0.793970 0.587840 0.793920 0.933612
Zn6   Zn    Zn3+2 0.206030 0.412160 0.206080 0.935222
Zn7   Zn    Zn3+2 0.793940 0.412130 0.618200 0.932785
Zn8   Zn    Zn3+2 0.206060 0.587870 0.381800 0.934455
C61   C     C_3   0.482464 0.625786 0.440178 -0.428840
C62   C     C_3   0.536425 0.671809 0.475410 -0.343492
C63   C     C_3   0.519887 0.746365 0.450020 -0.895144
H15   H     H_    0.539458 0.705226 0.375314 0.263645
H16   H     H_    0.447223 0.813449 0.481615 0.265637
H17   H     H_    0.561169 0.776744 0.474850 0.247733
H18   H     H_    0.516098 0.715397 0.550452 0.215164
H19   H     H_    0.610041 0.607668 0.446140 0.217212
H20   H     H_    0.506779 0.577137 0.364865 0.206536
H21   H     H_    0.409338 0.689853 0.465176 0.199833
C64   C     C_3   0.517542 0.374200 0.559813 -0.429192
C65   C     C_3   0.463557 0.328204 0.524603 -0.342276
C66   C     C_3   0.480121 0.253614 0.549959 -0.895880
H22   H     H_    0.552768 0.186475 0.518263 0.265819
H23   H     H_    0.460655 0.294694 0.624656 0.263660
H24   H     H_    0.438764 0.223323 0.525209 0.248022
H25   H     H_    0.389942 0.392359 0.553914 0.217100
H26   H     H_    0.483843 0.284648 0.449564 0.218273
H27   H     H_    0.590667 0.310119 0.534791 0.200130
H28   H     H_    0.493252 0.422833 0.635126 0.206848
N1    N     N_2   0.841571 0.075464 0.458966 -0.310218
H29   H     H_    0.824120 0.135378 0.452891 0.231544
C67   C     C_3   0.831818 0.997896 0.388867 -0.786296
H30   H     H_    0.762992 0.037198 0.384175 0.232956
H31   H     H_    0.840201 0.942998 0.405094 0.242393
H32   H     H_    0.882700 0.953548 0.322310 0.264066
N2    N     N_2   0.158414 0.924538 0.541035 -0.310071
H33   H     H_    0.175866 0.864623 0.547109 0.231405
C68   C     C_3   0.168160 0.002110 0.611140 -0.787216
H34   H     H_    0.236985 0.962811 0.615836 0.232161
H35   H     H_    0.117276 0.046451 0.677694 0.264076
H36   H     H_    0.159774 0.057013 0.594919 0.242634
N3    N     N_2   0.046460 0.931550 0.320216 -0.282452
H37   H     H_    0.114567 0.872775 0.285598 0.244619
C69   C     C_3   0.015848 0.012210 0.305129 -0.804597
H38   H     H_    0.035514 0.976133 0.231160 0.239542
H39   H     H_    0.047500 0.054227 0.335524 0.230530
H40   H     H_    0.941103 0.068612 0.334456 0.255766
N4    N     N_2   0.953528 0.068449 0.679782 -0.282366
H41   H     H_    0.885424 0.127234 0.714405 0.244387
C70   C     C_3   0.984126 0.987788 0.694867 -0.805713
H42   H     H_    0.964483 0.023861 0.768835 0.239154
H43   H     H_    0.058868 0.931357 0.665513 0.255966
H44   H     H_    0.952442 0.945806 0.664496 0.230456
N5    N     N_2   0.947570 0.374433 0.984641 -0.281410
H45   H     H_    0.878561 0.412257 0.998273 0.241300
C71   C     C_3   0.980305 0.326455 0.032893 -0.799618
H46   H     H_    0.952054 0.281919 0.024661 0.236778
H47   H     H_    0.958910 0.386854 0.106266 0.232125
H48   H     H_    0.055126 0.270958 0.005184 0.254409
N6    N     N_2   0.052713 0.625320 0.015138 -0.281695
H49   H     H_    0.121730 0.587438 0.001469 0.241280
C72   C     C_3   0.019976 0.673338 0.966915 -0.799204
H50   H     H_    0.048362 0.717719 0.975035 0.237014
H51   H     H_    0.945169 0.728983 0.994739 0.254748
H52   H     H_    0.041221 0.612982 0.893562 0.232050
N7    N     N_2   0.155597 0.299092 0.919640 -0.309896
H53   H     H_    0.171201 0.277366 0.963648 0.231373
C73   C     C_3   0.164493 0.219080 0.832775 -0.802785
H54   H     H_    0.230475 0.143401 0.806121 0.233448
H55   H     H_    0.162407 0.239248 0.783462 0.245047
H56   H     H_    0.109345 0.209828 0.839642 0.266705
N8    N     N_2   0.844733 0.700836 0.080254 -0.309911
H57   H     H_    0.829126 0.722517 0.036217 0.231329
C74   C     C_3   0.836231 0.780728 0.166944 -0.801208
H58   H     H_    0.770751 0.856748 0.193323 0.234458
H59   H     H_    0.891969 0.789058 0.159937 0.267062
H60   H     H_    0.837581 0.761075 0.216533 0.244666
N9    N     N_2   0.546336 0.530803 0.153503 -0.294325
H61   H     H_    0.491060 0.590620 0.212065 0.209195
C75   C     C_3   0.623336 0.536004 0.158569 -0.804952
H62   H     H_    0.639934 0.539853 0.219137 0.239801
H63   H     H_    0.607506 0.606743 0.164159 0.232431
H64   H     H_    0.683645 0.465170 0.097737 0.250366
N10   N     N_2   0.453664 0.469161 0.846473 -0.293347
H65   H     H_    0.508944 0.409369 0.787912 0.208780
C76   C     C_3   0.376697 0.463895 0.841390 -0.803470
H66   H     H_    0.360082 0.460058 0.780831 0.239847
H67   H     H_    0.316381 0.534696 0.902228 0.250467
H68   H     H_    0.392578 0.393125 0.835770 0.231755
C77   C     C_3   0.440786 0.080773 0.892484 -0.400559
C78   C     C_3   0.470883 0.995175 0.791775 -0.353542
C79   C     C_3   0.455915 0.038403 0.734727 -0.890607
H69   H     H_    0.383425 0.103073 0.758167 0.271010
H70   H     H_    0.497935 0.067786 0.739569 0.264520
H71   H     H_    0.475818 0.975441 0.662648 0.249334
H72   H     H_    0.543923 0.931166 0.767103 0.220623
H73   H     H_    0.431475 0.962004 0.782103 0.218370
H74   H     H_    0.365864 0.137597 0.919724 0.198825
H75   H     H_    0.470758 0.123756 0.900705 0.199891
C80   C     C_3   0.557392 0.921313 0.108877 -0.407866
C81   C     C_3   0.529476 0.008648 0.208356 -0.332400
C82   C     C_3   0.545598 0.968371 0.267838 -0.904892
H76   H     H_    0.503092 0.940319 0.266321 0.266571
H77   H     H_    0.618014 0.903331 0.243896 0.272063
H78   H     H_    0.527106 0.032556 0.338885 0.251332
H79   H     H_    0.569232 0.040901 0.214541 0.242654
H80   H     H_    0.456441 0.073013 0.233645 0.218393
H81   H     H_    0.524091 0.882411 0.103909 0.200896
H82   H     H_    0.631803 0.861377 0.081154 0.195789
N11   N     N_2   0.399459 0.930117 0.915027 -0.282172
H83   H     H_    0.430358 0.876234 0.845890 0.218412
C83   C     C_3   0.303748 0.008563 0.942231 -0.787817
H84   H     H_    0.270028 0.969652 0.910403 0.238261
H85   H     H_    0.292918 0.059326 0.919913 0.231391
H86   H     H_    0.271953 0.057098 0.016923 0.250245
N12   N     N_2   0.602949 0.067272 0.083305 -0.307067
H87   H     H_    0.594629 0.125845 0.079628 0.253474
C84   C     C_3   0.697742 0.986245 0.056659 -0.814195
H88   H     H_    0.730954 0.021920 0.096906 0.239605
H89   H     H_    0.732295 0.944786 0.983635 0.242330
H90   H     H_    0.705777 0.929379 0.069689 0.251458
C85   C     C_3   0.172637 0.300241 0.384228 -0.402378
C86   C     C_3   0.186898 0.209799 0.385197 -0.355780
C87   C     C_3   0.285733 0.115178 0.335626 -0.903196
H91   H     H_    0.306735 0.088336 0.264138 0.262119
H92   H     H_    0.330247 0.135196 0.369786 0.263758
H93   H     H_    0.294052 0.050340 0.336089 0.252746
H94   H     H_    0.167534 0.233522 0.455631 0.222978
H95   H     H_    0.144541 0.185939 0.350841 0.226989
H96   H     H_    0.181963 0.278391 0.313824 0.206465
H97   H     H_    0.225019 0.313221 0.404757 0.182798
C88   C     C_3   0.827544 0.699759 0.615696 -0.402836
C89   C     C_3   0.813578 0.790038 0.614618 -0.355315
C90   C     C_3   0.714848 0.884880 0.664201 -0.905993
H98   H     H_    0.670184 0.865040 0.630196 0.263976
H99   H     H_    0.693886 0.911911 0.735755 0.261090
H100  H     H_    0.706750 0.949520 0.663532 0.252880
H101  H     H_    0.856046 0.813725 0.648912 0.226654
H102  H     H_    0.832987 0.766223 0.544157 0.223076
H103  H     H_    0.775098 0.686920 0.595147 0.182134
H104  H     H_    0.818128 0.721673 0.686121 0.206283
C91   C     C_3   0.961674 0.350641 0.388186 -0.365436
C92   C     C_3   0.998439 0.295438 0.285688 -0.368994
C93   C     C_3   0.993323 0.202203 0.233034 -0.892933
H105  H     H_    0.036734 0.142939 0.246442 0.259961
H106  H     H_    0.922277 0.227829 0.252847 0.265976
H107  H     H_    0.017722 0.165627 0.159277 0.254449
H108  H     H_    0.957617 0.350368 0.267381 0.230251
H109  H     H_    0.069855 0.267415 0.264235 0.232627
H110  H     H_    0.989727 0.292188 0.404531 0.209009
H111  H     H_    0.887062 0.391762 0.409141 0.203351
C94   C     C_3   0.038555 0.649150 0.611796 -0.365379
C95   C     C_3   0.001715 0.704422 0.714299 -0.368764
C96   C     C_3   0.007116 0.797445 0.766934 -0.894598
H112  H     H_    0.078250 0.771571 0.747140 0.266600
H113  H     H_    0.963913 0.856735 0.753488 0.259536
H114  H     H_    0.982634 0.834085 0.840696 0.254119
H115  H     H_    0.930218 0.732690 0.735744 0.232350
H116  H     H_    0.042334 0.649464 0.732636 0.230419
H117  H     H_    0.113180 0.607923 0.590858 0.203291
H118  H     H_    0.010642 0.707566 0.595416 0.209000
C97   C     C_3   0.916311 0.556648 0.383542 -0.393254
C98   C     C_3   0.819261 0.586896 0.394076 -0.358157
C99   C     C_3   0.789728 0.594609 0.317434 -0.904896
H119  H     H_    0.794467 0.652502 0.315553 0.262016
H120  H     H_    0.832992 0.517330 0.251340 0.257946
H121  H     H_    0.718415 0.619969 0.328365 0.258267
H122  H     H_    0.813974 0.528508 0.393946 0.219524
H123  H     H_    0.771615 0.663960 0.459005 0.230491
H124  H     H_    0.917200 0.622636 0.396008 0.174353
H125  H     H_    0.961394 0.489578 0.312844 0.212991
C100  C     C_3   0.083798 0.443144 0.616408 -0.393590
C101  C     C_3   0.180812 0.412995 0.606009 -0.358040
C102  C     C_3   0.210495 0.404522 0.682309 -0.904829
H126  H     H_    0.167148 0.481481 0.748648 0.258052
H127  H     H_    0.206017 0.346159 0.683532 0.261878
H128  H     H_    0.281743 0.379382 0.671535 0.258307
H129  H     H_    0.228475 0.336219 0.540869 0.230703
H130  H     H_    0.185942 0.471745 0.606727 0.219650
H131  H     H_    0.038680 0.510136 0.687116 0.212961
H132  H     H_    0.082961 0.377077 0.603797 0.174612

loop_
_geom_bond_atom_site_label_1
_geom_bond_atom_site_label_2
_ccdc_geom_bond_type
C77   H75   S    
C51   O23   A    
C69   H40   S    
O1    Zn3   S    
N8    H57   S    
O1    Zn7   S    
N7    H53   S    
C12   H14   S    
C71   H47   S    
C34   C37   S    
C82   H77   S    
C82   H76   S    
O17   Zn5   S    
O3    Zn1   S    
C63   H15   S    
N12   H87   S    
C67   H32   S    
O19   Zn3   S    
C6    C9    S    
C24   O10   A    
C72   H50   S    
C87   H93   S    
C61   H20   S    
C99   H119  S    
C39   C41   S    
C74   H58   S    
C53   O25   A    
C84   H90   S    
C68   H35   S    
C50   O18   A    
C43   C46   S    
C101  H129  S    
C99   H121  S    
C23   O9    A    
C13   C18   S    
C4    C57   S    
C88   H103  S    
O2    Zn4   S    
N4    C70   S    
C5    C11   S    
C26   H2    S    
N10   C76   S    
C64   H27   S    
C98   H123  S    
C97   C98   S    
O14   Zn2   S    
C65   H26   S    
C76   H67   S    
C53   O21   A    
C58   C60   S    
C100  C101  S    
C81   H79   S    
C69   H39   S    
C102  H128  S    
C27   C29   S    
C3    C59   S    
C18   C20   S    
C40   C48   S    
C91   C92   S    
C62   C63   S    
C80   H82   S    
C66   H24   S    
O2    Zn8   S    
O2    Zn6   S    
C94   H117  S    
O13   Zn1   S    
C3    C55   S    
C40   C43   S    
C57   C61   S    
C6    N12   S    
N4    H41   S    
C56   C58   S    
C101  C102  S    
C93   H106  S    
C21   N1    S    
C85   H97   S    
C95   H115  S    
C1    C28   S    
O10   Zn6   S    
N6    C72   S    
C72   H51   S    
C52   O20   A    
C2    C27   S    
C102  H127  S    
C32   C38   S    
N5    C71   S    
C45   O15   A    
C90   H98   S    
C98   C99   S    
C54   O22   A    
C78   H73   S    
C9    C11   S    
C75   H64   S    
O23   Zn5   S    
C64   H28   S    
C100  H131  S    
O22   Zn8   S    
O20   Zn4   S    
C80   C81   S    
N7    C73   S    
C23   O13   A    
C55   C60   S    
C4    C56   S    
C71   H48   S    
C89   H102  S    
C82   H78   S    
C41   C43   S    
C14   C17   S    
C54   O26   A    
C15   C20   S    
N3    H37   S    
C42   C44   S    
C49   O17   A    
C80   H81   S    
C31   N5    S    
C53   C60   S    
C38   N8    S    
C61   H21   S    
C102  H126  S    
C73   H56   S    
C54   C59   S    
C74   H59   S    
O2    Zn2   S    
C7    C12   S    
C68   H36   S    
C13   C91   S    
C71   H46   S    
C66   H23   S    
C31   C33   S    
C13   C19   S    
C95   H116  S    
C79   H69   S    
C32   C35   S    
C14   C20   S    
C42   H6    S    
N2    H33   S    
C91   H110  S    
C87   H91   S    
C94   C95   S    
C11   H13   S    
C70   H44   S    
C73   H54   S    
C5    C7    S    
C65   H25   S    
C17   C19   S    
C76   H68   S    
C6    C8    S    
C14   C94   S    
N9    C75   S    
C84   H88   S    
C21   C29   S    
C93   H105  S    
C92   H109  S    
C49   O5    A    
C73   H55   S    
C88   H104  S    
N3    C69   S    
C32   C34   S    
C15   C85   S    
C46   O4    A    
N10   H65   S    
C79   H70   S    
C78   C79   S    
C85   C86   S    
C94   H118  S    
C19   C97   S    
N8    C74   S    
C96   H113  S    
N6    H49   S    
C98   H122  S    
C13   C15   S    
C86   H95   S    
C33   H3    S    
C93   H107  S    
C29   N3    S    
C4    C60   S    
C34   H4    S    
N11   H83   S    
C97   H125  S    
O5    Zn7   S    
C77   C78   S    
C63   H16   S    
C25   H1    S    
C101  H130  S    
C90   H99   S    
C20   C100  S    
O16   Zn4   S    
C66   H22   S    
C55   H9    S    
C36   C51   S    
C10   C12   S    
C78   H72   S    
C51   O19   A    
C46   O16   A    
O18   Zn6   S    
C100  H132  S    
C83   H85   S    
C21   C28   S    
O1    Zn5   S    
C56   H10   S    
C22   C27   S    
C55   C57   S    
C40   H8    S    
C89   H101  S    
N2    C68   S    
C14   C16   S    
C2    O8    A    
C1    O11   A    
C84   H89   S    
C39   C44   S    
C85   H96   S    
C36   C38   S    
C62   H19   S    
C4    H12   S    
C72   H52   S    
C44   C45   S    
C35   C37   S    
C39   C47   S    
O26   Zn2   S    
O7    Zn3   S    
C74   H60   S    
C77   H74   S    
C25   C30   S    
C7    C9    S    
C21   C25   S    
N11   C83   S    
C81   H80   S    
C22   C30   S    
O9    Zn5   S    
C92   C93   S    
C31   C36   S    
C39   H7    S    
C24   O14   A    
C8    C10   S    
O12   Zn8   S    
C91   H111  S    
C92   H108  S    
C40   C42   S    
C67   H31   S    
C67   H30   S    
C50   O6    A    
C17   C50   S    
C48   N10   S    
C37   N7    S    
C64   C65   S    
C87   H92   S    
C9    C24   S    
C15   C17   S    
C3    H11   S    
O21   Zn7   S    
C10   C23   S    
C25   C27   S    
C5    N11   S    
C68   H34   S    
O6    Zn8   S    
C16   C88   S    
C26   C28   S    
C33   C38   S    
O24   Zn6   S    
C56   C59   S    
C22   N2    S    
C32   N6    S    
C96   H114  S    
C70   H43   S    
C69   H38   S    
N1    H29   S    
C30   N4    S    
C5    C10   S    
C47   N9    S    
C99   H120  S    
C70   H42   S    
C6    C12   S    
C35   C52   S    
C76   H66   S    
C96   H112  S    
C43   C47   S    
C86   H94   S    
C81   C82   S    
C8    C11   S    
C52   O24   A    
C58   C64   S    
C33   C35   S    
C41   C48   S    
C28   C30   S    
C2    O12   A    
C63   H17   S    
C34   C36   S    
C42   C47   S    
C41   H5    S    
C86   C87   S    
C90   H100  S    
C79   H71   S    
N12   C84   S    
C57   C59   S    
C97   H124  S    
C3    C58   S    
C31   C37   S    
C83   H86   S    
C26   C29   S    
C16   C18   S    
N9    H61   S    
C22   C26   S    
C61   C62   S    
C88   C89   S    
O1    Zn1   S    
C75   H62   S    
O8    Zn4   S    
C65   C66   S    
C7    C77   S    
C8    C80   S    
C45   O3    A    
O4    Zn2   S    
C83   H84   S    
C75   H63   S    
N5    H45   S    
O11   Zn7   S    
C1    O7    A    
C62   H18   S    
O25   Zn1   S    
O15   Zn3   S    
C44   C48   S    
C18   C49   S    
C89   C90   S    
C95   C96   S    
N1    C67   S    
C16   C19   S    
