data_mof_unit_pretest_1632.cif
_audit_creation_date              2012-12-10T20:10:40-0500
_audit_creation_method            fapswitch 2.2
_symmetry_space_group_name_H-M    P1
_symmetry_Int_Tables_number       1
_space_group_crystal_system       triclinic
_cell_length_a                    15.903978
_cell_length_b                    15.903979
_cell_length_c                    43.015779
_cell_angle_alpha                 90.000013
_cell_angle_beta                  90.000011
_cell_angle_gamma                 89.906389
_cell_volume                      10880.2474454

loop_
_atom_site_label
_atom_site_type_symbol
_atom_type_description
_atom_site_fract_x
_atom_site_fract_y
_atom_site_fract_z
_atom_type_partial_charge
C1    C     C_R   0.500000 1.000000 0.131578 0.016922
C2    C     C_R   0.500000 0.000000 0.665733 0.619861
C3    C     C_R   1.000000 0.500000 0.334267 0.619862
C4    C     C_R   0.000000 0.500000 0.665748 0.607192
C5    C     C_R   0.000000 0.500000 0.834252 0.607191
C6    C     C_R   0.000000 0.500000 0.165733 0.619860
C7    C     C_R   0.500000 0.000000 0.834267 0.619861
C8    C     C_R   0.500000 0.000000 0.165748 0.607189
C9    C     C_R   0.339905 0.160095 0.250000 0.531283
C10   C     C_R   0.660093 0.839907 0.750000 0.509164
C11   C     C_R   0.839885 0.339885 0.250000 0.525451
C12   C     C_R   0.500000 1.000000 0.868454 0.018945
C13   C     C_R   0.160115 0.660115 0.750000 0.527916
C14   C     C_R   0.660095 0.839905 0.250000 0.531283
C15   C     C_R   0.339907 0.160093 0.750000 0.509164
C16   C     C_R   0.160115 0.660115 0.250000 0.525451
C17   C     C_R   0.839885 0.339885 0.750000 0.527917
C18   C     C_R   0.339885 0.839885 0.750000 0.525451
C19   C     C_R   0.660115 0.160115 0.250000 0.527918
C20   C     C_R   0.839905 0.660095 0.750000 0.531286
C21   C     C_R   0.160093 0.339907 0.250000 0.509165
C22   C     C_R   0.660115 0.160115 0.750000 0.525451
C23   C     C_R   0.000000 0.500000 0.131546 0.018945
C24   C     C_R   0.339885 0.839885 0.250000 0.527917
C25   C     C_R   0.160095 0.339905 0.750000 0.531289
C26   C     C_R   0.839907 0.660093 0.250000 0.509165
C27   C     C_1   0.276635 0.776635 0.250000 0.022239
C28   C     C_1   0.723364 0.223364 0.750000 0.021505
C29   C     C_1   0.223348 0.276652 0.250000 0.011085
C30   C     C_1   0.776649 0.723351 0.750000 0.012689
C31   C     C_1   0.723365 0.223365 0.250000 0.022239
C32   C     C_1   0.276636 0.776636 0.750000 0.021505
C33   C     C_1   0.776652 0.723348 0.250000 0.011085
C34   C     C_R   1.000000 0.500000 0.868422 0.016923
C35   C     C_1   0.223351 0.276649 0.750000 0.012691
C36   C     C_1   0.276652 0.223348 0.750000 0.011083
C37   C     C_1   0.723351 0.776649 0.250000 0.012686
C38   C     C_1   0.223365 0.723365 0.750000 0.022239
C39   C     C_1   0.776636 0.276636 0.250000 0.021506
C40   C     C_1   0.723348 0.776652 0.750000 0.011084
C41   C     C_1   0.276649 0.223351 0.250000 0.012686
C42   C     C_1   0.776635 0.276635 0.750000 0.022239
C43   C     C_1   0.223364 0.723364 0.250000 0.021505
C44   C     C_R   0.458115 0.064719 0.115042 0.205434
C45   C     C_R   1.000000 0.500000 0.631578 0.016923
C46   C     C_R   0.544826 0.937284 0.885014 0.203248
C47   C     C_R   0.062716 0.455174 0.114986 0.203248
C48   C     C_R   0.935279 0.541882 0.884958 0.205433
C49   C     C_R   0.541885 0.935281 0.115042 0.205432
C50   C     C_R   0.455174 0.062716 0.885014 0.203248
C51   C     C_R   0.937284 0.544826 0.114986 0.203247
C52   C     C_R   0.064721 0.458118 0.884958 0.205433
C53   C     C_R   0.958119 0.564722 0.615042 0.205433
C54   C     C_R   0.044824 0.437282 0.385014 0.203246
C55   C     C_R   0.562716 0.955175 0.614986 0.203248
C56   C     C_R   0.000000 0.500000 0.368454 0.018946
C57   C     C_R   0.435278 0.041881 0.384958 0.205432
C58   C     C_R   0.041881 0.435278 0.615042 0.205433
C59   C     C_R   0.955176 0.562718 0.385014 0.203248
C60   C     C_R   0.437284 0.044825 0.614986 0.203250
C61   C     C_R   0.564721 0.958119 0.384958 0.205433
C62   C     C_R   0.458089 0.063489 0.082515 -0.088444
C63   C     C_R   0.544779 0.938516 0.917539 -0.090162
C64   C     C_R   0.061484 0.455221 0.082461 -0.090162
C65   C     C_R   0.936509 0.541908 0.917485 -0.088444
C66   C     C_R   0.541911 0.936510 0.082515 -0.088443
C67   C     C_R   0.500000 1.000000 0.631546 0.018946
C68   C     C_R   0.455221 0.061484 0.917539 -0.090162
C69   C     C_R   0.938516 0.544779 0.082461 -0.090162
C70   C     C_R   0.063491 0.458092 0.917485 -0.088444
C71   C     C_R   0.958093 0.563492 0.582515 -0.088444
C72   C     C_R   0.044776 0.438514 0.417539 -0.090162
C73   C     C_R   0.561484 0.955222 0.582460 -0.090162
C74   C     C_R   0.436508 0.041907 0.417484 -0.088443
C75   C     C_R   0.041907 0.436508 0.582515 -0.088445
C76   C     C_R   0.955224 0.561486 0.417539 -0.090161
C77   C     C_R   0.438515 0.044778 0.582460 -0.090162
C78   C     C_R   0.500000 0.000000 0.368422 0.016924
C79   C     C_R   0.563492 0.958093 0.417484 -0.088444
C80   C     C_R   0.500000 1.000000 0.066020 -0.058068
C81   C     C_R   0.500000 1.000000 0.934035 -0.057412
C82   C     C_R   1.000000 0.500000 0.065965 -0.057411
C83   C     C_R   0.000000 0.500000 0.933980 -0.058067
C84   C     C_R   1.000000 0.500000 0.566020 -0.058067
C85   C     C_R   0.000000 0.500000 0.434035 -0.057411
C86   C     C_R   0.500000 0.000000 0.565965 -0.057412
C87   C     C_R   0.500000 1.000000 0.433980 -0.058067
C88   C     C_R   0.000000 0.500000 0.468435 0.362229
C89   C     C_R   0.500000 0.000000 0.334252 0.607192
C90   C     C_R   1.000000 0.500000 0.531620 0.362065
C91   C     C_R   0.500000 0.000000 0.468380 0.362065
C92   C     C_R   0.500000 1.000000 0.531565 0.362229
C93   C     C_R   0.500000 1.000000 0.968435 0.362229
C94   C     C_R   0.500000 1.000000 0.031620 0.362065
C95   C     C_R   0.000000 0.500000 0.968380 0.362065
C96   C     C_R   1.000000 0.500000 0.031565 0.362230
H1    H     H_    0.425597 0.112790 0.069986 0.202106
H2    H     H_    0.079645 0.390837 0.430061 0.201687
H3    H     H_    0.609161 0.920352 0.569939 0.201687
H4    H     H_    0.387205 0.074396 0.430014 0.202106
H5    H     H_    0.074396 0.387205 0.569986 0.202106
H6    H     H_    0.920355 0.609163 0.430061 0.201687
H7    H     H_    0.390839 0.079648 0.569939 0.201687
H8    H     H_    0.612795 0.925604 0.430014 0.202106
H9    H     H_    0.295063 0.162430 0.162280 0.381291
H10   H     H_    0.581798 0.783083 0.823794 0.365612
H11   H     H_    0.216917 0.418203 0.176206 0.365612
H12   H     H_    0.579648 0.890839 0.930061 0.201687
H13   H     H_    0.837561 0.704932 0.837721 0.381291
H14   H     H_    0.704928 0.837575 0.162285 0.381286
H15   H     H_    0.418202 0.216917 0.823794 0.365612
H16   H     H_    0.783083 0.581797 0.176206 0.365613
H17   H     H_    0.162438 0.295070 0.837720 0.381290
H18   H     H_    0.795073 0.662441 0.662280 0.381290
H19   H     H_    0.081791 0.283081 0.323794 0.365612
H20   H     H_    0.716917 0.918204 0.676206 0.365612
H21   H     H_    0.337566 0.204916 0.337713 0.381285
H22   H     H_    0.204938 0.337552 0.662274 0.381294
H23   H     H_    0.109161 0.420352 0.069939 0.201687
H24   H     H_    0.918209 0.716919 0.323794 0.365612
H25   H     H_    0.283083 0.081796 0.676206 0.365611
H26   H     H_    0.662440 0.795075 0.337719 0.381290
H27   H     H_    0.887207 0.574398 0.930014 0.202106
H28   H     H_    0.574403 0.887210 0.069986 0.202106
H29   H     H_    0.420352 0.109161 0.930061 0.201688
H30   H     H_    0.890839 0.579648 0.069939 0.201687
H31   H     H_    0.112793 0.425602 0.930014 0.202106
H32   H     H_    0.925604 0.612795 0.569986 0.202106
N1    N     N_R   0.541815 0.939616 0.015495 -0.188283
N2    N     N_R   0.958183 0.560383 0.484559 -0.188283
N3    N     N_R   0.439623 0.041825 0.515440 -0.188283
N4    N     N_R   0.560385 0.958186 0.484505 -0.188283
N5    N     N_R   0.958194 0.560391 0.515495 -0.188283
N6    N     N_R   0.041817 0.439617 0.484559 -0.188283
N7    N     N_R   0.560377 0.958175 0.515440 -0.188283
N8    N     N_R   0.439615 0.041814 0.484505 -0.188283
N9    N     N_R   0.458174 0.060377 0.984559 -0.188283
N10   N     N_R   0.939624 0.541827 0.015441 -0.188284
N11   N     N_R   0.060384 0.458184 0.984505 -0.188284
N12   N     N_R   0.458185 0.060384 0.015495 -0.188283
N13   N     N_R   0.541826 0.939623 0.984559 -0.188283
N14   N     N_R   0.060376 0.458173 0.015441 -0.188284
N15   N     N_R   0.939616 0.541816 0.984505 -0.188283
N16   N     N_R   0.041806 0.439609 0.515495 -0.188283
O1    O     O_3   0.500000 0.000000 0.250000 -0.489626
O2    O     O_R   0.500000 0.930740 0.680620 -0.482914
O3    O     O_3   0.614598 0.816769 0.350116 -0.466326
O4    O     O_R   0.930740 0.500000 0.319380 -0.482915
O5    O     O_R   0.069260 0.500000 0.680620 -0.483614
O6    O     O_R   0.000000 0.430740 0.819380 -0.483620
O7    O     O_R   0.000000 0.569260 0.180620 -0.482915
O8    O     O_R   0.569260 0.000000 0.819380 -0.482914
O9    O     O_R   0.430740 0.000000 0.180620 -0.483618
O10   O     O_R   0.000000 0.569260 0.819380 -0.483619
O11   O     O_R   0.000000 0.430740 0.180620 -0.482914
O12   O     O_R   0.430740 0.000000 0.819380 -0.482914
O13   O     O_3   0.500000 0.000000 0.750000 -0.488384
O14   O     O_R   0.569260 0.000000 0.180620 -0.483624
O15   O     O_R   0.402540 0.166630 0.268230 -0.518597
O16   O     O_R   0.597460 0.833370 0.731770 -0.515688
O17   O     O_R   0.833370 0.402540 0.268230 -0.523185
O18   O     O_R   0.166630 0.597460 0.731770 -0.523224
O19   O     O_R   0.597460 0.833370 0.268230 -0.518586
O20   O     O_R   0.402540 0.166630 0.731770 -0.515689
O21   O     O_R   0.166630 0.597460 0.268230 -0.523185
O22   O     O_R   0.833370 0.402540 0.731770 -0.523223
O23   O     O_R   0.402540 0.833370 0.731770 -0.523185
O24   O     O_3   1.000000 0.500000 0.250000 -0.488384
O25   O     O_R   0.597460 0.166630 0.268230 -0.523222
O26   O     O_R   0.833370 0.597460 0.731770 -0.518588
O27   O     O_R   0.166630 0.402540 0.268230 -0.515688
O28   O     O_R   0.597460 0.166630 0.731770 -0.523185
O29   O     O_R   0.402540 0.833370 0.268230 -0.523223
O30   O     O_R   0.166630 0.402540 0.731770 -0.518577
O31   O     O_R   0.833370 0.597460 0.268230 -0.515688
O32   O     O_R   0.902540 0.666630 0.768230 -0.518585
O33   O     O_R   0.097460 0.333370 0.231770 -0.515689
O34   O     O_R   0.333370 0.902540 0.768230 -0.523185
O35   O     O_3   0.000000 0.500000 0.750000 -0.489629
O36   O     O_R   0.666630 0.097460 0.231770 -0.523223
O37   O     O_R   0.097460 0.333370 0.768230 -0.518589
O38   O     O_R   0.902540 0.666630 0.231770 -0.515689
O39   O     O_R   0.666630 0.097460 0.768230 -0.523185
O40   O     O_R   0.333370 0.902540 0.231770 -0.523224
O41   O     O_R   0.902540 0.333370 0.231770 -0.523185
O42   O     O_R   0.097460 0.666630 0.768230 -0.523224
O43   O     O_R   0.333370 0.097460 0.231770 -0.518584
O44   O     O_R   0.666630 0.902540 0.768230 -0.515689
O45   O     O_R   0.097460 0.666630 0.231770 -0.523185
O46   O     O_R   0.500000 0.930740 0.319380 -0.483620
O47   O     O_R   0.902540 0.333370 0.768230 -0.523223
O48   O     O_R   0.666630 0.902540 0.231770 -0.518595
O49   O     O_R   0.333370 0.097460 0.768230 -0.515688
O50   O     O_2   0.462723 0.183004 0.159609 -0.290391
O51   O     O_2   0.387601 0.219068 0.111682 -0.208310
O52   O     O_3   0.316762 0.114587 0.149883 -0.466326
O53   O     O_2   0.681544 0.889250 0.853573 -0.238805
O54   O     O_2   0.618562 0.784491 0.888152 -0.207876
O55   O     O_3   0.542320 0.817714 0.836204 -0.525695
O56   O     O_2   0.110751 0.318456 0.146427 -0.238804
O57   O     O_R   0.500000 0.069260 0.680620 -0.482914
O58   O     O_2   0.215509 0.381439 0.111848 -0.207875
O59   O     O_3   0.182286 0.457681 0.163796 -0.525696
O60   O     O_2   0.816994 0.537269 0.840390 -0.290391
O61   O     O_2   0.780927 0.612390 0.888317 -0.208312
O62   O     O_3   0.885405 0.683233 0.850116 -0.466327
O63   O     O_2   0.537276 0.816996 0.159610 -0.290401
O64   O     O_2   0.612399 0.780932 0.111683 -0.208300
O65   O     O_3   0.683238 0.885412 0.149883 -0.466320
O66   O     O_2   0.318456 0.110750 0.853573 -0.238804
O67   O     O_2   0.381438 0.215508 0.888152 -0.207876
O68   O     O_R   0.069260 0.500000 0.319380 -0.482915
O69   O     O_3   0.457680 0.182286 0.836204 -0.525696
O70   O     O_2   0.889249 0.681544 0.146427 -0.238799
O71   O     O_2   0.784491 0.618561 0.111848 -0.207872
O72   O     O_3   0.817714 0.542319 0.163796 -0.525696
O73   O     O_2   0.183006 0.462731 0.840390 -0.290394
O74   O     O_2   0.219073 0.387610 0.888317 -0.208310
O75   O     O_3   0.114595 0.316767 0.850116 -0.466326
O76   O     O_2   0.962734 0.683007 0.659610 -0.290394
O77   O     O_2   0.887613 0.719075 0.611683 -0.208310
O78   O     O_3   0.816769 0.614598 0.649884 -0.466326
O79   O     O_R   0.930740 0.500000 0.680620 -0.483621
O80   O     O_2   0.181541 0.389245 0.353573 -0.238799
O81   O     O_2   0.118555 0.284488 0.388152 -0.207871
O82   O     O_3   0.042314 0.317713 0.336204 -0.525697
O83   O     O_2   0.610751 0.818456 0.646427 -0.238804
O84   O     O_2   0.715509 0.881439 0.611848 -0.207876
O85   O     O_3   0.682286 0.957681 0.663796 -0.525695
O86   O     O_2   0.316993 0.037265 0.340390 -0.290403
O87   O     O_2   0.280925 0.112387 0.388317 -0.208297
O88   O     O_3   0.385402 0.183230 0.350116 -0.466321
O89   O     O_2   0.037267 0.316993 0.659610 -0.290382
O90   O     O_R   0.500000 0.069260 0.319380 -0.483627
O91   O     O_2   0.112387 0.280925 0.611683 -0.208321
O92   O     O_3   0.183231 0.385402 0.649883 -0.466330
O93   O     O_2   0.818459 0.610755 0.353573 -0.238804
O94   O     O_2   0.881445 0.715512 0.388152 -0.207874
O95   O     O_3   0.957686 0.682287 0.336204 -0.525696
O96   O     O_2   0.389249 0.181544 0.646427 -0.238810
O97   O     O_2   0.284491 0.118561 0.611848 -0.207879
O98   O     O_3   0.317714 0.042319 0.663796 -0.525694
O99   O     O_2   0.683007 0.962735 0.340390 -0.290393
O100  O     O_2   0.719075 0.887613 0.388317 -0.208308
S1    S     S_3+6 0.407088 0.149475 0.134229 0.062998
S2    S     S_3+6 0.100045 0.355062 0.365915 0.061889
S3    S     S_3+6 0.644935 0.899951 0.634085 0.061885
S4    S     S_3+6 0.350519 0.092903 0.365771 0.062999
S5    S     S_3+6 0.092904 0.350520 0.634229 0.062994
S6    S     S_3+6 0.899955 0.644938 0.365915 0.061886
S7    S     S_3+6 0.355065 0.100049 0.634085 0.061881
S8    S     S_3+6 0.649480 0.907097 0.365771 0.062998
S9    S     S_3+6 0.600050 0.855065 0.865915 0.061885
S10   S     S_3+6 0.144935 0.399951 0.134085 0.061886
S11   S     S_3+6 0.850521 0.592906 0.865771 0.062997
S12   S     S_3+6 0.592912 0.850525 0.134229 0.063000
S13   S     S_3+6 0.399950 0.144935 0.865915 0.061886
S14   S     S_3+6 0.855065 0.600049 0.134085 0.061889
S15   S     S_3+6 0.149479 0.407094 0.865771 0.062997
S16   S     S_3+6 0.907096 0.649480 0.634229 0.062996
Zn1   Zn    Zn3+2 0.401050 0.000000 0.224090 1.045635
Zn2   Zn    Zn3+2 0.098950 0.500000 0.275910 1.037867
Zn3   Zn    Zn3+2 0.500000 0.901050 0.724090 1.037867
Zn4   Zn    Zn3+2 0.500000 0.098950 0.275910 1.045628
Zn5   Zn    Zn3+2 0.098950 0.500000 0.724090 1.045643
Zn6   Zn    Zn3+2 0.901050 0.500000 0.275910 1.037867
Zn7   Zn    Zn3+2 0.500000 0.098950 0.724090 1.037867
Zn8   Zn    Zn3+2 0.500000 0.901050 0.275910 1.045634
Zn9   Zn    Zn3+2 0.598950 1.000000 0.775910 1.037867
Zn10  Zn    Zn3+2 0.000000 0.401050 0.224090 1.037866
Zn11  Zn    Zn3+2 1.000000 0.598950 0.775910 1.045636
Zn12  Zn    Zn3+2 0.598950 0.000000 0.224090 1.045629
Zn13  Zn    Zn3+2 0.401050 1.000000 0.775910 1.037867
Zn14  Zn    Zn3+2 0.000000 0.598950 0.224090 1.037867
Zn15  Zn    Zn3+2 0.000000 0.401050 0.775910 1.045635
Zn16  Zn    Zn3+2 0.901050 0.500000 0.724090 1.045635

loop_
_geom_bond_atom_site_label_1
_geom_bond_atom_site_label_2
_ccdc_geom_bond_type
C70   H31   S    
C57   C74   A    
H9    O52   S    
C20   O26   A    
O45   Zn14  S    
C52   C70   A    
C95   N15   A    
O39   Zn9   S    
C87   C91   S    
O52   S1    S    
C24   O40   A    
C1    C8    S    
C94   N12   A    
C3    O68   A    
C35   C36   T    
O97   S7    D    
C24   C27   S    
C88   N2    A    
O92   S5    S    
C19   C31   S    
O33   Zn10  S    
C79   C87   A    
C72   C85   A    
C66   C80   A    
C18   C32   S    
O89   S5    D    
C13   O18   A    
O64   S12   D    
O84   S3    D    
C20   C30   S    
O48   Zn12  S    
C17   O47   A    
O66   S13   D    
C4    O5    A    
O51   S1    D    
O68   Zn2   S    
C64   H23   S    
C63   C81   A    
O1    Zn12  S    
C68   C81   A    
O35   Zn16  S    
O71   S14   D    
C62   C80   A    
O76   S16   D    
O28   Zn7   S    
N10   N15   A    
C61   S8    S    
O65   S12   S    
C96   N10   A    
O44   Zn9   S    
N11   N14   A    
C75   C84   A    
C65   C83   A    
N1    N13   A    
O62   S11   S    
O49   Zn13  S    
C5    O10   A    
C73   H3    S    
C11   O17   A    
O14   Zn12  S    
C10   C40   S    
O4    Zn6   S    
C14   O19   A    
C17   C42   S    
O86   S4    D    
C69   C82   A    
C1    C44   A    
C45   C53   A    
O42   Zn11  S    
C76   C85   A    
C91   N8    A    
O87   S4    D    
C60   C67   A    
O15   Zn4   S    
O50   S1    D    
C1    C49   A    
O16   Zn3   S    
C10   O44   A    
C89   O46   A    
C13   O42   A    
C32   C38   T    
C48   C65   A    
O1    Zn8   S    
O77   S16   D    
O9    Zn1   S    
C22   O28   A    
C16   O21   A    
C46   S9    S    
C6    O11   A    
O61   S11   D    
O24   Zn14  S    
O38   Zn14  S    
O59   S10   S    
C14   O48   A    
C21   O33   A    
O26   Zn16  S    
C8    O14   A    
C3    O4    A    
C53   S16   S    
C55   S3    S    
O94   S6    D    
O95   S6    S    
C28   C42   T    
C7    C12   S    
C2    O57   A    
C84   C90   S    
H13   O62   S    
C59   S6    S    
C57   S4    S    
O13   Zn7   S    
C24   O29   A    
C25   O30   A    
O31   Zn6   S    
O47   Zn15  S    
O20   Zn7   S    
C25   O37   A    
C58   C75   A    
O82   S2    S    
C10   O16   A    
C4    C45   S    
C78   C89   S    
C76   H6    S    
H25   O98   S    
O3    S8    S    
N9    N12   A    
C54   C56   A    
C45   C58   A    
C94   N1    A    
C82   C96   S    
C49   C66   A    
C7    O12   A    
O53   S9    D    
C19   O25   A    
C15   O20   A    
C92   N3    A    
C23   C47   A    
O6    Zn15  S    
H19   O82   S    
C12   C46   A    
C2    C67   S    
C20   O32   A    
C60   C77   A    
O60   S11   D    
O72   S14   S    
O55   S9    S    
C74   H4    S    
C91   N4    A    
H24   O95   S    
C54   C72   A    
C44   C62   A    
C54   S2    S    
C21   O27   A    
C52   S15   S    
C96   N14   A    
O43   Zn1   S    
O25   Zn4   S    
C33   C37   T    
C5    O6    A    
C27   C43   T    
O88   S4    S    
C55   C73   A    
C89   O90   A    
O27   Zn2   S    
O63   S12   D    
H11   O59   S    
C22   O39   A    
C72   H2    S    
O21   Zn2   S    
O24   Zn10  S    
C60   S7    S    
C62   H1    S    
C81   C93   S    
C3    C56   S    
C26   C33   S    
C23   C51   A    
O35   Zn15  S    
O17   Zn6   S    
C83   C95   S    
C5    C34   S    
O1    Zn4   S    
O40   Zn1   S    
O12   Zn13  S    
C92   N7    A    
C30   C40   T    
O2    Zn3   S    
O23   Zn3   S    
H26   O3    S    
H18   O78   S    
C48   S11   S    
C11   C39   S    
C70   C83   A    
C16   C43   S    
C64   C82   A    
C13   C38   S    
O36   Zn12  S    
C44   S1    S    
C25   C35   S    
O30   Zn5   S    
C6    O7    A    
O41   Zn10  S    
O54   S9    D    
O80   S2    D    
O13   Zn3   S    
C51   S14   S    
C69   H30   S    
O67   S13   D    
O1    Zn1   S    
C74   C87   A    
C65   H27   S    
C66   H28   S    
O93   S6    D    
C77   H7    S    
H14   O65   S    
O75   S15   S    
O98   S7    S    
C80   C94   S    
O10   Zn11  S    
C53   C71   A    
C34   C52   A    
O35   Zn5   S    
C15   C36   S    
C47   C64   A    
O11   Zn10  S    
C93   N13   A    
O34   Zn13  S    
N6    N16   A    
C71   C84   A    
C90   N5    A    
C85   C88   S    
O81   S2    D    
C49   S12   S    
H22   O92   S    
O85   S3    S    
O99   S8    D    
O100  S8    D    
O8    Zn9   S    
O69   S13   S    
C11   O41   A    
C95   N11   A    
C57   C78   A    
C71   H32   S    
H15   O69   S    
C9    O43   A    
N2    N5    A    
O24   Zn6   S    
C8    O9    A    
C77   C86   A    
C55   C67   A    
C18   O23   A    
H17   O75   S    
O79   Zn16  S    
C50   S13   S    
O35   Zn11  S    
C2    O2    A    
C4    O79   A    
O57   Zn7   S    
H21   O88   S    
C9    C41   S    
O73   S15   D    
C56   C59   A    
C46   C63   A    
C17   O22   A    
N3    N8    A    
H20   O85   S    
C63   H12   S    
C88   N6    A    
C86   C92   S    
C14   C37   S    
O13   Zn13  S    
O58   S10   D    
C21   C29   S    
C26   O31   A    
C61   C79   A    
N4    N7    A    
C6    C23   S    
C59   C76   A    
O90   Zn4   S    
C26   O38   A    
O19   Zn8   S    
C31   C39   T    
C68   H29   S    
H16   O72   S    
O13   Zn9   S    
C79   H8    S    
O7    Zn14  S    
C90   N16   A    
C73   C86   A    
C61   C78   A    
C93   N9    A    
C16   O45   A    
O37   Zn15  S    
O83   S3    D    
C7    O8    A    
C15   O49   A    
O74   S15   D    
C34   C48   A    
O24   Zn2   S    
C18   O34   A    
O96   S7    D    
C47   S10   S    
C75   H5    S    
C9    O15   A    
C29   C41   T    
O70   S14   D    
C58   S5    S    
C22   C28   S    
C51   C69   A    
O18   Zn5   S    
O46   Zn8   S    
O22   Zn16  S    
C50   C68   A    
C19   O36   A    
C12   C50   A    
O29   Zn8   S    
O78   S16   S    
O5    Zn5   S    
O32   Zn11  S    
O56   S10   D    
H10   O55   S    
O91   S5    D    
