data_mof_unit_pretest_1293.cif
_audit_creation_date              2013-03-05T16:13:07-0500
_audit_creation_method            fapswitch 2.2
_symmetry_space_group_name_H-M    P1
_symmetry_Int_Tables_number       1
_space_group_crystal_system       triclinic
_cell_length_a                    24.95748
_cell_length_b                    7.066739
_cell_length_c                    22.59121
_cell_angle_alpha                 89.999884
_cell_angle_beta                  96.220421
_cell_angle_gamma                 90.001273
_cell_volume                      3960.90813975

loop_
_atom_site_label
_atom_site_type_symbol
_atom_site_description
_atom_site_fract_x
_atom_site_fract_y
_atom_site_fract_z
_atom_type_partial_charge
O1    O     O_R   0.551910 0.505710 0.449140 -0.587804
O2    O     O_R   0.448090 0.005710 0.550860 -0.587792
O3    O     O_R   0.442510 0.174130 0.436530 -0.583823
O4    O     O_R   0.557490 0.674130 0.563470 -0.583824
C1    C     C_R   0.423679 0.344568 0.421401 0.966355
C2    C     C_R   0.576320 0.844571 0.578599 0.966355
O5    O     O_R   0.551150 0.175880 0.442070 -0.597449
O6    O     O_R   0.448850 0.675880 0.557930 -0.597451
O7    O     O_R   0.557510 0.007410 0.556440 -0.584486
O8    O     O_R   0.442490 0.507410 0.443560 -0.584479
C3    C     C_R   0.568723 0.344710 0.428641 0.932730
C4    C     C_R   0.431278 0.844707 0.571362 0.932711
O9    O     O_3   0.501960 0.339800 0.537520 -0.277857
O10   O     O_3   0.498040 0.839800 0.462480 -0.277851
V1    V     V_3+5 0.499640 0.064240 0.493040 1.167022
V2    V     V_3+5 0.500360 0.564240 0.506960 1.167018
C5    C     C_R   0.145949 0.011957 0.793892 -0.237182
C6    C     C_R   0.853948 0.512769 0.206001 -0.237406
H1    H     H_    0.139107 0.070098 0.749304 0.183541
H2    H     H_    0.860718 0.571604 0.250503 0.183475
C7    C     C_R   0.104286 0.018329 0.830957 0.364321
C8    C     C_R   0.895609 0.519164 0.168935 0.364452
C9    C     C_R   0.112548 0.940131 0.889000 -0.351281
C10   C     C_R   0.887447 0.440105 0.111003 -0.351248
C11   C     C_R   0.163469 0.858372 0.909162 -0.132400
C12   C     C_R   0.836618 0.357456 0.090954 -0.132013
C13   C     C_R   0.204460 0.845723 0.869916 -0.039437
C14   C     C_R   0.795641 0.344739 0.130215 -0.039416
C15   C     C_R   0.195234 0.924521 0.812030 0.028550
C16   C     C_R   0.804769 0.424438 0.187985 0.028778
C17   C     C_1   0.234807 0.910428 0.769255 0.079737
C18   C     C_1   0.765207 0.410428 0.230773 0.080016
C19   C     C_1   0.268226 0.896441 0.734257 -0.032069
C20   C     C_1   0.731792 0.396477 0.265776 -0.031944
C21   C     C_R   0.343180 0.031323 0.685823 -0.013974
C22   C     C_R   0.656837 0.531355 0.314201 -0.014176
H3    H     H_    0.339411 0.160341 0.710953 0.129253
H4    H     H_    0.660609 0.660375 0.289072 0.129263
C23   C     C_R   0.382564 0.020978 0.646279 -0.140793
C24   C     C_R   0.617446 0.520996 0.353735 -0.140701
H5    H     H_    0.408129 0.142824 0.641750 0.135891
H6    H     H_    0.591879 0.642837 0.358261 0.135893
C25   C     C_R   0.389423 0.854905 0.613683 -0.181391
C26   C     C_R   0.610583 0.354917 0.386328 -0.181392
C27   C     C_R   0.355373 0.699896 0.621165 -0.127317
C28   C     C_R   0.644635 0.199917 0.378853 -0.127376
H7    H     H_    0.360031 0.571690 0.595918 0.166813
H8    H     H_    0.639974 0.071708 0.404097 0.166816
C29   C     C_R   0.314685 0.709962 0.660010 -0.037322
C30   C     C_R   0.685330 0.209997 0.340017 -0.037190
C31   C     C_R   0.308840 0.877915 0.692930 0.045622
C32   C     C_R   0.691178 0.377954 0.307100 0.045686
C33   C     C_3   0.752514 0.774861 0.809051 -0.425681
C34   C     C_3   0.247484 0.274863 0.190949 -0.425606
C35   C     C_3   0.763189 0.113722 0.779403 -0.209919
C36   C     C_3   0.236810 0.613722 0.220600 -0.209948
C37   C     C_3   0.713146 0.091200 0.731385 -0.367598
C38   C     C_3   0.286856 0.591193 0.268614 -0.367590
H9    H     H_    0.665594 0.781446 0.781074 0.170154
H10   H     H_    0.334403 0.281415 0.218932 0.170167
H11   H     H_    0.738009 0.821562 0.851595 0.192539
H12   H     H_    0.261993 0.321576 0.148408 0.192549
H13   H     H_    0.747420 0.152439 0.822058 0.112170
H14   H     H_    0.252577 0.652454 0.177945 0.112126
H15   H     H_    0.675962 0.128853 0.751875 0.144381
H16   H     H_    0.324040 0.628829 0.248120 0.144393
H17   H     H_    0.714603 0.189150 0.693123 0.204127
H18   H     H_    0.285405 0.689155 0.306875 0.204111
C39   C     C_1   0.621965 0.854641 0.624283 -0.258153
C40   C     C_1   0.378032 0.354635 0.375719 -0.258155
C41   C     C_3   0.793760 0.920668 0.789105 0.113340
C42   C     C_3   0.206239 0.420666 0.210895 0.113311
C43   C     C_3   0.703452 0.751051 0.760962 -0.379964
C44   C     C_3   0.296542 0.251039 0.239042 -0.379992
C45   C     C_3   0.708246 0.885291 0.707576 0.287139
C46   C     C_3   0.291751 0.385288 0.292426 0.287120
C47   C     C_3   0.760927 0.836450 0.680216 -0.440647
C48   C     C_3   0.239067 0.336463 0.319785 -0.440660
C49   C     C_3   0.811234 0.847839 0.728420 0.223972
C50   C     C_3   0.188762 0.347826 0.271578 0.224030
C51   C     C_1   0.660529 0.866531 0.661984 -0.037617
C52   C     C_1   0.339468 0.366526 0.338018 -0.037594
C53   C     C_1   0.840396 0.933667 0.836581 -0.023571
C54   C     C_1   0.159604 0.433669 0.163418 -0.023556
C55   C     C_1   0.878340 0.943181 0.875121 -0.181168
C56   C     C_1   0.121659 0.443186 0.124879 -0.181419
H19   H     H_    0.826499 0.700971 0.735765 0.133572
H20   H     H_    0.173502 0.200950 0.264232 0.133543
H21   H     H_    0.757941 0.690715 0.661483 0.195809
H22   H     H_    0.242051 0.190739 0.338527 0.195805
H23   H     H_    0.772348 0.635253 0.817943 0.166825
H24   H     H_    0.227649 0.135257 0.182051 0.166849
H25   H     H_    0.701190 0.601625 0.745294 0.178471
H26   H     H_    0.298796 0.101615 0.254711 0.178480
H27   H     H_    0.764290 0.932179 0.641869 0.219646
H28   H     H_    0.235703 0.432218 0.358126 0.219658
O11   O     O_R   0.057480 0.291690 0.056480 -0.592085
O12   O     O_R   0.942520 0.791690 0.943520 -0.592060
O13   O     O_R   0.948840 0.619880 0.057940 -0.576534
O14   O     O_R   0.051160 0.119880 0.942060 -0.576648
C57   C     C_R   0.930780 0.451021 0.070476 1.000689
C58   C     C_R   0.069213 0.951026 0.929519 1.000776
O15   O     O_R   0.057480 0.621520 0.063480 -0.586944
O16   O     O_R   0.942520 0.121520 0.936520 -0.587040
O17   O     O_R   0.051910 0.789880 0.949130 -0.600950
O18   O     O_R   0.948090 0.289880 0.050870 -0.601092
C59   C     C_R   0.076366 0.452799 0.078803 1.006508
C60   C     C_R   0.923633 0.952796 0.921198 1.006580
O19   O     O_3   0.998020 0.455790 0.962510 -0.272728
O20   O     O_3   0.001980 0.955790 0.037490 -0.272703
V3    V     V_3+5 0.000370 0.731410 0.006960 1.220920
V4    V     V_3+5 0.999630 0.231410 0.993040 1.220794
C61   C     C_2   0.800483 0.274396 0.766569 0.580605
H29   H     H_    0.832008 0.317700 0.800761 0.022806
O21   O     O_2   0.796139 0.357046 0.718857 -0.571280
C62   C     C_2   0.199518 0.774384 0.233442 0.580632
H30   H     H_    0.167993 0.817702 0.199252 0.022811
O22   O     O_2   0.203862 0.857008 0.281158 -0.571271
N1    N     N_R   0.856131 0.958694 0.708757 0.255061
O23   O     O_R   0.904277 0.938370 0.736432 -0.305582
O24   O     O_R   0.850441 0.060819 0.660536 -0.306438
N2    N     N_R   0.143859 0.458655 0.291236 0.255075
O25   O     O_R   0.095717 0.438328 0.263551 -0.305876
O26   O     O_R   0.149540 0.560755 0.339464 -0.306441
N3    N     N_R   0.053485 0.101300 0.808263 0.246104
O27   O     O_R   0.052032 0.239016 0.769871 -0.336676
O28   O     O_R   0.008319 0.025244 0.819893 -0.363743
N4    N     N_R   0.946316 0.603031 0.191523 0.246105
O29   O     O_R   0.947600 0.741509 0.229632 -0.337236
O30   O     O_R   0.991566 0.527113 0.180119 -0.363332
C63   C     C_2   0.174624 0.797538 0.972568 0.427094
H31   H     H_    0.143475 0.733062 0.995622 0.036923
O31   O     O_2   0.218548 0.825458 0.000593 -0.589799
C64   C     C_2   0.825506 0.295779 0.027630 0.426780
H32   H     H_    0.856653 0.230746 0.004705 0.037224
O32   O     O_2   0.781606 0.323528 0.999532 -0.589731
C65   C     C_2   0.255402 0.741394 0.888882 0.590380
H33   H     H_    0.255387 0.625594 0.920409 0.041969
O33   O     O_2   0.297957 0.784835 0.870494 -0.580235
C66   C     C_2   0.744837 0.239396 0.111384 0.590028
H34   H     H_    0.744984 0.123535 0.079898 0.041877
O34   O     O_2   0.702249 0.282024 0.129840 -0.580372
C67   C     C_2   0.278454 0.545467 0.665354 0.513118
H35   H     H_    0.249405 0.545938 0.697755 0.026211
O35   O     O_2   0.280240 0.407368 0.633135 -0.578330
C68   C     C_2   0.721562 0.045508 0.334678 0.513213
H36   H     H_    0.750617 0.045989 0.302282 0.026310
O36   O     O_2   0.719773 0.907407 0.366894 -0.578377

loop_
_geom_bond_atom_site_label_1
_geom_bond_atom_site_label_2
_geom_bond_distance
_ccdc_geom_bond_type
C2    C39   1.453661 S    
C13   C15   1.417024 A    
C5    C15   1.397665 A    
C44   H26   1.113181 S    
C56   C59   1.452892 S    
O1    C3    1.314203 A    
C43   H25   1.113184 S    
O2    C4    1.314215 A    
N4    O29   1.301492 A    
C2    O7    1.320717 A    
C49   H19   1.111837 S    
C38   C46   1.551554 S    
C23   H5    1.083094 S    
O18   V4    1.973914 S    
C48   H22   1.112860 S    
O5    C3    1.317814 A    
C65   O33   1.220809 D    
C47   H21   1.112862 S    
C13   C65   1.491823 S    
C44   C46   1.549211 S    
C21   H3    1.083514 S    
C46   C48   1.551131 S    
C61   H29   1.085193 S    
C4    C25   1.492292 S    
C48   C50   1.572398 S    
C9    C58   1.492667 S    
C67   H35   1.084639 S    
O12   C60   1.311941 A    
C62   H30   1.085192 S    
C58   O17   1.311882 A    
O15   V3    1.967386 S    
C10   C57   1.492759 S    
O20   V3    1.727872 S    
C14   C66   1.491937 S    
C34   C44   1.555509 S    
C33   H11   1.113167 S    
C38   H16   1.113279 S    
C48   H28   1.109469 S    
C36   C42   1.566895 S    
C35   H13   1.113774 S    
C33   H23   1.112279 S    
C30   C32   1.416534 A    
C17   C19   1.213862 T    
C6    C16   1.397672 A    
C36   C38   1.571106 S    
C55   C60   1.452897 S    
H9    C43   1.112795 S    
C24   C26   1.405780 A    
C41   C53   1.497667 S    
C22   C32   1.401888 A    
C30   C68   1.485635 S    
C27   H7    1.083524 S    
O17   V3    1.973901 S    
O6    V2    1.980355 S    
C15   C17   1.458089 S    
C43   C45   1.549205 S    
C37   H17   1.111056 S    
C50   N2    1.474590 S    
C41   C49   1.569768 S    
C26   C28   1.407732 A    
C68   O36   1.221138 D    
N1    O24   1.301632 A    
C7    C9    1.417283 A    
C28   H8    1.083525 S    
C22   C24   1.399919 A    
C66   H34   1.084854 S    
O4    C2    1.324225 A    
O19   V4    1.727872 S    
C46   C52   1.493621 S    
O16   V4    1.967363 S    
O11   V4    1.967632 S    
C45   C51   1.493607 S    
C23   C25   1.405783 A    
O5    V1    1.980332 S    
C35   C61   1.515920 S    
C29   C31   1.416541 A    
C47   H27   1.109468 S    
C5    C7    1.404654 A    
C49   N1    1.474581 S    
C18   C20   1.213837 T    
O4    V2    1.967562 S    
C21   C23   1.399939 A    
C34   H24   1.112282 S    
C1    C40   1.453673 S    
C12   C64   1.492457 S    
C45   C47   1.551122 S    
C8    N4    1.439857 S    
C27   C29   1.414025 A    
O6    C4    1.317822 A    
O13   V3    1.980524 S    
C36   H14   1.113771 S    
C36   C62   1.515921 S    
C47   C49   1.572389 S    
C3    C26   1.492252 S    
O1    V2    1.974016 S    
O2    V1    1.974001 S    
C25   C27   1.407737 A    
C42   C54   1.497665 S    
C38   H18   1.111058 S    
C53   C55   1.216836 T    
O14   C58   1.317117 A    
O14   V4    1.980550 S    
O9    V1    2.189179 S    
C21   C31   1.401899 A    
N3    O27   1.301479 A    
C8    C10   1.417281 A    
C11   C13   1.427340 A    
C7    N3    1.439903 S    
C63   H31   1.082096 S    
C11   C63   1.492557 S    
O3    C1    1.324230 A    
O16   C60   1.314637 A    
O3    V1    1.967586 S    
C68   H36   1.084636 S    
C57   O18   1.311888 A    
C67   O35   1.221140 D    
O12   V3    1.967646 S    
O13   C57   1.317168 A    
C6    C8    1.404633 A    
C20   C32   1.456429 S    
C33   C43   1.555508 S    
C10   C12   1.425123 A    
C37   H15   1.113284 S    
C24   H6    1.083099 S    
C63   O31   1.221097 D    
N4    O30   1.301038 A    
C6    H2    1.084126 S    
C64   O32   1.221107 D    
N1    O23   1.300966 A    
C64   H32   1.082086 S    
C66   O34   1.220809 D    
C19   C31   1.456469 S    
C34   H12   1.113168 S    
C65   H33   1.084885 S    
C28   C30   1.414002 A    
C12   C14   1.427300 A    
C37   C45   1.551554 S    
C35   C37   1.571104 S    
O7    V1    1.962249 S    
C14   C16   1.417035 A    
C50   H20   1.111839 S    
O8    V2    1.962235 S    
C22   H4    1.083516 S    
C16   C18   1.458035 S    
C29   C67   1.485628 S    
H10   C44   1.112797 S    
C5    H1    1.084128 S    
C62   O22   1.220393 D    
O10   V2    2.189177 S    
C9    C11   1.425114 A    
C40   C52   1.217037 T    
C39   C51   1.217033 T    
O11   C59   1.311939 A    
C1    O8    1.320720 A    
C34   C42   1.557183 S    
C42   C50   1.569767 S    
O9    V2    1.728536 S    
N3    O28   1.301032 A    
O10   V1    1.728536 S    
C54   C56   1.216834 T    
O15   C59   1.314638 A    
N2    O25   1.300974 A    
N2    O26   1.301634 A    
C35   C41   1.566893 S    
C61   O21   1.220389 D    
C33   C41   1.557185 S    
