data_mof_unit_pretest_197.cif
_audit_creation_date              2012-12-11T15:21:38-0500
_audit_creation_method            fapswitch 2.2
_symmetry_space_group_name_H-M    P1
_symmetry_Int_Tables_number       1
_space_group_crystal_system       triclinic
_cell_length_a                    18.902967
_cell_length_b                    7.144321
_cell_length_c                    18.018806
_cell_angle_alpha                 90.218354
_cell_angle_beta                  108.752569
_cell_angle_gamma                 90.05615
_cell_volume                      2304.21998111

loop_
_atom_site_label
_atom_site_type_symbol
_atom_type_description
_atom_site_fract_x
_atom_site_fract_y
_atom_site_fract_z
_atom_type_partial_charge
O1    O     O_R   0.562310 0.505770 0.439670 -0.537572
O2    O     O_R   0.437690 0.005770 0.560330 -0.539202
O3    O     O_R   0.411650 0.169150 0.405330 -0.543415
O4    O     O_R   0.588350 0.669150 0.594670 -0.537520
C1    C     C_R   0.383975 0.345101 0.383755 0.645078
C2    C     C_R   0.616009 0.845895 0.616208 0.672454
O5    O     O_R   0.560140 0.175610 0.430010 -0.539621
O6    O     O_R   0.439860 0.675610 0.569990 -0.536188
O7    O     O_R   0.587240 0.012100 0.585200 -0.542251
O8    O     O_R   0.412760 0.512100 0.414800 -0.540269
C3    C     C_R   0.581633 0.344408 0.415681 0.704965
C4    C     C_R   0.415794 0.844401 0.581361 0.701945
O9    O     O_3   0.508720 0.341420 0.550890 -0.373186
O10   O     O_3   0.491280 0.841420 0.449110 -0.374863
V1    V     V_3+5 0.498380 0.063930 0.490560 1.370375
V2    V     V_3+5 0.501620 0.563930 0.509440 1.376453
C5    C     C_R   0.187816 0.053540 0.871569 0.093973
C6    C     C_R   0.811163 0.548239 0.125937 0.088382
C7    C     C_R   0.131198 0.917492 0.865552 -0.114458
C8    C     C_R   0.870856 0.419088 0.136529 -0.094573
C9    C     C_R   0.121798 0.770126 0.811034 -0.244673
C10   C     C_R   0.879974 0.274249 0.191369 -0.261549
C11   C     C_R   0.166667 0.757154 0.762285 0.061033
C12   C     C_R   0.832246 0.258315 0.236858 0.065587
C13   C     C_R   0.217963 0.900606 0.763371 0.005910
C14   C     C_R   0.778267 0.397167 0.232368 0.017404
C15   C     C_R   0.225290 0.055276 0.814628 0.089905
C16   C     C_R   0.770281 0.548740 0.179813 0.067725
C17   C     C_R   0.160324 0.603360 0.711919 -0.217655
C18   C     C_R   0.838238 0.105663 0.287146 -0.213791
C19   C     C_R   0.206159 0.585982 0.664074 0.135847
C20   C     C_R   0.790457 0.086049 0.332657 0.134547
C21   C     C_R   0.260447 0.726683 0.667228 0.071942
C22   C     C_R   0.735334 0.225001 0.328210 0.067868
C23   C     C_R   0.264161 0.886590 0.715299 0.030544
C24   C     C_R   0.730829 0.382380 0.279092 0.030722
C25   C     C_R   0.315159 0.032141 0.716533 0.105070
C26   C     C_R   0.678290 0.525200 0.276000 0.105109
C27   C     C_R   0.318109 0.190868 0.762975 -0.216392
C28   C     C_R   0.674844 0.681666 0.228689 -0.199542
C29   C     C_R   0.273428 0.203193 0.810808 -0.169256
C30   C     C_R   0.720508 0.694330 0.181809 -0.190129
C31   C     C_R   0.311610 0.712617 0.624599 -0.228997
C32   C     C_R   0.684460 0.212085 0.371071 -0.222319
C33   C     C_R   0.362996 0.856985 0.626948 -0.084681
C34   C     C_R   0.632340 0.354802 0.367858 -0.081197
C35   C     C_R   0.362824 0.017932 0.671542 -0.221683
C36   C     C_R   0.630389 0.511632 0.320902 -0.232984
H1    H     H_    0.080075 0.663137 0.807450 0.141205
H2    H     H_    0.923266 0.170595 0.197135 0.137376
H3    H     H_    0.311706 0.591630 0.588488 0.131394
H4    H     H_    0.685617 0.093911 0.408660 0.132721
H5    H     H_    0.401647 0.130966 0.673161 0.130001
H6    H     H_    0.590514 0.622514 0.318303 0.127973
H7    H     H_    0.355583 0.305718 0.762793 0.128587
H8    H     H_    0.636748 0.795442 0.228066 0.127707
H9    H     H_    0.277450 0.329599 0.845090 0.142156
H10   H     H_    0.717560 0.822329 0.149221 0.126485
C37   C     C_3   0.742466 0.901481 0.837634 -0.053609
C38   C     C_3   0.258908 0.422450 0.163660 -0.017947
C39   C     C_3   0.668483 0.891482 0.765288 0.015206
C40   C     C_3   0.331891 0.376737 0.234556 0.009123
H11   H     H_    0.640977 0.030852 0.760381 0.154594
H12   H     H_    0.371939 0.495622 0.243695 0.144304
H13   H     H_    0.819374 0.604919 0.805118 0.130343
H14   H     H_    0.186736 0.105849 0.191221 0.127079
C41   C     C_3   0.815067 0.723070 0.763686 0.012886
C42   C     C_3   0.186311 0.219620 0.233566 0.020444
C43   C     C_3   0.803471 0.074668 0.751053 -0.350920
C44   C     C_3   0.194248 0.568246 0.252687 -0.362310
C45   C     C_3   0.813493 0.911282 0.809961 -0.000022
C46   C     C_3   0.186867 0.413091 0.190446 -0.005359
H15   H     H_    0.798470 0.210231 0.779279 0.148149
H16   H     H_    0.192179 0.709131 0.226532 0.150471
C47   C     C_3   0.687459 0.865500 0.687404 0.019898
C48   C     C_3   0.312506 0.362849 0.312561 0.011680
C49   C     C_3   0.740167 0.695030 0.695011 -0.352277
C50   C     C_3   0.258397 0.196349 0.305998 -0.347470
C51   C     C_3   0.733212 0.042740 0.678369 -0.361105
C52   C     C_3   0.268714 0.544857 0.320921 -0.339308
H17   H     H_    0.698241 0.170999 0.670152 0.153920
H18   H     H_    0.303745 0.670923 0.322277 0.151189
H19   H     H_    0.750477 0.027414 0.625136 0.142327
H20   H     H_    0.256615 0.542004 0.377423 0.139035
H21   H     H_    0.750432 0.674301 0.638090 0.148686
H22   H     H_    0.245044 0.187425 0.361707 0.149183
O11   O     O_R   0.087220 0.271820 0.085230 -0.544504
O12   O     O_R   0.912780 0.771820 0.914770 -0.543350
O13   O     O_R   0.939860 0.595540 0.069990 -0.538275
O14   O     O_R   0.060140 0.095540 0.930010 -0.541855
C53   C     C_R   0.920193 0.426598 0.086450 0.722652
C54   C     C_R   0.081664 0.926462 0.915447 0.686949
O15   O     O_R   0.088340 0.601930 0.094680 -0.542069
O16   O     O_R   0.911660 0.101930 0.905320 -0.538074
O17   O     O_R   0.062310 0.765410 0.939660 -0.533497
O18   O     O_R   0.937690 0.265410 0.060340 -0.538482
C55   C     C_R   0.115490 0.432063 0.118637 0.633786
C56   C     C_R   0.885032 0.931257 0.881119 0.645941
O19   O     O_3   0.991270 0.429630 0.949130 -0.370385
O20   O     O_3   0.008730 0.929630 0.050870 -0.373834
V3    V     V_3+5 0.001620 0.707150 0.009440 1.364869
V4    V     V_3+5 0.998380 0.207150 0.990560 1.362104
C57   C     C_3   0.218772 0.171479 0.945684 -0.340872
C58   C     C_3   0.301422 0.125403 0.987253 -0.799405
H23   H     H_    0.317882 0.990598 0.966750 0.238263
H24   H     H_    0.338216 0.236352 0.976942 0.221008
H25   H     H_    0.311869 0.112699 0.050833 0.222801
H26   H     H_    0.211495 0.322839 0.931441 0.170848
H27   H     H_    0.189590 0.144758 0.988862 0.179470
C59   C     C_3   0.781314 0.651617 0.048237 -0.335143
C60   C     C_3   0.761676 0.512238 0.979538 -0.779106
H28   H     H_    0.803122 0.519998 0.947802 0.210072
H29   H     H_    0.760975 0.366815 0.999964 0.233127
H30   H     H_    0.705148 0.539514 0.938672 0.202154
H31   H     H_    0.729510 0.729063 0.042923 0.173110
H32   H     H_    0.821899 0.757958 0.042272 0.190216
C61   C     C_3   0.739690 0.059436 0.896357 -0.355303
C62   C     C_3   0.671966 0.045811 0.925310 -0.777886
H33   H     H_    0.622649 0.112316 0.882597 0.228876
H34   H     H_    0.658868 0.898646 0.934791 0.232688
H35   H     H_    0.683143 0.120077 0.982060 0.214970
H36   H     H_    0.790318 0.051507 0.948873 0.180699
H37   H     H_    0.739143 0.198955 0.869404 0.181991
C63   C     C_3   0.266271 0.615318 0.126038 -0.358350
C64   C     C_3   0.324575 0.617874 0.084123 -0.794221
H38   H     H_    0.381856 0.610607 0.126542 0.233177
H39   H     H_    0.314547 0.502425 0.040938 0.238386
H40   H     H_    0.320224 0.751254 0.052087 0.224147
H41   H     H_    0.212534 0.653952 0.081703 0.194716
H42   H     H_    0.281276 0.727839 0.171111 0.174868
C65   C     C_3   0.612675 0.740295 0.776412 -0.383644
C66   C     C_3   0.534769 0.819065 0.764303 -0.751383
H43   H     H_    0.532706 0.894010 0.817525 0.223519
H44   H     H_    0.519382 0.918400 0.714820 0.214456
H45   H     H_    0.493342 0.703203 0.752127 0.223773
H46   H     H_    0.607665 0.619622 0.736322 0.191900
H47   H     H_    0.631422 0.678841 0.835475 0.179815
C67   C     C_3   0.372424 0.197325 0.218540 -0.386335
C68   C     C_3   0.433809 0.239422 0.182703 -0.778982
H48   H     H_    0.410485 0.299172 0.123453 0.241444
H49   H     H_    0.475471 0.338079 0.220671 0.222745
H50   H     H_    0.463005 0.107565 0.177574 0.223713
H51   H     H_    0.400505 0.120381 0.272956 0.205081
H52   H     H_    0.331851 0.095322 0.181525 0.167762
H53   H     H_    0.712785 0.564381 0.705185 0.122932
H54   H     H_    0.285615 0.061310 0.300781 0.125398
H55   H     H_    0.853641 0.087974 0.732049 0.143110
H56   H     H_    0.146340 0.564031 0.275611 0.144711
C69   C     C_3   0.883390 0.709334 0.733526 -0.318410
C70   C     C_3   0.899672 0.507331 0.715976 -0.795786
H57   H     H_    0.914252 0.422598 0.770357 0.234936
H58   H     H_    0.850612 0.443693 0.671231 0.223985
H59   H     H_    0.947793 0.504778 0.693312 0.216553
H60   H     H_    0.873749 0.794020 0.679559 0.181616
H61   H     H_    0.934598 0.765363 0.777620 0.172120
C71   C     C_3   0.115394 0.193020 0.259121 -0.319957
C72   C     C_3   0.100937 0.988081 0.273150 -0.798766
H62   H     H_    0.088260 0.907716 0.217551 0.240513
H63   H     H_    0.150031 0.926356 0.318119 0.223839
H64   H     H_    0.051948 0.977762 0.294228 0.214630
H65   H     H_    0.121013 0.272873 0.313782 0.177083
H66   H     H_    0.064474 0.246657 0.214369 0.176146
H67   H     H_    0.119462 0.495321 0.710137 0.123660
H68   H     H_    0.880397 0.000135 0.290695 0.124168
C73   C     C_3   0.194316 0.417657 0.609802 -0.338933
C74   C     C_3   0.151965 0.471201 0.525162 -0.774718
H69   H     H_    0.096198 0.528437 0.520979 0.233671
H70   H     H_    0.183258 0.577386 0.503309 0.220810
H71   H     H_    0.144022 0.345138 0.487073 0.214948
H72   H     H_    0.248375 0.351739 0.613385 0.177849
H73   H     H_    0.161527 0.307630 0.627781 0.184642
C75   C     C_3   0.800955 0.916651 0.385616 -0.338311
C76   C     C_3   0.843097 0.967905 0.470796 -0.776000
H74   H     H_    0.899472 0.022879 0.475915 0.233640
H75   H     H_    0.812470 0.075225 0.493041 0.219913
H76   H     H_    0.849648 0.841273 0.507947 0.215845
H77   H     H_    0.746389 0.851529 0.380903 0.178251
H78   H     H_    0.833313 0.806377 0.367047 0.184599
H79   H     H_    0.748466 0.769975 0.870814 0.129458
H80   H     H_    0.250896 0.315592 0.116770 0.122051

loop_
_geom_bond_atom_site_label_1
_geom_bond_atom_site_label_2
_ccdc_geom_bond_type
C75   H77   S    
C73   H73   S    
H14   C42   S    
C73   C74   S    
O18   V4    S    
C41   C69   S    
C17   H67   S    
C60   H28   S    
O1    C3    A    
C18   H68   S    
C52   H20   S    
O2    C4    A    
C30   H10   S    
C2    O7    A    
C58   H24   S    
O12   V3    S    
C2    C47   S    
C27   C29   A    
C76   H74   S    
C39   C47   S    
C36   H6    S    
C72   H62   S    
C11   C17   A    
C71   C72   S    
C23   C25   A    
C12   C14   A    
C59   H32   S    
C67   H51   S    
C68   H50   S    
O16   C56   A    
C6    C8    A    
C38   C40   S    
O6    V2    S    
C43   C45   S    
C59   C60   S    
O14   V4    S    
C40   H12   S    
C7    C54   S    
C5    C7    A    
C53   O18   A    
C62   H33   S    
C27   H7    S    
C19   C73   S    
C66   H43   S    
C28   H8    S    
C70   H59   S    
C41   C49   S    
C44   H16   S    
C64   H40   S    
C19   C21   A    
C43   H15   S    
C57   H26   S    
O13   C53   A    
C26   C36   A    
C37   H79   S    
C42   C46   S    
C10   H2    S    
C50   H22   S    
C28   C30   A    
C20   C75   S    
C49   H21   S    
C72   H63   S    
C69   H60   S    
C67   H52   S    
C74   H70   S    
C40   C48   S    
C9    H1    S    
C58   H23   S    
C45   C56   S    
C32   C34   A    
C62   H34   S    
C46   C55   S    
C33   C35   A    
C42   C50   S    
C8    C53   S    
C34   C36   A    
C37   C39   S    
C44   C52   S    
C5    C15   A    
C6    C59   S    
C6    C16   A    
C52   H18   S    
C65   H46   S    
O15   V3    S    
C51   H17   S    
C39   C65   S    
O5    V1    S    
H13   C41   S    
C20   C22   A    
C54   O17   A    
C62   H35   S    
C21   C31   A    
O4    V2    S    
O5    C3    A    
C61   H36   S    
C7    C9    A    
C65   H47   S    
C70   H58   S    
O11   V4    S    
C31   C33   A    
C15   C29   A    
O14   C54   A    
O10   V1    S    
O6    C4    A    
O3    C1    A    
C39   H11   S    
C22   C32   A    
C60   H29   S    
O1    V2    S    
C40   C67   S    
O2    V1    S    
C47   C49   S    
C69   H61   S    
C76   H75   S    
C13   C23   A    
C14   C24   A    
C8    C10   A    
C71   H65   S    
C72   H64   S    
C9    C11   A    
C74   H69   S    
C43   H55   S    
C10   C12   A    
C43   C51   S    
O4    C2    A    
C25   C35   A    
C37   C61   S    
C65   C66   S    
O15   C55   A    
O3    V1    S    
C75   C76   S    
C76   H76   S    
C75   H78   S    
C73   H72   S    
C18   C20   A    
O13   V3    S    
C17   C19   A    
C48   C52   S    
C48   C50   S    
C4    C33   S    
C42   C71   S    
C68   H48   S    
C38   C63   S    
C38   H80   S    
C14   C16   A    
C35   H5    S    
C57   H27   S    
C1    C48   S    
C24   C26   A    
C61   H37   S    
C29   H9    S    
C1    O8    A    
C25   C27   A    
O8    V2    S    
C69   C70   S    
C63   H42   S    
C26   C28   A    
C68   H49   S    
C32   H4    S    
C64   H38   S    
C49   H53   S    
C31   H3    S    
C66   H45   S    
C16   C30   A    
O20   V3    S    
C21   C23   A    
C22   C24   A    
C63   H41   S    
C60   H30   S    
C41   C45   S    
C11   C13   A    
C5    C57   S    
C12   C18   A    
C67   C68   S    
C50   H54   S    
C71   H66   S    
C51   H19   S    
O19   V4    S    
C44   H56   S    
O16   V4    S    
C74   H71   S    
C66   H44   S    
O9    V2    S    
C57   C58   S    
C64   H39   S    
C38   C46   S    
C70   H57   S    
C3    C34   S    
C44   C46   S    
C61   C62   S    
C47   C51   S    
C59   H31   S    
C58   H25   S    
O12   C56   A    
O17   V3    S    
O7    V1    S    
C37   C45   S    
C63   C64   S    
O11   C55   A    
C13   C15   A    
