data_mof_unit_pretest_294.cif
_audit_creation_date              2013-03-05T15:49:17-0500
_audit_creation_method            fapswitch 2.2
_symmetry_space_group_name_H-M    P1
_symmetry_Int_Tables_number       1
_space_group_crystal_system       triclinic
_cell_length_a                    20.574965
_cell_length_b                    22.756113
_cell_length_c                    6.9485
_cell_angle_alpha                 90.000243
_cell_angle_beta                  87.226124
_cell_angle_gamma                 89.999878
_cell_volume                      3249.51907221

loop_
_atom_site_label
_atom_site_type_symbol
_atom_site_description
_atom_site_fract_x
_atom_site_fract_y
_atom_site_fract_z
_atom_type_partial_charge
O1    O     O_R   0.387100 0.552640 0.378490 -0.587865
O2    O     O_R   0.612900 0.052640 0.621510 -0.587867
O3    O     O_R   0.249610 0.559600 0.072250 -0.601619
O4    O     O_R   0.750390 0.059600 0.927750 -0.601621
O5    O     O_R   0.249120 0.447360 0.902040 -0.597087
O6    O     O_R   0.750880 0.947360 0.097960 -0.597080
C1    C     C_R   0.227345 0.573443 0.243773 0.958639
C2    C     C_R   0.772655 0.073443 0.756227 0.958648
O7    O     O_R   0.386610 0.559560 0.048860 -0.588481
O8    O     O_R   0.613390 0.059560 0.951140 -0.588482
O9    O     O_R   0.387100 0.447320 0.878470 -0.588682
O10   O     O_R   0.612900 0.947320 0.121530 -0.588681
C3    C     C_R   0.407879 0.574733 0.214603 0.924355
C4    C     C_R   0.592121 0.074733 0.785397 0.924355
O11   O     O_R   0.249120 0.552680 0.402050 -0.592855
O12   O     O_R   0.750880 0.052680 0.597950 -0.592860
O13   O     O_3   0.318110 0.463180 0.223790 -0.276276
O14   O     O_3   0.681890 0.963180 0.776210 -0.276271
V1    V     V_3+5 0.318110 0.506830 0.948930 1.170040
V2    V     V_3+5 0.681890 0.006830 0.051070 1.170040
O15   O     O_R   0.386610 0.440400 0.548840 -0.590891
O16   O     O_R   0.613390 0.940400 0.451160 -0.590890
C5    C     C_R   0.407976 0.425292 0.714573 0.924460
C6    C     C_R   0.592024 0.925292 0.285426 0.924457
O17   O     O_R   0.249610 0.440440 0.572240 -0.602392
O18   O     O_R   0.750390 0.940440 0.427760 -0.602383
C7    C     C_R   0.226826 0.427009 0.743803 0.919724
C8    C     C_R   0.773174 0.927011 0.256196 0.919717
V3    V     V_3+5 0.318110 0.493170 0.448930 1.166977
V4    V     V_3+5 0.681890 0.993170 0.551070 1.166980
O19   O     O_3   0.318110 0.536820 0.723940 -0.267707
O20   O     O_3   0.681890 0.036820 0.276060 -0.267713
C9    C     C_R   0.170581 0.387066 0.757644 -0.112095
C10   C     C_R   0.829423 0.887071 0.242354 -0.112078
C11   C     C_R   0.163789 0.342777 0.619246 -0.174552
C12   C     C_R   0.836200 0.842763 0.380695 -0.174540
C13   C     C_R   0.108049 0.307748 0.623263 -0.140997
C14   C     C_R   0.891942 0.807735 0.376683 -0.140997
C15   C     C_R   0.057679 0.317528 0.762950 0.173066
C16   C     C_R   0.942328 0.817536 0.237061 0.173074
C17   C     C_R   0.064260 0.361761 0.900934 -0.120056
C18   C     C_R   0.935762 0.861790 0.099140 -0.120034
C19   C     C_R   0.120856 0.395709 0.900430 -0.183216
C20   C     C_R   0.879164 0.895736 0.099636 -0.183211
C21   C     C_R   0.881862 0.200175 0.873827 0.353209
C22   C     C_R   0.118140 0.700173 0.126131 0.353176
C23   C     C_R   0.827295 0.163579 0.866345 -0.285618
C24   C     C_R   0.172707 0.663577 0.133632 -0.285611
C25   C     C_R   0.882149 0.102884 0.623934 -0.242391
C26   C     C_R   0.117851 0.602891 0.376065 -0.242341
C27   C     C_R   0.937728 0.138415 0.628660 0.185850
C28   C     C_R   0.062273 0.638423 0.371322 0.185848
C29   C     C_R   0.937987 0.187929 0.752529 -0.007937
C30   C     C_R   0.062016 0.687933 0.247440 -0.007988
C31   C     C_2   0.997073 0.283154 0.762534 -0.136103
C32   C     C_2   0.002933 0.783160 0.237477 -0.136070
C33   C     C_2   0.997995 0.224237 0.754712 -0.148297
C34   C     C_2   0.002009 0.724243 0.245255 -0.148215
C35   C     C_R   0.827292 0.114949 0.743530 -0.166641
C36   C     C_R   0.172709 0.614952 0.256466 -0.166653
H1    H     H_    0.201436 0.335554 0.507315 0.128670
H2    H     H_    0.798540 0.835524 0.492574 0.128646
H3    H     H_    0.785126 0.171992 0.961979 0.173822
H4    H     H_    0.214876 0.671984 0.037993 0.173854
H5    H     H_    0.882700 0.064481 0.531547 0.129637
H6    H     H_    0.117298 0.564490 0.468460 0.129631
H7    H     H_    0.044631 0.201849 0.739513 0.142568
H8    H     H_    0.955373 0.701854 0.260423 0.142553
H9    H     H_    0.025636 0.369854 0.009233 0.142243
H10   H     H_    0.974398 0.869899 0.990893 0.142226
H11   H     H_    0.124752 0.430104 0.007060 0.128382
H12   H     H_    0.875278 0.930147 0.993056 0.128364
H13   H     H_    0.951274 0.306820 0.775250 0.168732
H14   H     H_    0.048734 0.806823 0.224779 0.168688
H15   H     H_    0.103389 0.274207 0.514151 0.121444
H16   H     H_    0.896590 0.774179 0.485749 0.121444
C37   C     C_R   0.577078 0.361590 0.678384 -0.154754
C38   C     C_R   0.422921 0.861592 0.321569 -0.154759
H17   H     H_    0.535757 0.447744 0.658969 0.111580
H18   H     H_    0.464242 0.947746 0.340981 0.111578
H19   H     H_    0.667697 0.278845 0.676560 0.155903
H20   H     H_    0.332301 0.778848 0.323371 0.155895
H21   H     H_    0.626195 0.378009 0.652976 0.127434
H22   H     H_    0.373803 0.878012 0.346954 0.127426
C39   C     C_R   0.461708 0.382095 0.714894 -0.095182
C40   C     C_R   0.538293 0.882095 0.285101 -0.095179
C41   C     C_R   0.474626 0.095054 0.817718 -0.160202
C42   C     C_R   0.525374 0.595053 0.182314 -0.160202
C43   C     C_R   0.421058 0.132355 0.823091 -0.091606
C44   C     C_R   0.578943 0.632353 0.176954 -0.091604
C45   C     C_R   0.428980 0.192727 0.797377 -0.178184
C46   C     C_R   0.571021 0.692725 0.202657 -0.178184
C47   C     C_R   0.491485 0.217745 0.765061 0.092663
C48   C     C_R   0.508515 0.717745 0.234945 0.092663
C49   C     C_R   0.546540 0.178944 0.758778 0.097786
C50   C     C_R   0.453460 0.678944 0.241213 0.097783
C51   C     C_R   0.501136 0.279857 0.738939 0.089384
C52   C     C_R   0.498864 0.779857 0.261057 0.089384
C53   C     C_R   0.565623 0.301273 0.706257 0.165540
C54   C     C_R   0.434376 0.801274 0.293710 0.165541
C55   C     C_R   0.618492 0.262519 0.701084 -0.198126
C56   C     C_R   0.381506 0.762521 0.298869 -0.198125
C57   C     C_R   0.609241 0.202464 0.727069 -0.206468
C58   C     C_R   0.390757 0.702466 0.272896 -0.206457
C59   C     C_R   0.449411 0.321720 0.743511 -0.240659
C60   C     C_R   0.550590 0.821719 0.256500 -0.240659
C61   C     C_R   0.525642 0.401477 0.681963 -0.166760
C62   C     C_R   0.474357 0.901479 0.318002 -0.166761
C63   C     C_R   0.537521 0.117304 0.785492 -0.172264
C64   C     C_R   0.462478 0.617304 0.214512 -0.172263
H23   H     H_    0.399230 0.308991 0.767589 0.098360
H24   H     H_    0.600771 0.808989 0.232443 0.098358
H25   H     H_    0.466968 0.048336 0.839042 0.110490
H26   H     H_    0.533033 0.548334 0.161002 0.110491
H27   H     H_    0.385110 0.218601 0.803728 0.111875
H28   H     H_    0.614891 0.718599 0.196317 0.111873
H29   H     H_    0.372704 0.114275 0.847944 0.117679
H30   H     H_    0.627298 0.614271 0.152123 0.117680
H31   H     H_    0.651862 0.174476 0.721887 0.116360
H32   H     H_    0.348136 0.674478 0.278066 0.116358
N1    N     N_2   0.994306 0.122525 0.514019 -0.131212
H33   H     H_    0.999476 0.077806 0.493931 0.162604
C65   C     C_3   0.002791 0.154477 0.334778 -0.823230
H34   H     H_    0.961892 0.144900 0.240711 0.263289
H35   H     H_    0.049009 0.140760 0.258658 0.227463
H36   H     H_    0.005518 0.202431 0.362293 0.282288
N2    N     N_2   0.005691 0.622535 0.485948 -0.131218
H37   H     H_    0.000516 0.577817 0.506030 0.162607
C66   C     C_3   0.997198 0.654490 0.665183 -0.823204
H38   H     H_    0.038067 0.644877 0.759334 0.263238
H39   H     H_    0.950951 0.640805 0.741216 0.227467
H40   H     H_    0.994522 0.702446 0.637667 0.282329
N3    N     N_R   0.880096 0.246990 0.013060 0.227235
O21   O     O_R   0.826241 0.275720 0.050155 -0.405854
O22   O     O_R   0.928765 0.255523 0.122420 -0.433524
N4    N     N_R   0.119903 0.746979 0.986859 0.227250
O23   O     O_R   0.173775 0.775666 0.949576 -0.405854
O24   O     O_R   0.071207 0.755537 0.877620 -0.433533

loop_
_geom_bond_atom_site_label_1
_geom_bond_atom_site_label_2
_geom_bond_distance
_ccdc_geom_bond_type
C4    C63   1.483362 S    
C40   C62   1.395773 A    
O6    C8    1.297142 A    
O13   V3    1.706762 S    
O4    C2    1.294873 A    
V1    O19   1.705812 S    
C65   H34   1.111778 S    
C15   C17   1.401188 A    
C60   H24   1.077557 S    
C7    C9    1.471025 S    
O9    V1    2.005297 S    
C25   H5    1.084086 S    
C44   H30   1.082711 S    
C11   C13   1.395843 A    
O3    C1    1.294873 A    
C2    C35   1.467671 S    
C23   H3    1.084082 S    
C39   C59   1.409358 A    
C24   H4    1.084077 S    
C37   H21   1.083882 S    
O12   V4    1.999916 S    
C45   H27   1.076804 S    
C18   H10   1.083439 S    
C38   C62   1.393529 A    
O7    C3    1.298400 A    
C9    C11   1.404662 A    
O5    C7    1.297144 A    
O7    V1    2.000762 S    
C15   C31   1.472135 S    
C28   C30   1.418033 A    
C25   C27   1.402197 A    
C26   C28   1.402199 A    
O3    V1    2.011400 S    
O14   V4    1.706766 S    
C43   C45   1.393948 A    
C10   C12   1.404657 A    
C66   H40   1.109748 S    
C42   C64   1.397516 A    
C16   C18   1.401190 A    
C59   H23   1.077558 S    
C21   C29   1.423841 A    
C2    O12   1.296602 A    
C13   H15   1.083324 S    
C17   C19   1.397281 A    
C22   C30   1.423844 A    
C40   C60   1.409358 A    
C24   C36   1.397462 A    
C18   C20   1.397282 A    
C33   H7    1.087021 S    
C12   H2    1.083314 S    
C54   C56   1.399460 A    
C51   C53   1.421404 A    
C28   N2    1.425004 S    
C49   C57   1.404224 A    
O11   V3    1.999915 S    
C21   C23   1.400825 A    
O17   V3    2.010837 S    
C22   C24   1.400841 A    
C23   C35   1.397458 A    
C32   H14   1.085240 S    
C9    C19   1.404096 A    
C37   C61   1.393527 A    
C10   C20   1.404092 A    
N4    O24   1.300589 A    
C49   C63   1.425856 A    
O8    V2    2.000763 S    
C29   C33   1.486308 S    
C65   H36   1.109742 S    
C14   H16   1.083324 S    
C1    O11   1.296606 A    
C16   C32   1.472150 S    
C50   C64   1.425857 A    
C27   C29   1.418037 A    
C22   N4    1.438371 S    
C31   H13   1.085235 S    
C37   C53   1.404500 A    
C56   C58   1.390373 A    
N2    C66   1.445435 S    
C3    C64   1.483362 S    
V4    O20   2.153656 S    
C45   C47   1.414388 A    
C46   H28   1.076804 S    
C44   C46   1.393949 A    
V3    O19   2.153648 S    
O10   V2    2.005303 S    
O1    V3    2.004659 S    
H20   C56   1.084103 S    
H17   C61   1.083576 S    
C11   H1    1.083314 S    
C48   C50   1.435227 A    
C26   H6    1.084083 S    
N1    H33   1.031938 S    
C41   C63   1.397517 A    
C34   H8    1.087019 S    
C53   C55   1.399459 A    
C42   C44   1.390215 A    
O18   V4    2.010830 S    
C52   C54   1.421405 A    
C31   C33   1.341900 D    
C38   C54   1.404498 A    
N3    O21   1.301558 A    
C27   N1    1.425008 S    
O16   C6    1.298703 A    
O1    C3    1.298162 A    
N2    H37   1.031938 S    
C47   C51   1.437571 A    
C1    C36   1.467683 S    
C17   H9    1.083440 S    
C66   H38   1.111827 S    
V2    O20   1.705807 S    
C50   C58   1.404226 A    
O10   C6    1.298217 A    
C19   H11   1.083398 S    
O16   V4    2.001255 S    
O18   C8    1.296224 A    
C57   H31   1.082996 S    
C43   H29   1.082710 S    
N4    O23   1.301556 A    
C52   C60   1.427549 A    
O5    V1    1.999313 S    
O17   C7    1.296225 A    
O6    V2    1.999311 S    
H18   C62   1.083575 S    
C21   N3    1.438350 S    
C25   C35   1.396102 A    
O2    V4    2.004653 S    
C41   H25   1.083860 S    
C26   C36   1.396104 A    
O15   C5    1.298699 A    
C51   C59   1.427549 A    
C13   C15   1.402966 A    
C12   C14   1.395844 A    
C14   C16   1.402974 A    
C46   C48   1.414387 A    
C47   C49   1.435226 A    
O15   V3    2.001256 S    
O9    C5    1.298217 A    
O13   V1    2.152731 S    
C32   C34   1.341902 D    
C20   H12   1.083399 S    
O14   V2    2.152724 S    
C42   H26   1.083859 S    
O2    C4    1.298160 A    
N1    C65   1.445439 S    
C65   H35   1.110315 S    
C8    C10   1.471015 S    
O4    V2    2.011408 S    
C38   H22   1.083882 S    
C30   C34   1.486305 S    
C55   C57   1.390374 A    
C5    C39   1.479431 S    
N3    O22   1.300575 A    
C41   C43   1.390216 A    
C48   C52   1.437571 A    
H19   C55   1.084104 S    
C58   H32   1.082994 S    
C39   C61   1.395774 A    
C6    C40   1.479432 S    
O8    C4    1.298396 A    
C66   H39   1.110339 S    
