data_mof_unit_pretest_1792.cif
_audit_creation_date              2012-12-10T18:07:02-0500
_audit_creation_method            fapswitch 2.2
_symmetry_space_group_name_H-M    P1
_symmetry_Int_Tables_number       1
_space_group_crystal_system       triclinic
_cell_length_a                    21.605073
_cell_length_b                    21.60562
_cell_length_c                    38.840813
_cell_angle_alpha                 89.999955
_cell_angle_beta                  89.999971
_cell_angle_gamma                 89.999294
_cell_volume                      18130.5418352

loop_
_atom_site_label
_atom_site_type_symbol
_atom_type_description
_atom_site_fract_x
_atom_site_fract_y
_atom_site_fract_z
_atom_type_partial_charge
C1    C     C_R   0.619940 1.000000 0.500000 1.009961
C2    C     C_R   0.027469 0.781492 0.472626 -0.298040
C3    C     C_R   0.999999 0.500000 0.104805 -0.080405
C4    C     C_R   0.000000 0.500000 0.395171 -0.080928
C5    C     C_R   0.499998 0.000000 0.395195 -0.080408
C6    C     C_R   0.000000 0.500001 0.604820 -0.080732
C7    C     C_R   0.500000 1.000000 0.604801 -0.080326
C8    C     C_R   0.538851 0.040677 0.767866 -0.198497
C9    C     C_R   0.039823 0.460266 0.767891 -0.198448
C10   C     C_R   0.461149 0.959317 0.767866 -0.198500
C11   C     C_R   0.960181 0.539732 0.767892 -0.198429
C12   C     C_R   0.539045 0.959507 0.232129 -0.198489
C13   C     C_R   0.218514 0.027365 0.472593 -0.298036
C14   C     C_R   0.039411 0.540138 0.232096 -0.198405
C15   C     C_R   0.460950 0.040493 0.232128 -0.198484
C16   C     C_R   0.960588 0.459863 0.232097 -0.198408
C17   C     C_R   0.039038 0.540501 0.267871 -0.198490
C18   C     C_R   0.539417 0.959871 0.267904 -0.198399
C19   C     C_R   0.960962 0.459499 0.267872 -0.198487
C20   C     C_R   0.460576 0.040130 0.267902 -0.198413
C21   C     C_R   0.039454 0.459902 0.732116 -0.198460
C22   C     C_R   0.539227 0.040316 0.732091 -0.198400
C23   C     C_R   0.960549 0.540098 0.732117 -0.198463
C24   C     C_R   0.972531 0.218508 0.472626 -0.298039
C25   C     C_R   0.460773 0.959680 0.732091 -0.198392
C26   C     C_R   0.500000 0.999999 0.714227 0.099093
C27   C     C_R   0.000001 0.500000 0.714253 0.099060
C28   C     C_R   0.499996 0.000001 0.285767 0.099080
C29   C     C_R   0.000001 0.500000 0.285734 0.099056
C30   C     C_R   0.999999 0.500001 0.214233 0.099078
C31   C     C_R   0.499998 0.999999 0.214265 0.099057
C32   C     C_R   0.000002 0.499998 0.785755 0.099071
C33   C     C_R   0.500000 0.999997 0.785729 0.099050
C34   C     C_R   0.717159 0.971980 0.472515 0.371690
C35   C     C_R   0.781485 0.027363 0.527408 -0.298041
C36   C     C_R   0.028127 0.717165 0.472548 0.371898
C37   C     C_R   0.282841 0.028020 0.472515 0.371690
C38   C     C_R   0.971873 0.282835 0.472548 0.371897
C39   C     C_R   0.717158 0.028017 0.527486 0.371659
C40   C     C_R   0.028126 0.282834 0.527452 0.371830
C41   C     C_R   0.282842 0.971982 0.527486 0.371661
C42   C     C_R   0.971873 0.717166 0.527452 0.371830
C43   C     C_R   0.217161 0.471952 0.972523 0.371755
C44   C     C_R   0.528158 0.217167 0.972558 0.371933
C45   C     C_R   0.782839 0.528049 0.972524 0.371756
C46   C     C_R   0.027468 0.218507 0.527375 -0.298042
C47   C     C_R   0.471843 0.782833 0.972558 0.371930
C48   C     C_R   0.217160 0.528044 0.027478 0.371690
C49   C     C_R   0.528157 0.782832 0.027442 0.371901
C50   C     C_R   0.782840 0.471954 0.027477 0.371692
C51   C     C_R   0.471842 0.217168 0.027442 0.371901
C52   C     C_3   0.599033 0.936007 0.821086 -0.409109
C53   C     C_3   0.646699 0.900005 0.842583 -0.363399
C54   C     C_3   0.693048 0.866571 0.819467 -0.872114
C55   C     C_3   0.065967 0.597731 0.821119 -0.409138
C56   C     C_3   0.103045 0.644556 0.842621 -0.363229
C57   C     C_R   0.218514 0.972636 0.527407 -0.298042
C58   C     C_3   0.137509 0.690152 0.819510 -0.872216
C59   C     C_3   0.400964 0.063984 0.821085 -0.409109
C60   C     C_3   0.353297 0.099985 0.842582 -0.363398
C61   C     C_3   0.306945 0.133414 0.819465 -0.872113
C62   C     C_3   0.934043 0.402260 0.821119 -0.409135
C63   C     C_3   0.896987 0.355417 0.842622 -0.363227
C64   C     C_3   0.862539 0.309809 0.819511 -0.872217
C65   C     C_3   0.598756 0.064414 0.178907 -0.409121
C66   C     C_3   0.646245 0.100646 0.157410 -0.363370
C67   C     C_3   0.692436 0.134300 0.180525 -0.872120
C68   C     C_R   0.972532 0.781492 0.527375 -0.298042
C69   C     C_3   0.066831 0.402852 0.178865 -0.409154
C70   C     C_3   0.104374 0.356401 0.157360 -0.363156
C71   C     C_3   0.139284 0.311141 0.180469 -0.872254
C72   C     C_3   0.401243 0.935583 0.178907 -0.409121
C73   C     C_3   0.353754 0.899350 0.157408 -0.363369
C74   C     C_3   0.307564 0.865696 0.180524 -0.872120
C75   C     C_3   0.933166 0.597148 0.178865 -0.409153
C76   C     C_3   0.895621 0.643597 0.157360 -0.363150
C77   C     C_3   0.860710 0.688857 0.180468 -0.872254
C78   C     C_3   0.098760 0.435587 0.321092 -0.409122
C79   C     C_R   0.281488 0.472608 0.972602 -0.298040
C80   C     C_3   0.146252 0.399357 0.342590 -0.363366
C81   C     C_3   0.192444 0.365706 0.319474 -0.872118
C82   C     C_3   0.566792 0.097174 0.321135 -0.409160
C83   C     C_3   0.604314 0.143641 0.342639 -0.363156
C84   C     C_3   0.639202 0.188917 0.319531 -0.872247
C85   C     C_3   0.901242 0.564415 0.321092 -0.409121
C86   C     C_3   0.853752 0.600648 0.342590 -0.363366
C87   C     C_3   0.807562 0.634302 0.319474 -0.872116
C88   C     C_3   0.433193 0.902834 0.321135 -0.409158
C89   C     C_3   0.395655 0.856380 0.342640 -0.363150
C90   C     C_R   0.527499 0.281494 0.972635 -0.298040
C91   C     C_3   0.360754 0.811114 0.319532 -0.872249
C92   C     C_3   0.098136 0.565364 0.678892 -0.409135
C93   C     C_3   0.145233 0.602099 0.657391 -0.363295
C94   C     C_3   0.191066 0.636243 0.680504 -0.872148
C95   C     C_3   0.567216 0.903113 0.678857 -0.409160
C96   C     C_3   0.604959 0.856827 0.657350 -0.363107
C97   C     C_3   0.640063 0.811712 0.680456 -0.872255
C98   C     C_3   0.901865 0.434638 0.678893 -0.409133
C99   C     C_3   0.854768 0.397903 0.657393 -0.363295
C100  C     C_3   0.808936 0.363758 0.680506 -0.872149
C101  C     C_R   0.718512 0.527393 0.972602 -0.298039
C102  C     C_3   0.432786 0.096887 0.678857 -0.409159
C103  C     C_3   0.395052 0.143181 0.657350 -0.363106
C104  C     C_3   0.359953 0.188300 0.680456 -0.872254
C105  C     C_R   1.000000 0.619942 0.500000 1.010058
C106  C     C_R   0.472502 0.718506 0.972635 -0.298039
C107  C     C_R   0.281487 0.527389 0.027399 -0.298041
C108  C     C_R   0.527498 0.718506 0.027365 -0.298045
C109  C     C_R   0.718513 0.472609 0.027399 -0.298041
C110  C     C_R   0.472501 0.281494 0.027365 -0.298045
C111  C     C_R   0.813111 1.000000 0.500000 -0.108718
C112  C     C_R   0.000000 0.813115 0.500000 -0.108662
C113  C     C_R   0.186889 0.000000 0.500000 -0.108717
C114  C     C_R   1.000000 0.186885 0.500000 -0.108662
C115  C     C_R   0.313112 0.499999 0.000000 -0.108708
C116  C     C_R   0.380060 0.000000 0.500000 1.009959
C117  C     C_R   0.500000 0.313116 0.000000 -0.108651
C118  C     C_R   0.686888 0.500000 0.000000 -0.108708
C119  C     C_R   0.500000 0.686884 0.000000 -0.108651
C120  C     C_R   0.685862 0.999999 0.500000 -0.112533
C121  C     C_R   1.000000 0.685867 0.500000 -0.112738
C122  C     C_R   0.314138 0.000001 0.500000 -0.112533
C123  C     C_R   0.000000 0.314133 0.500000 -0.112737
C124  C     C_R   0.185863 0.499999 0.000001 -0.112590
C125  C     C_R   0.499999 0.185868 1.000000 -0.112800
C126  C     C_R   0.814137 0.500001 0.000001 -0.112591
C127  C     C_R   0.000000 0.380058 0.500000 1.010060
C128  C     C_R   0.500001 0.814132 1.000000 -0.112798
C129  C     C_R   1.000000 0.120582 0.500000 0.924091
C130  C     C_R   0.879417 0.000000 0.500000 0.924089
C131  C     C_R   1.000000 0.879418 0.500000 0.924091
C132  C     C_R   0.120583 1.000000 0.500000 0.924089
C133  C     C_R   0.500000 0.620582 0.000000 0.924079
C134  C     C_R   0.379417 0.500000 0.000000 0.924077
C135  C     C_R   0.500000 0.379418 0.000000 0.924079
C136  C     C_R   0.620583 0.500000 0.000000 0.924076
C137  C     C_R   0.500000 1.000000 0.567271 0.913212
C138  C     C_R   0.119940 0.500000 0.000000 1.009999
C139  C     C_R   0.000000 0.500000 0.567278 0.913308
C140  C     C_R   0.500000 0.000000 0.432727 0.913270
C141  C     C_R   0.000000 0.500000 0.432719 0.913438
C142  C     C_R   1.000000 0.500000 0.067273 0.913224
C143  C     C_R   0.500000 1.000000 0.067281 0.913397
C144  C     C_R   1.000000 0.500000 0.932724 0.913343
C145  C     C_R   0.500000 1.000000 0.932717 0.913453
C146  C     C_R   0.548025 0.970990 0.877341 -0.190383
C147  C     C_R   0.029911 0.547467 0.877369 -0.190283
C148  C     C_R   0.451974 0.029006 0.877341 -0.190384
C149  C     C_R   0.500000 0.119943 0.000000 1.010099
C150  C     C_R   0.970091 0.452530 0.877370 -0.190281
C151  C     C_R   0.547907 0.029202 0.122653 -0.190373
C152  C     C_R   0.030306 0.452784 0.122618 -0.190255
C153  C     C_R   0.452093 0.970796 0.122652 -0.190371
C154  C     C_R   0.969692 0.547216 0.122617 -0.190256
C155  C     C_R   0.047908 0.470798 0.377347 -0.190361
C156  C     C_R   0.530289 0.047227 0.377382 -0.190245
C157  C     C_R   0.952092 0.529203 0.377347 -0.190361
C158  C     C_R   0.469705 0.952776 0.377382 -0.190249
C159  C     C_R   0.047641 0.529637 0.622639 -0.190332
C160  C     C_R   0.880059 0.500000 0.000000 1.009996
C161  C     C_R   0.530483 0.952897 0.622611 -0.190230
C162  C     C_R   0.952360 0.470365 0.622640 -0.190332
C163  C     C_R   0.469518 0.047103 0.622612 -0.190229
C164  C     C_R   0.548467 0.969594 0.841274 0.104846
C165  C     C_R   0.031351 0.547860 0.841302 0.104913
C166  C     C_R   0.451531 0.030399 0.841274 0.104847
C167  C     C_R   0.968655 0.452134 0.841303 0.104912
C168  C     C_R   0.548338 0.030605 0.158720 0.104865
C169  C     C_R   0.031764 0.452411 0.158684 0.104944
C170  C     C_R   0.451661 0.969392 0.158719 0.104863
C171  C     C_R   0.500000 0.880057 0.000000 1.010100
C172  C     C_R   0.968234 0.547589 0.158684 0.104944
C173  C     C_R   0.048341 0.469394 0.341280 0.104860
C174  C     C_R   0.531744 0.047602 0.341315 0.104939
C175  C     C_R   0.951661 0.530607 0.341280 0.104860
C176  C     C_R   0.468246 0.952403 0.341316 0.104940
C177  C     C_R   0.048050 0.531062 0.658706 0.104898
C178  C     C_R   0.531949 0.952533 0.658678 0.104956
C179  C     C_R   0.951951 0.468940 0.658707 0.104899
C180  C     C_R   0.468053 0.047467 0.658678 0.104955
C181  C     C_R   0.499999 0.999996 0.823407 -0.001911
C182  C     C_R   0.781486 0.972635 0.472593 -0.298036
C183  C     C_R   0.000002 0.499997 0.823433 -0.002019
C184  C     C_R   0.499999 0.999999 0.176588 -0.001935
C185  C     C_R   0.999999 0.500000 0.176554 -0.002060
C186  C     C_R   0.000001 0.500001 0.323412 -0.001935
C187  C     C_R   0.499995 0.000002 0.323446 -0.002056
C188  C     C_R   0.000001 0.500001 0.676575 -0.001991
C189  C     C_R   0.500000 0.999999 0.676548 -0.002083
C190  C     C_R   0.500000 0.999999 0.895167 -0.081022
C191  C     C_R   0.000000 0.499999 0.895186 -0.080587
C192  C     C_R   0.500000 0.999999 0.104829 -0.080933
H1    H     H_    0.584164 0.948721 0.892054 0.149941
H2    H     H_    0.553509 0.082744 0.392109 0.149362
H3    H     H_    0.834222 0.721958 0.164306 0.252443
H4    H     H_    0.927223 0.670586 0.140484 0.225838
H5    H     H_    0.861409 0.618456 0.141181 0.229616
H6    H     H_    0.900650 0.573427 0.196721 0.212382
H7    H     H_    0.967005 0.623564 0.194619 0.205727
H8    H     H_    0.168070 0.332032 0.302639 0.260609
H9    H     H_    0.218017 0.399385 0.303203 0.260462
H10   H     H_    0.226284 0.340158 0.335631 0.252433
H11   H     H_    0.172367 0.431705 0.359455 0.225938
H12   H     H_    0.122084 0.364469 0.358779 0.229401
H13   H     H_    0.916046 0.551617 0.392062 0.149856
H14   H     H_    0.075865 0.402411 0.303279 0.212289
H15   H     H_    0.124235 0.470072 0.305291 0.205880
H16   H     H_    0.672193 0.163650 0.302684 0.260593
H17   H     H_    0.606223 0.215413 0.303272 0.260489
H18   H     H_    0.665672 0.222032 0.335693 0.252445
H19   H     H_    0.572698 0.170614 0.359515 0.225846
H20   H     H_    0.638539 0.118516 0.358817 0.229618
H21   H     H_    0.599320 0.073465 0.303279 0.212381
H22   H     H_    0.532943 0.123574 0.305379 0.205732
H23   H     H_    0.831938 0.667975 0.302638 0.260608
H24   H     H_    0.446486 0.917258 0.392110 0.149362
H25   H     H_    0.781988 0.600624 0.303203 0.260462
H26   H     H_    0.773723 0.659851 0.335630 0.252432
H27   H     H_    0.827635 0.568303 0.359455 0.225937
H28   H     H_    0.877923 0.635536 0.358779 0.229402
H29   H     H_    0.924138 0.597590 0.303277 0.212290
H30   H     H_    0.875766 0.529931 0.305292 0.205878
H31   H     H_    0.327773 0.836391 0.302683 0.260592
H32   H     H_    0.393724 0.784605 0.303275 0.260490
H33   H     H_    0.334270 0.778010 0.335694 0.252446
H34   H     H_    0.427261 0.829397 0.359517 0.225840
H35   H     H_    0.083479 0.552372 0.607919 0.149654
H36   H     H_    0.361438 0.881517 0.358817 0.229622
H37   H     H_    0.400675 0.926546 0.303276 0.212386
H38   H     H_    0.467041 0.876424 0.305383 0.205724
H39   H     H_    0.166335 0.669656 0.697340 0.260601
H40   H     H_    0.217001 0.602839 0.696774 0.260472
H41   H     H_    0.224628 0.662150 0.664346 0.252443
H42   H     H_    0.171691 0.570032 0.640525 0.225910
H43   H     H_    0.120690 0.636727 0.641203 0.229480
H44   H     H_    0.074914 0.598292 0.696718 0.212317
H45   H     H_    0.123973 0.531130 0.694679 0.205832
H46   H     H_    0.553844 0.917475 0.607881 0.149272
H47   H     H_    0.672935 0.837133 0.697304 0.260587
H48   H     H_    0.607213 0.785059 0.696715 0.260491
H49   H     H_    0.666689 0.778726 0.664292 0.252453
H50   H     H_    0.573473 0.829706 0.640473 0.225829
H51   H     H_    0.639063 0.882115 0.641172 0.229649
H52   H     H_    0.599631 0.926964 0.696718 0.212390
H53   H     H_    0.533485 0.876553 0.694607 0.205707
H54   H     H_    0.833668 0.330346 0.697342 0.260601
H55   H     H_    0.783002 0.397161 0.696776 0.260473
H56   H     H_    0.775374 0.337850 0.664348 0.252443
H57   H     H_    0.916521 0.447629 0.607920 0.149654
H58   H     H_    0.828310 0.429968 0.640527 0.225910
H59   H     H_    0.879312 0.363275 0.641204 0.229479
H60   H     H_    0.925088 0.401711 0.696719 0.212318
H61   H     H_    0.876029 0.468872 0.694680 0.205831
H62   H     H_    0.327077 0.162884 0.697303 0.260587
H63   H     H_    0.392807 0.214947 0.696716 0.260491
H64   H     H_    0.333333 0.221291 0.664292 0.252452
H65   H     H_    0.426544 0.170298 0.640474 0.225831
H66   H     H_    0.360945 0.117899 0.641171 0.229645
H67   H     H_    0.400367 0.073037 0.696716 0.212386
H68   H     H_    0.446156 0.082525 0.607881 0.149272
H69   H     H_    0.466517 0.123442 0.694610 0.205710
H70   H     H_    0.713227 0.928285 0.428702 0.334061
H71   H     H_    0.072003 0.713237 0.428791 0.334047
H72   H     H_    0.286773 0.071717 0.428703 0.334060
H73   H     H_    0.927999 0.286763 0.428791 0.334047
H74   H     H_    0.713225 0.071713 0.571299 0.334054
H75   H     H_    0.071995 0.286761 0.571211 0.334043
H76   H     H_    0.286774 0.928285 0.571298 0.334053
H77   H     H_    0.928004 0.713238 0.571211 0.334044
H78   H     H_    0.213230 0.428210 0.928726 0.334062
H79   H     H_    0.568866 0.072246 0.781675 0.137607
H80   H     H_    0.572082 0.213240 0.928816 0.334051
H81   H     H_    0.786770 0.571793 0.928727 0.334063
H82   H     H_    0.427920 0.786760 0.928815 0.334052
H83   H     H_    0.213228 0.571784 0.071276 0.334060
H84   H     H_    0.572077 0.786758 0.071186 0.334045
H85   H     H_    0.786772 0.428213 0.071276 0.334059
H86   H     H_    0.427921 0.213241 0.071185 0.334046
H87   H     H_    0.070730 0.429565 0.781698 0.137592
H88   H     H_    0.431133 0.927747 0.781673 0.137605
H89   H     H_    0.052849 0.583172 0.892092 0.149533
H90   H     H_    0.929275 0.570432 0.781699 0.137590
H91   H     H_    0.569214 0.928081 0.218322 0.137599
H92   H     H_    0.070002 0.571153 0.218289 0.137576
H93   H     H_    0.430782 0.071918 0.218319 0.137599
H94   H     H_    0.929997 0.428848 0.218290 0.137576
H95   H     H_    0.069200 0.571933 0.281679 0.137601
H96   H     H_    0.570016 0.928864 0.281711 0.137576
H97   H     H_    0.930801 0.428068 0.281679 0.137601
H98   H     H_    0.429976 0.071138 0.281709 0.137576
H99   H     H_    0.069937 0.428782 0.718308 0.137596
H100  H     H_    0.415836 0.051276 0.892053 0.149941
H101  H     H_    0.569675 0.071470 0.718285 0.137570
H102  H     H_    0.930066 0.571220 0.718310 0.137595
H103  H     H_    0.430325 0.928527 0.718284 0.137569
H104  H     H_    0.806786 0.951315 0.451612 0.159646
H105  H     H_    0.048870 0.806793 0.451671 0.159579
H106  H     H_    0.193214 0.048686 0.451612 0.159645
H107  H     H_    0.951131 0.193207 0.451671 0.159579
H108  H     H_    0.806785 0.048684 0.548388 0.159639
H109  H     H_    0.048868 0.193206 0.548330 0.159578
H110  H     H_    0.193215 0.951314 0.548388 0.159639
H111  H     H_    0.947152 0.416826 0.892093 0.149532
H112  H     H_    0.951132 0.806794 0.548330 0.159577
H113  H     H_    0.306788 0.451267 0.951627 0.159636
H114  H     H_    0.548923 0.306796 0.951688 0.159570
H115  H     H_    0.693212 0.548735 0.951628 0.159635
H116  H     H_    0.451079 0.693204 0.951687 0.159570
H117  H     H_    0.306787 0.548731 0.048373 0.159633
H118  H     H_    0.548920 0.693203 0.048313 0.159566
H119  H     H_    0.693213 0.451267 0.048373 0.159633
H120  H     H_    0.451078 0.306797 0.048313 0.159566
H121  H     H_    0.668833 0.832780 0.802633 0.260615
H122  H     H_    0.583952 0.051617 0.107938 0.149851
H123  H     H_    0.718460 0.900369 0.803194 0.260456
H124  H     H_    0.727011 0.841186 0.835623 0.252421
H125  H     H_    0.672662 0.932477 0.859446 0.225944
H126  H     H_    0.622698 0.865003 0.858774 0.229362
H127  H     H_    0.576283 0.902720 0.803278 0.212275
H128  H     H_    0.624346 0.970601 0.805278 0.205899
H129  H     H_    0.170737 0.665191 0.802666 0.260602
H130  H     H_    0.104285 0.716333 0.803247 0.260477
H131  H     H_    0.163665 0.723518 0.835670 0.252432
H132  H     H_    0.071173 0.671236 0.859493 0.225868
H133  H     H_    0.053537 0.417273 0.107890 0.149349
H134  H     H_    0.137503 0.619761 0.858803 0.229542
H135  H     H_    0.098722 0.574304 0.803277 0.212349
H136  H     H_    0.031892 0.623810 0.805348 0.205783
H137  H     H_    0.331157 0.167205 0.802630 0.260615
H138  H     H_    0.281535 0.099612 0.803194 0.260455
H139  H     H_    0.272981 0.158798 0.835621 0.252421
H140  H     H_    0.327336 0.067512 0.859446 0.225945
H141  H     H_    0.377296 0.134989 0.858772 0.229360
H142  H     H_    0.423713 0.097272 0.803277 0.212274
H143  H     H_    0.375653 0.029389 0.805277 0.205901
H144  H     H_    0.416047 0.948381 0.107937 0.149851
H145  H     H_    0.829297 0.334757 0.802670 0.260603
H146  H     H_    0.895772 0.283645 0.803245 0.260474
H147  H     H_    0.836402 0.276429 0.835671 0.252433
H148  H     H_    0.928872 0.328750 0.859492 0.225872
H149  H     H_    0.862522 0.380197 0.858806 0.229534
H150  H     H_    0.901275 0.425683 0.803283 0.212339
H151  H     H_    0.968119 0.376193 0.805343 0.205790
H152  H     H_    0.668060 0.167972 0.197361 0.260610
H153  H     H_    0.718012 0.100622 0.196796 0.260460
H154  H     H_    0.726274 0.159849 0.164368 0.252429
H155  H     H_    0.946461 0.582727 0.107889 0.149349
H156  H     H_    0.672363 0.068300 0.140545 0.225935
H157  H     H_    0.622074 0.135534 0.141221 0.229398
H158  H     H_    0.575859 0.097589 0.196722 0.212290
H159  H     H_    0.624233 0.029931 0.194708 0.205876
H160  H     H_    0.172263 0.336424 0.197316 0.260595
H161  H     H_    0.106319 0.284631 0.196728 0.260489
H162  H     H_    0.165770 0.278038 0.164307 0.252443
H163  H     H_    0.072771 0.329413 0.140485 0.225841
H164  H     H_    0.138587 0.381540 0.141182 0.229617
H165  H     H_    0.099349 0.426574 0.196721 0.212382
H166  H     H_    0.083955 0.448384 0.392062 0.149857
H167  H     H_    0.032993 0.376438 0.194620 0.205729
H168  H     H_    0.331940 0.832023 0.197359 0.260610
H169  H     H_    0.281988 0.899373 0.196794 0.260461
H170  H     H_    0.273727 0.840146 0.164367 0.252429
H171  H     H_    0.327637 0.931696 0.140544 0.225934
H172  H     H_    0.377926 0.864463 0.141219 0.229398
H173  H     H_    0.424140 0.902408 0.196721 0.212290
H174  H     H_    0.375765 0.970066 0.194707 0.205876
H175  H     H_    0.827732 0.663573 0.197316 0.260594
H176  H     H_    0.893675 0.715369 0.196727 0.260488
O1    O     O_R   0.591570 0.051800 0.500070 -0.608628
O2    O     O_R   0.448200 0.091570 0.000070 -0.608449
O3    O     O_R   0.908430 0.448200 0.000070 -0.608581
O4    O     O_R   0.551800 0.908430 0.000070 -0.608450
O5    O     O_R   0.091570 0.448200 0.999930 -0.608621
O6    O     O_R   0.448200 0.908430 0.999930 -0.608469
O7    O     O_R   0.908430 0.551800 0.999930 -0.608620
O8    O     O_R   0.551800 0.091570 0.999930 -0.608468
O9    O     O_R   0.499930 0.051800 0.550990 -0.623147
O10   O     O_R   0.948200 0.499930 0.550990 -0.623344
O11   O     O_R   0.500070 0.948200 0.550990 -0.623147
O12   O     O_R   0.948200 0.591570 0.500070 -0.608476
O13   O     O_R   0.051800 0.500070 0.550990 -0.623345
O14   O     O_R   0.499930 0.948200 0.449010 -0.623193
O15   O     O_R   0.948200 0.500070 0.449010 -0.623454
O16   O     O_R   0.500070 0.051800 0.449010 -0.623194
O17   O     O_R   0.051800 0.499930 0.449010 -0.623454
O18   O     O_R   0.999930 0.551800 0.050990 -0.623188
O19   O     O_R   0.448200 0.999930 0.050990 -0.623452
O20   O     O_R   0.000070 0.448200 0.050990 -0.623187
O21   O     O_R   0.551800 0.000070 0.050990 -0.623453
O22   O     O_R   0.999930 0.448200 0.949010 -0.623288
O23   O     O_R   0.408430 0.948200 0.500070 -0.608627
O24   O     O_R   0.448200 0.000070 0.949010 -0.623500
O25   O     O_R   0.000070 0.551800 0.949010 -0.623287
O26   O     O_R   0.551800 0.999930 0.949010 -0.623501
O27   O     O_R   0.999990 0.091790 0.471350 -0.628749
O28   O     O_R   0.908210 0.999990 0.471350 -0.628784
O29   O     O_R   0.000010 0.908210 0.471350 -0.628749
O30   O     O_R   0.091790 0.000010 0.471350 -0.628784
O31   O     O_R   0.999990 0.908210 0.528650 -0.628759
O32   O     O_R   0.908210 0.000010 0.528650 -0.628790
O33   O     O_R   0.000010 0.091790 0.528650 -0.628759
O34   O     O_R   0.051800 0.408430 0.500070 -0.608476
O35   O     O_R   0.091790 0.999990 0.528650 -0.628790
O36   O     O_R   0.499990 0.591790 0.971350 -0.628743
O37   O     O_R   0.408210 0.499990 0.971350 -0.628776
O38   O     O_R   0.500010 0.408210 0.971350 -0.628743
O39   O     O_R   0.591790 0.500010 0.971350 -0.628776
O40   O     O_R   0.499990 0.408210 0.028650 -0.628749
O41   O     O_R   0.408210 0.500010 0.028650 -0.628785
O42   O     O_R   0.500010 0.591790 0.028650 -0.628749
O43   O     O_R   0.591790 0.499990 0.028650 -0.628785
O44   O     O_3   0.683951 0.945514 0.445878 -0.771246
O45   O     O_R   0.591570 0.948200 0.499930 -0.608645
O46   O     O_3   0.054700 0.683960 0.445944 -0.771047
O47   O     O_3   0.316049 0.054487 0.445878 -0.771245
O48   O     O_3   0.945301 0.316040 0.445943 -0.771048
O49   O     O_3   0.683949 0.054482 0.554123 -0.771271
O50   O     O_3   0.054696 0.316038 0.554058 -0.771093
O51   O     O_3   0.316050 0.945516 0.554123 -0.771270
O52   O     O_3   0.945303 0.683961 0.554058 -0.771093
O53   O     O_3   0.183953 0.445458 0.945895 -0.771181
O54   O     O_3   0.554760 0.183962 0.945962 -0.771000
O55   O     O_3   0.816047 0.554544 0.945896 -0.771180
O56   O     O_R   0.948200 0.408430 0.499930 -0.608520
O57   O     O_3   0.445242 0.816038 0.945961 -0.771002
O58   O     O_3   0.183952 0.554536 0.054107 -0.771227
O59   O     O_3   0.554758 0.816036 0.054039 -0.771024
O60   O     O_3   0.816048 0.445461 0.054106 -0.771226
O61   O     O_3   0.445241 0.183964 0.054038 -0.771024
O62   O     O_R   0.408430 0.051800 0.499930 -0.608644
O63   O     O_R   0.051800 0.591570 0.499930 -0.608520
O64   O     O_R   0.091570 0.551800 0.000070 -0.608581
Zn1   Zn    Zn3+2 0.500000 0.069140 0.500000 1.001994
Zn2   Zn    Zn3+2 0.000000 1.000000 0.538300 0.945428
Zn3   Zn    Zn3+2 0.500000 0.500000 0.961700 0.945480
Zn4   Zn    Zn3+2 0.500000 0.500000 0.038300 0.945457
Zn5   Zn    Zn3+2 0.930860 0.500000 0.500000 1.001841
Zn6   Zn    Zn3+2 0.500000 0.930860 0.500000 1.001994
Zn7   Zn    Zn3+2 0.069140 0.500000 0.500000 1.001841
Zn8   Zn    Zn3+2 0.000000 0.569140 0.000000 1.001929
Zn9   Zn    Zn3+2 0.430860 0.000000 0.000000 1.001769
Zn10  Zn    Zn3+2 0.000000 0.430860 0.000000 1.001929
Zn11  Zn    Zn3+2 0.569140 0.000000 0.000000 1.001770
Zn12  Zn    Zn3+2 0.000000 1.000000 0.461700 0.945452

loop_
_geom_bond_atom_site_label_1
_geom_bond_atom_site_label_2
_ccdc_geom_bond_type
C88   H38   S    
C140  O16   A    
O24   Zn9   S    
C129  O27   A    
H83   O58   S    
C143  O19   A    
C47   C128  A    
H71   O46   S    
C40   C46   A    
C3    C142  S    
C66   H157  S    
C83   H19   S    
C159  C177  A    
O11   Zn6   S    
C31   C184  S    
H82   O57   S    
C18   H96   S    
C39   C120  A    
C141  O15   A    
C17   C29   A    
C29   C186  S    
C74   H168  S    
C72   H173  S    
C82   C174  S    
C151  H122  S    
C135  O38   A    
C85   H30   S    
C38   C123  A    
C37   O47   S    
C38   O48   S    
C59   C60   S    
C74   H169  S    
O6    Zn9   S    
C109  C118  A    
C34   C120  A    
C15   C20   A    
C173  C186  A    
C64   H145  S    
C127  O34   A    
C165  C183  A    
C90   C117  A    
C65   H159  S    
C157  H13   S    
C99   H59   S    
C105  O63   A    
C28   C187  S    
C7    C137  S    
C178  C189  A    
C84   H17   S    
C179  C188  A    
C20   C28   A    
C7    C163  A    
C92   H44   S    
C111  C182  A    
C54   H121  S    
C137  O9    A    
C75   C76   S    
C79   H113  S    
C111  C130  S    
C2    C112  A    
C109  H119  S    
C150  H111  S    
C110  H120  S    
O29   Zn12  S    
C86   H28   S    
C61   H139  S    
H78   O53   S    
O2    Zn9   S    
C125  C149  S    
C106  H116  S    
C144  C191  S    
H74   O49   S    
C73   H171  S    
C57   H110  S    
C117  C135  S    
O8    Zn11  S    
C67   H153  S    
C118  C136  S    
C75   H6    S    
C51   O61   S    
C170  C184  A    
C58   H130  S    
C11   H90   S    
C72   C73   S    
C57   C113  A    
C81   H10   S    
C115  C134  S    
C93   H42   S    
C8    H79   S    
C144  O25   A    
C36   O46   S    
C20   H98   S    
C77   H3    S    
C100  H55   S    
O18   Zn8   S    
C175  C186  A    
C9    C21   A    
C17   H95   S    
C11   C23   A    
C70   H164  S    
C15   H93   S    
C112  C131  S    
C132  O30   A    
C69   C70   S    
C60   H141  S    
C139  O10   A    
C4    C155  A    
C88   C89   S    
C5    C158  A    
C71   H160  S    
O23   Zn6   S    
C91   H32   S    
C22   H101  S    
C105  O12   A    
O1    Zn1   S    
C64   H147  S    
C24   C114  A    
C145  O26   A    
C79   C115  A    
C145  C190  S    
O13   Zn7   S    
C102  C180  S    
C53   H126  S    
C155  H166  S    
C89   H34   S    
C81   H8    S    
C94   H40   S    
O25   Zn8   S    
C44   O54   S    
C85   C86   S    
C35   H108  S    
C45   O55   S    
C65   C168  S    
C177  C188  A    
O34   Zn7   S    
C48   O58   S    
C101  C118  A    
C137  O11   A    
C76   H5    S    
C41   O51   S    
C138  O64   A    
C78   C80   S    
C48   C107  A    
C171  O6    A    
C158  H24   S    
C136  O39   A    
C68   C112  A    
O31   Zn2   S    
C6    C139  S    
C92   C93   S    
C164  C181  A    
C147  C165  A    
C78   H15   S    
C123  C127  S    
C83   C84   S    
C147  C191  A    
C153  C170  A    
C8    C22   A    
C89   C91   S    
C23   H102  S    
C62   H151  S    
C45   C126  A    
C116  O62   A    
C86   H27   S    
C145  O24   A    
C1    O45   A    
C66   C67   S    
O17   Zn7   S    
O41   Zn4   S    
C25   H103  S    
C14   C17   A    
C139  O13   A    
C26   C189  S    
C49   C108  A    
C148  C190  A    
C97   H47   S    
C44   C125  A    
C105  C121  S    
C30   C185  S    
C18   C28   A    
H81   O55   S    
O20   Zn10  S    
O3    Zn10  S    
C54   H124  S    
C25   C26   A    
C146  C164  A    
C3    C154  A    
C37   C122  A    
C41   C122  A    
O40   Zn4   S    
C156  H2    S    
C174  C187  A    
C82   H21   S    
C71   H161  S    
C84   H16   S    
O39   Zn3   S    
C4    C157  A    
C108  H118  S    
C172  C185  A    
C130  O28   A    
C162  C179  A    
C69   C169  S    
C10   C25   A    
C151  C192  A    
O32   Zn2   S    
C11   C32   A    
C98   C99   S    
C12   C31   A    
C19   H97   S    
O15   Zn5   S    
C103  H66   S    
O14   Zn6   S    
C89   H36   S    
C52   C53   S    
O63   Zn7   S    
O64   Zn8   S    
C49   C128  A    
C182  H104  S    
C15   C31   A    
C101  H115  S    
C75   H7    S    
C171  O4    A    
C39   O49   S    
H85   O60   S    
C55   H136  S    
C88   C176  S    
O26   Zn11  S    
C98   C179  S    
C46   H109  S    
C95   H53   S    
H76   O51   S    
C98   H60   S    
O35   Zn2   S    
C1    O1    A    
C107  H117  S    
C56   C58   S    
C10   C33   A    
O7    Zn8   S    
C68   H112  S    
C102  C103  S    
C71   H162  S    
C72   H174  S    
C100  H54   S    
C92   C177  S    
C160  O7    A    
C63   C64   S    
C128  C171  S    
O56   Zn5   S    
C75   C172  S    
C49   O59   S    
C2    H105  S    
C85   H29   S    
C60   H140  S    
C98   H61   S    
C135  O40   A    
C42   C121  A    
O38   Zn3   S    
C77   H176  S    
C55   C56   S    
C113  C132  S    
C106  C119  A    
C74   H170  S    
C148  C166  A    
C73   C74   S    
O22   Zn10  S    
C32   C183  S    
C44   C90   A    
C156  C174  A    
C3    C152  A    
C104  H63   S    
C116  C122  S    
C5    C140  S    
C124  C138  S    
C65   H158  S    
C162  H57   S    
C56   H134  S    
C84   H18   S    
C148  H100  S    
O37   Zn3   S    
C131  O31   A    
C87   H26   S    
C40   C123  A    
C76   H4    S    
C9    C32   A    
C150  C191  A    
C52   H127  S    
C78   C173  S    
C70   C71   S    
C69   H165  S    
C61   H138  S    
C153  H144  S    
C83   H20   S    
C95   H52   S    
C88   H37   S    
C21   C27   A    
C108  C119  A    
C110  C117  A    
C149  O8    A    
O4    Zn11  S    
C58   H131  S    
C4    C141  S    
C138  O5    A    
C24   H107  S    
C86   C87   S    
C127  O56   A    
O9    Zn1   S    
C14   H92   S    
C53   C54   S    
H75   O50   S    
C60   C61   S    
O28   Zn12  S    
C35   C39   A    
C78   H14   S    
C96   H51   S    
C62   C63   S    
C143  O21   A    
C7    C161  A    
C95   C178  S    
C47   C106  A    
C102  H69   S    
C146  H1    S    
O62   Zn1   S    
C45   C101  A    
C52   C164  S    
O36   Zn3   S    
C33   C181  S    
C114  C129  S    
C42   O52   S    
O45   Zn6   S    
C55   C165  S    
C16   H94   S    
C19   C29   A    
H86   O61   S    
O43   Zn4   S    
C176  C187  A    
C141  O17   A    
C154  H155  S    
C53   H125  S    
C81   H9    S    
C94   H41   S    
C161  H46   S    
C126  C160  S    
C5    C156  A    
C130  O32   A    
C129  O33   A    
C131  O29   A    
C180  C189  A    
C144  O22   A    
C41   C57   A    
C142  O20   A    
C63   H149  S    
C152  C169  A    
C80   H12   S    
C16   C19   A    
C150  C167  A    
C59   H142  S    
C13   H106  S    
C36   C121  A    
C27   C188  S    
C69   H167  S    
C12   H91   S    
C97   H49   S    
C133  O42   A    
C80   H11   S    
C82   C83   S    
C22   C26   A    
C103  C104  S    
C87   H23   S    
C9    H87   S    
C73   H172  S    
C10   H88   S    
C161  C178  A    
H72   O47   S    
C16   C30   A    
C1    C120  S    
C67   H154  S    
H70   O44   S    
C149  O2    A    
C102  H67   S    
C40   O50   S    
C93   C94   S    
O42   Zn4   S    
C58   H129  S    
C95   C96   S    
C6    C159  A    
C93   H43   S    
C119  C133  S    
C100  H56   S    
O5    Zn10  S    
C160  O3    A    
C147  H89   S    
C43   C79   A    
C151  C168  A    
C104  H62   S    
C70   H163  S    
C47   O57   S    
C82   H22   S    
C132  O35   A    
O10   Zn5   S    
C167  C183  A    
C6    C162  A    
C168  C184  A    
O33   Zn2   S    
C24   C38   A    
C143  C192  S    
C50   C126  A    
C23   C27   A    
C13   C37   A    
C63   H148  S    
C8    C33   A    
C155  C173  A    
C87   H25   S    
C62   C167  S    
C91   H33   S    
C42   C68   A    
C103  H65   S    
C166  C181  A    
C14   C30   A    
C99   H58   S    
C94   H39   S    
C92   H45   S    
C140  O14   A    
C46   C114  A    
C51   C125  A    
C76   C77   S    
C142  O18   A    
H80   O54   S    
C50   O60   S    
H73   O48   S    
C163  H68   S    
C55   H135  S    
C72   C170  S    
C99   C100  S    
C96   C97   S    
C154  C172  A    
C116  O23   A    
C62   H150  S    
C107  C115  A    
C67   H152  S    
C59   C166  S    
C157  C175  A    
C21   H99   S    
O19   Zn9   S    
C158  C176  A    
C152  H133  S    
C50   C109  A    
C34   O44   S    
C159  H35   S    
C134  O41   A    
C12   C18   A    
O27   Zn12  S    
C35   C111  A    
H77   O52   S    
C2    C36   A    
C96   H50   S    
C77   H175  S    
C97   H48   S    
C64   H146  S    
C80   C81   S    
C48   C124  A    
C90   H114  S    
C51   C110  A    
O30   Zn12  S    
C104  H64   S    
C169  C185  A    
O12   Zn5   S    
C85   C175  S    
C34   C182  A    
C54   H123  S    
C43   O53   S    
C133  O36   A    
O21   Zn11  S    
H84   O59   S    
C65   C66   S    
C52   H128  S    
C59   H143  S    
C163  C180  A    
C136  O43   A    
C146  C190  A    
C66   H156  S    
O16   Zn1   S    
C61   H137  S    
C56   H132  S    
C134  O37   A    
C91   H31   S    
C43   C124  A    
C13   C113  A    
C153  C192  A    
