data_mof_unit_pretest_488.cif
_audit_creation_date              2012-12-10T17:57:23-0500
_audit_creation_method            fapswitch 2.2
_symmetry_space_group_name_H-M    P1
_symmetry_Int_Tables_number       1
_space_group_crystal_system       triclinic
_cell_length_a                    9.595028
_cell_length_b                    10.775315
_cell_length_c                    13.407568
_cell_angle_alpha                 91.700588
_cell_angle_beta                  72.022161
_cell_angle_gamma                 89.864666
_cell_volume                      1317.84363149

loop_
_atom_site_label
_atom_site_type_symbol
_atom_type_description
_atom_site_fract_x
_atom_site_fract_y
_atom_site_fract_z
_atom_type_partial_charge
C1    C     C_R   0.499930 0.737452 0.500085 0.762379
C2    C     C_R   0.429964 0.475572 0.981308 -0.047056
C3    C     C_R   0.467614 0.450001 0.871719 -0.145742
C4    C     C_R   0.539873 0.461692 0.031438 -0.076208
C5    C     C_R   0.672606 0.397582 0.977363 -0.057140
C6    C     C_R   0.697542 0.354751 0.873964 0.652111
C7    C     C_R   0.597251 0.381440 0.821786 -0.141606
C8    C     C_R   0.525191 0.513391 0.132013 0.660878
C9    C     C_R   0.752054 0.415110 0.131928 -0.299841
C10   C     C_R   0.371406 0.489200 0.816279 -0.200515
C11   C     C_R   0.606554 0.933782 0.420892 0.008836
C12   C     C_R   0.420803 0.495131 0.700413 0.866736
C13   C     C_R   0.606574 0.063001 0.423840 -0.214773
C14   C     C_R   0.499548 0.129302 0.501123 -0.177273
C15   C     C_R   0.392304 0.069107 0.578798 0.675924
C16   C     C_R   0.392994 0.939472 0.581170 -0.178842
C17   C     C_R   0.499738 0.871941 0.500659 -0.228260
C18   C     C_R   0.896791 0.576661 0.567196 0.641366
C19   C     C_R   0.045369 0.578070 0.565911 0.678627
C20   C     C_R   0.103244 0.419760 0.434907 -0.004122
C21   C     C_R   0.956364 0.424240 0.430382 -0.039053
C22   C     C_R   0.499969 0.262726 0.500184 0.814694
C23   C     C_R   0.578949 0.498914 0.299691 0.795756
C24   C     C_R   0.778365 0.376622 0.027790 -0.066932
C25   C     C_R   0.623745 0.480869 0.185279 -0.181967
C26   C     C_R   0.228859 0.530483 0.873468 0.561899
C27   C     C_R   0.183639 0.533516 0.982353 -0.275491
C28   C     C_R   0.281859 0.506524 0.036485 0.664094
Cu1   Cu    Cu3+1 0.359340 0.499980 0.500000 1.094946
Cu2   Cu    Cu3+1 0.640660 0.500020 0.500000 1.005845
H1    H     H_    0.830225 0.390721 0.171163 0.222887
H2    H     H_    0.686806 0.112775 0.363692 0.185831
H3    H     H_    0.879494 0.326911 0.988002 0.230155
H4    H     H_    0.071132 0.557946 0.025475 0.208830
H5    H     H_    0.620194 0.342343 0.743208 0.187276
N1    N     N_R   0.147940 0.499970 0.499970 -0.297050
N2    N     N_R   0.852060 0.500060 0.499990 -0.302705
O1    O     O_R   0.381250 0.680340 0.500010 -0.536312
O2    O     O_R   0.618820 0.680370 0.500010 -0.538965
O3    O     O_R   0.323240 0.499950 0.650980 -0.477477
O4    O     O_R   0.560810 0.499980 0.650980 -0.553001
O5    O     O_R   0.381180 0.319630 0.499990 -0.548308
O6    O     O_R   0.618750 0.319660 0.499990 -0.628533
O7    O     O_R   0.439190 0.500020 0.349020 -0.565978
O8    O     O_R   0.676760 0.500050 0.349020 -0.619899
F1    F     F_    0.292540 0.137808 0.654703 -0.595325
C29   C     C_2   0.287528 0.875648 0.670042 0.596149
H6    H     H_    0.306361 0.780022 0.685924 0.085582
O9    O     O_2   0.178271 0.928963 0.727154 -0.386281
F2    F     F_    0.798618 0.654323 0.635013 -0.587471
F3    F     F_    0.085290 0.657016 0.632431 -0.571709
C30   C     C_2   0.204210 0.321193 0.374542 0.622125
H7    H     H_    0.295277 0.342518 0.306583 0.094184
O10   O     O_2   0.180849 0.212876 0.397978 -0.515309
C31   C     C_2   0.920715 0.350152 0.346035 0.493758
H8    H     H_    0.814027 0.314048 0.355171 0.096980
O11   O     O_2   0.013332 0.329148 0.261354 -0.525705
F4    F     F_    0.820940 0.288996 0.822063 -0.611514
F5    F     F_    0.423963 0.603697 0.176003 -0.601086
F6    F     F_    0.131476 0.566442 0.824648 -0.572747
F7    F     F_    0.225798 0.497250 0.141944 -0.596518
C32   C     C_2   0.714731 0.865579 0.331929 0.479047
H9    H     H_    0.704808 0.766791 0.318556 0.073555
O12   O     O_2   0.816335 0.919577 0.271249 -0.493735

loop_
_geom_bond_atom_site_label_1
_geom_bond_atom_site_label_2
_ccdc_geom_bond_type
Cu1   O1    S    
C12   O3    A    
C2    C4    A    
C31   H8    S    
C9    C24   A    
C12   O4    A    
C23   O8    A    
C24   H3    S    
Cu1   O5    S    
C2    C28   A    
C6    F4    S    
C13   H2    S    
C1    C17   S    
C22   O6    A    
C4    C8    A    
C11   C32   S    
C28   F7    S    
C10   C26   A    
C32   H9    S    
C31   O11   D    
C2    C3    A    
C9    C25   A    
C29   O9    D    
C3    C10   A    
C22   O5    A    
C13   C14   A    
C30   H7    S    
C8    C25   A    
C11   C13   A    
Cu1   N1    S    
C14   C22   S    
C26   C27   A    
Cu1   Cu2   S    
C5    C24   A    
C10   C12   S    
C1    O1    A    
C16   C29   S    
C18   N2    A    
C30   O10   D    
Cu2   O2    S    
C6    C7    A    
C3    C7    A    
C19   N1    A    
C23   C25   S    
C27   H4    S    
C5    C6    A    
Cu2   O6    S    
Cu2   O4    S    
C26   F6    S    
C9    H1    S    
C15   C16   A    
C20   N1    A    
C19   F3    S    
C4    C5    A    
C21   N2    A    
C20   C21   A    
C18   F2    S    
C20   C30   S    
C18   C19   A    
C8    F5    S    
C27   C28   A    
C21   C31   S    
C1    O2    A    
C14   C15   A    
C11   C17   A    
C32   O12   D    
Cu2   O8    S    
C15   F1    S    
Cu1   O3    S    
Cu1   O7    S    
C7    H5    S    
C23   O7    A    
C29   H6    S    
Cu2   N2    S    
C16   C17   A    
