data_mof_unit_pretest_1714.cif
_audit_creation_date              2012-12-10T19:48:52-0500
_audit_creation_method            fapswitch 2.2
_symmetry_space_group_name_H-M    P1
_symmetry_Int_Tables_number       1
_space_group_crystal_system       triclinic
_cell_length_a                    28.190102
_cell_length_b                    18.25503
_cell_length_c                    21.587475
_cell_angle_alpha                 90.000204
_cell_angle_beta                  139.64026
_cell_angle_gamma                 89.999856
_cell_volume                      7194.11836989

loop_
_atom_site_label
_atom_site_type_symbol
_atom_type_description
_atom_site_fract_x
_atom_site_fract_y
_atom_site_fract_z
_atom_type_partial_charge
C1    C     C_R   0.858717 0.999999 0.858570 0.934682
C2    C     C_R   0.141283 0.999999 0.141430 0.934798
C3    C     C_R   0.358717 0.500001 0.858570 0.934693
C4    C     C_R   0.641283 0.500001 0.141430 0.934713
C5    C     C_1   0.717359 0.999993 0.716930 -0.164595
C6    C     C_1   0.282641 0.999992 0.283070 -0.164577
C7    C     C_1   0.217359 0.500007 0.716930 -0.164641
C8    C     C_1   0.782641 0.500007 0.283070 -0.164591
C9    C     C_R   1.000000 0.858737 0.500000 0.924527
C10   C     C_R   1.000000 0.141260 0.499998 0.986714
C11   C     C_R   0.500000 0.358740 0.499999 0.986830
C12   C     C_R   0.500000 0.641263 0.500000 0.924582
C13   C     C_R   0.999667 0.998093 0.621116 0.860840
C14   C     C_R   0.000334 0.998134 0.378882 0.860587
C15   C     C_R   0.499667 0.501902 0.621116 0.860804
C16   C     C_R   0.500333 0.501894 0.378883 0.860748
C17   C     C_R   0.500000 0.140809 0.500000 0.913500
C18   C     C_R   0.500000 0.859193 0.500000 0.918335
C19   C     C_R   1.000000 0.640807 0.500000 0.918345
C20   C     C_R   1.000000 0.359191 0.500000 0.913539
C21   C     C_R   0.640814 0.999997 0.640663 0.919218
C22   C     C_R   0.359186 0.999996 0.359337 0.919231
C23   C     C_R   0.140814 0.500003 0.640663 0.919216
C24   C     C_R   0.859186 0.500003 0.359337 0.919267
C25   C     C_1   1.000000 0.782200 0.500000 -0.173259
C26   C     C_1   1.000000 0.217797 0.499997 -0.097605
C27   C     C_1   0.500000 0.282203 0.500000 -0.097468
C28   C     C_1   0.500000 0.717800 0.500000 -0.173182
C29   C     C_1   0.500000 0.217364 0.500000 -0.135474
C30   C     C_1   0.500000 0.782640 0.500000 -0.167503
C31   C     C_1   1.000000 0.717360 0.500000 -0.167541
C32   C     C_1   1.000000 0.282636 0.499999 -0.135544
C33   C     C_R   0.001312 0.000126 0.879840 0.856281
C34   C     C_R   0.998645 0.000127 0.120114 0.856441
C35   C     C_R   0.501317 0.499873 0.879846 0.856297
C36   C     C_R   0.498674 0.499873 0.120145 0.856325
C37   C     C_3   0.920697 0.983519 0.707831 -0.276521
C38   C     C_3   0.975951 0.077438 0.191375 -0.206174
C39   C     C_3   0.079342 0.983888 0.292184 -0.276506
C40   C     C_3   0.023682 0.077528 0.808239 -0.206092
C41   C     C_3   0.523726 0.422482 0.808286 -0.206115
C42   C     C_3   0.579315 0.516365 0.292172 -0.276512
C43   C     C_3   0.476202 0.422500 0.191639 -0.206117
C44   C     C_3   0.420692 0.516436 0.707829 -0.276507
C45   C     C_3   0.922292 0.973922 0.637691 -0.190381
C46   C     C_3   0.985842 0.079079 0.272875 -0.247986
C47   C     C_3   0.077808 0.974295 0.362387 -0.190368
C48   C     C_3   0.013784 0.079112 0.726733 -0.247953
C49   C     C_3   0.513830 0.420892 0.726781 -0.247957
C50   C     C_3   0.577740 0.525956 0.362335 -0.190377
C51   C     C_3   0.486093 0.420899 0.273139 -0.247953
C52   C     C_3   0.422279 0.526032 0.637681 -0.190382
C53   C     C_3   0.053579 0.940978 0.838674 -0.398353
C54   C     C_3   0.946650 0.940758 0.161569 -0.398213
C55   C     C_3   0.553552 0.559048 0.838645 -0.398332
C56   C     C_3   0.446493 0.559091 0.161403 -0.398307
C57   C     C_3   0.000039 0.000311 0.810440 0.053722
C58   C     C_3   0.999924 0.000321 0.189517 0.053743
C59   C     C_3   0.500043 0.499688 0.810445 0.053722
C60   C     C_3   0.499949 0.499686 0.189546 0.053719
C61   C     C_3   0.999133 0.999246 0.688629 -0.021407
C62   C     C_3   0.000859 0.999283 0.311358 -0.021382
C63   C     C_3   0.499134 0.500749 0.688630 -0.021393
C64   C     C_3   0.500864 0.500742 0.311367 -0.021397
C65   C     C_3   0.059781 0.947238 0.774230 -0.431711
C66   C     C_3   0.940440 0.947001 0.226005 -0.431853
C67   C     C_3   0.559754 0.552791 0.774201 -0.431729
C68   C     C_3   0.440292 0.552840 0.225848 -0.431757
C69   C     C_1   0.782192 0.999994 0.781817 -0.176498
C70   C     C_1   0.217808 0.999994 0.218183 -0.176512
C71   C     C_1   0.282192 0.500006 0.781817 -0.176557
C72   C     C_1   0.717808 0.500006 0.218183 -0.176531
H1    H     H_    0.886267 0.032300 0.684219 0.130127
H2    H     H_    0.012687 0.120369 0.208476 0.150903
H3    H     H_    0.113555 0.032817 0.315569 0.130259
H4    H     H_    0.986760 0.120303 0.790953 0.150787
H5    H     H_    0.486826 0.379689 0.791020 0.150808
H6    H     H_    0.613677 0.467539 0.315710 0.130171
H7    H     H_    0.513068 0.379678 0.208871 0.150823
H8    H     H_    0.386288 0.467638 0.684244 0.130134
H9    H     H_    0.879428 0.011286 0.576116 0.173170
H10   H     H_    0.036278 0.111642 0.332771 0.159143
H11   H     H_    0.120506 0.011854 0.423789 0.173056
H12   H     H_    0.963203 0.111447 0.666688 0.159287
H13   H     H_    0.463267 0.388528 0.666753 0.159265
H14   H     H_    0.620549 0.488525 0.423849 0.173131
H15   H     H_    0.536625 0.388488 0.333136 0.159233
H16   H     H_    0.379436 0.488643 0.576127 0.173148
H17   H     H_    0.033379 0.885309 0.830804 0.193806
H18   H     H_    0.891380 0.946481 0.085356 0.174479
H19   H     H_    0.967090 0.885176 0.169682 0.193832
H20   H     H_    0.108818 0.946947 0.914867 0.174420
H21   H     H_    0.608795 0.553109 0.914841 0.174425
H22   H     H_    0.466766 0.614732 0.169344 0.193818
H23   H     H_    0.391243 0.553196 0.085205 0.174438
H24   H     H_    0.533323 0.614707 0.830748 0.193817
H25   H     H_    0.055836 0.891924 0.748984 0.160546
H26   H     H_    0.885151 0.968221 0.183033 0.193875
H27   H     H_    0.944639 0.891709 0.251510 0.160473
H28   H     H_    0.114978 0.968704 0.817122 0.193888
H29   H     H_    0.614963 0.531357 0.817103 0.193883
H30   H     H_    0.444323 0.608148 0.251179 0.160518
H31   H     H_    0.385064 0.531457 0.182932 0.193878
H32   H     H_    0.555776 0.608103 0.748924 0.160538
O1    O     O_R   0.892660 0.939370 0.892650 -0.612955
O2    O     O_R   0.107340 0.060630 0.107350 -0.615175
O3    O     O_R   0.107340 0.939370 0.107350 -0.612904
O4    O     O_R   0.892660 0.060630 0.892650 -0.615201
O5    O     O_R   0.392660 0.439370 0.892650 -0.615185
O6    O     O_R   0.607340 0.560630 0.107350 -0.612926
O7    O     O_R   0.607340 0.439370 0.107350 -0.615165
O8    O     O_R   0.392660 0.560630 0.892650 -0.612937
O9    O     O_R   0.999980 0.939370 0.907380 -0.620967
O10   O     O_R   0.000020 0.060630 0.092620 -0.633516
O11   O     O_R   0.000020 0.939370 0.092620 -0.621007
O12   O     O_R   0.999980 0.060630 0.907380 -0.633449
O13   O     O_R   0.499980 0.439370 0.907380 -0.633454
O14   O     O_R   0.500020 0.560630 0.092620 -0.620978
O15   O     O_R   0.500020 0.439370 0.092620 -0.633466
O16   O     O_R   0.499980 0.560630 0.907380 -0.620965
O17   O     O_R   0.939350 0.892680 0.439340 -0.605692
O18   O     O_R   0.060650 0.107320 0.560660 -0.615537
O19   O     O_R   0.060650 0.892680 0.560660 -0.605857
O20   O     O_R   0.939350 0.107320 0.439340 -0.615274
O21   O     O_R   0.439350 0.392680 0.439340 -0.615421
O22   O     O_R   0.560650 0.607320 0.560660 -0.605778
O23   O     O_R   0.560650 0.392680 0.560660 -0.615476
O24   O     O_R   0.439350 0.607320 0.439340 -0.605745
O25   O     O_R   0.939380 1.000000 0.531980 -0.604346
O26   O     O_R   0.060620 0.000000 0.468020 -0.604262
O27   O     O_R   0.439380 0.500000 0.531980 -0.604336
O28   O     O_R   0.560620 0.500000 0.468020 -0.604315
O29   O     O_R   0.060570 0.000000 0.653170 -0.639293
O30   O     O_R   0.939430 1.000000 0.346830 -0.639233
O31   O     O_R   0.560570 0.500000 0.653170 -0.639298
O32   O     O_R   0.439430 0.500000 0.346830 -0.639285
O33   O     O_R   0.499910 0.107290 0.447610 -0.607526
O34   O     O_R   0.500090 0.892710 0.552390 -0.617851
O35   O     O_R   0.500090 0.107290 0.552390 -0.607475
O36   O     O_R   0.499910 0.892710 0.447610 -0.617883
O37   O     O_R   0.999910 0.607290 0.447610 -0.617908
O38   O     O_R   0.000090 0.392710 0.552390 -0.607442
O39   O     O_R   0.000090 0.607290 0.552390 -0.617844
O40   O     O_R   0.999910 0.392710 0.447610 -0.607602
O41   O     O_R   0.607280 1.000000 0.555010 -0.616294
O42   O     O_R   0.392720 0.000000 0.444990 -0.616227
O43   O     O_R   0.107280 0.500000 0.555010 -0.616303
O44   O     O_R   0.892720 0.500000 0.444990 -0.616254
O45   O     O_R   0.607300 0.000000 0.659580 -0.615053
O46   O     O_R   0.392700 0.000000 0.340420 -0.615107
O47   O     O_R   0.107300 0.500000 0.659580 -0.615078
O48   O     O_R   0.892700 0.500000 0.340420 -0.615083
Zn1   Zn    Zn3+2 0.000000 0.919050 0.000000 0.992303
Zn2   Zn    Zn3+2 0.000000 0.080950 0.000000 0.981766
Zn3   Zn    Zn3+2 0.500000 0.419050 0.000000 0.981819
Zn4   Zn    Zn3+2 0.500000 0.580950 0.000000 0.992336
Zn5   Zn    Zn3+2 0.919050 0.000000 0.419040 1.015917
Zn6   Zn    Zn3+2 0.080950 0.000000 0.580960 1.015841
Zn7   Zn    Zn3+2 0.419050 0.500000 0.419040 1.015810
Zn8   Zn    Zn3+2 0.580950 0.500000 0.580960 1.015802
Zn9   Zn    Zn3+2 0.499950 0.000000 0.430140 1.000771
Zn10  Zn    Zn3+2 0.500050 0.000000 0.569860 1.000924
Zn11  Zn    Zn3+2 0.999950 0.500000 0.430140 1.000691
Zn12  Zn    Zn3+2 0.000050 0.500000 0.569860 1.000867
C73   C     C_1   0.884416 0.921736 0.704326 0.199131
N1    N     N_1   0.856029 0.873673 0.701507 -0.164106
C74   C     C_1   0.900726 0.096641 0.095762 0.186932
N2    N     N_1   0.842193 0.111518 0.021209 -0.191888
C75   C     C_1   0.115874 0.922261 0.295928 0.198823
N3    N     N_1   0.144455 0.874320 0.298929 -0.164136
C76   C     C_1   0.098828 0.097062 0.903760 0.187369
N4    N     N_1   0.157300 0.112196 0.978241 -0.191870
C77   C     C_1   0.598882 0.402988 0.903819 0.187334
N5    N     N_1   0.657361 0.387884 0.978309 -0.191814
C78   C     C_1   0.615671 0.578102 0.295751 0.199043
N6    N     N_1   0.644115 0.626130 0.298624 -0.164098
C79   C     C_1   0.401034 0.403068 0.096088 0.187235
N7    N     N_1   0.342544 0.388013 0.021583 -0.191889
C80   C     C_1   0.384381 0.578201 0.704295 0.199083
N8    N     N_1   0.355972 0.626251 0.701454 -0.164142
C81   C     C_2   0.903044 0.896874 0.596976 0.457669
H33   H     H_    0.935627 0.850329 0.644102 0.061640
O49   O     O_2   0.850073 0.886480 0.510880 -0.545755
C82   C     C_2   0.923933 0.118050 0.245023 0.459746
H34   H     H_    0.868974 0.095427 0.190081 0.083583
O50   O     O_2   0.935478 0.175026 0.284477 -0.578519
C83   C     C_2   0.097410 0.897333 0.403446 0.458245
H35   H     H_    0.065013 0.850646 0.356533 0.061539
O51   O     O_2   0.150465 0.887171 0.489581 -0.545771
C84   C     C_2   0.075518 0.118346 0.754397 0.459316
H36   H     H_    0.130572 0.095957 0.809420 0.083622
O52   O     O_2   0.063723 0.175276 0.714703 -0.578628
C85   C     C_2   0.575587 0.381690 0.754470 0.459372
H37   H     H_    0.630629 0.404107 0.809484 0.083612
O53   O     O_2   0.563823 0.324755 0.714805 -0.578621
C86   C     C_2   0.597109 0.602973 0.403170 0.457863
H38   H     H_    0.564586 0.649567 0.356119 0.061599
O54   O     O_2   0.650110 0.613287 0.489279 -0.545757
C87   C     C_2   0.424298 0.381754 0.245408 0.459452
H39   H     H_    0.369276 0.404222 0.190410 0.083605
O55   O     O_2   0.436008 0.324809 0.285020 -0.578613
C88   C     C_2   0.402985 0.603069 0.596921 0.457728
H40   H     H_    0.435545 0.649632 0.644019 0.061641
O56   O     O_2   0.350002 0.613433 0.510820 -0.545779

loop_
_geom_bond_atom_site_label_1
_geom_bond_atom_site_label_2
_ccdc_geom_bond_type
C25   C31   T    
C56   H23   S    
O1    Zn1   S    
C76   N4    T    
C22   O46   A    
C26   C32   T    
C73   N1    T    
C49   C63   S    
C37   C45   S    
C55   C59   S    
C27   C29   T    
C17   C29   S    
C75   N3    T    
C20   O40   A    
C11   O23   A    
C68   H31   S    
C55   H21   S    
C19   C31   S    
C47   C62   S    
O25   Zn5   S    
C9    C25   S    
C34   C58   S    
C77   N5    T    
C56   H22   S    
O42   Zn10  S    
O28   Zn8   S    
C88   O56   D    
C46   C62   S    
C64   C68   S    
C17   O33   A    
C11   O21   A    
C68   H30   S    
C54   H18   S    
C10   O20   A    
C42   C78   S    
C7    C71   T    
C41   H5    S    
C15   O27   A    
C15   O31   A    
C13   O25   A    
C44   C59   S    
C43   H7    S    
C14   C62   S    
C2    O3    A    
O16   Zn4   S    
C50   C64   S    
C82   H34   S    
C35   C59   S    
O29   Zn6   S    
C46   C82   S    
C18   O34   A    
C36   O15   A    
C41   C77   S    
C24   O48   A    
C9    O19   A    
C46   H10   S    
O32   Zn7   S    
C40   C57   S    
C43   C79   S    
C22   O42   A    
C84   O52   D    
C11   C27   S    
C85   O53   D    
O13   Zn3   S    
C9    O17   A    
O14   Zn4   S    
C18   C30   S    
C39   H3    S    
C53   C65   S    
O12   Zn2   S    
C85   H37   S    
C33   O9    A    
C10   C26   S    
C87   H39   S    
C19   O37   A    
O17   Zn5   S    
O11   Zn1   S    
C14   O26   A    
C35   O16   A    
C50   C86   S    
C17   O35   A    
C16   O28   A    
C44   C80   S    
C41   C49   S    
C67   H32   S    
C81   O49   D    
C38   C74   S    
C63   C67   S    
C8    C72   T    
C83   O51   D    
C88   H40   S    
C62   C66   S    
C45   C81   S    
O44   Zn12  S    
C49   H13   S    
C44   H8    S    
C41   C59   S    
C86   O54   D    
C24   O44   A    
C42   C60   S    
C74   N2    T    
C53   C57   S    
C86   H38   S    
C37   C73   S    
C14   O30   A    
O2    Zn2   S    
C34   O11   A    
C81   H33   S    
C39   C58   S    
C5    C69   T    
C2    O2    A    
C1    C69   S    
C40   H4    S    
C49   C85   S    
C21   O41   A    
C66   H27   S    
C50   H14   S    
C3    C71   S    
C84   H36   S    
C12   O22   A    
C20   O38   A    
O41   Zn9   S    
C48   H12   S    
C78   N6    T    
C52   H16   S    
C3    O8    A    
O20   Zn5   S    
C53   H20   S    
C54   C58   S    
O18   Zn6   S    
C5    C21   S    
C21   O45   A    
O34   Zn10  S    
C38   C58   S    
C18   O36   A    
O3    Zn1   S    
C51   C87   S    
C43   C60   S    
C42   C50   S    
C12   O24   A    
O38   Zn12  S    
C4    O7    A    
C12   C28   S    
C42   H6    S    
C47   H11   S    
O40   Zn11  S    
C53   H17   S    
O15   Zn3   S    
C35   O13   A    
O4    Zn2   S    
C51   H15   S    
C16   O32   A    
O39   Zn12  S    
C4    C72   S    
C47   C83   S    
C36   O14   A    
C67   H29   S    
C39   C47   S    
C20   C32   S    
C40   C48   S    
O46   Zn9   S    
C4    O6    A    
O27   Zn7   S    
C33   O12   A    
C33   C57   S    
O31   Zn8   S    
C6    C70   T    
C13   O29   A    
O35   Zn10  S    
C45   H9    S    
C51   C64   S    
C65   H28   S    
O9    Zn1   S    
C55   H24   S    
C10   O18   A    
C52   C63   S    
C44   C52   S    
C55   C67   S    
O21   Zn7   S    
O37   Zn11  S    
C54   C66   S    
O19   Zn6   S    
O22   Zn8   S    
C34   O10   A    
C37   H1    S    
C82   O50   D    
C15   C63   S    
O26   Zn6   S    
C66   H26   S    
C28   C30   T    
O36   Zn9   S    
C65   H25   S    
C83   H35   S    
C39   C75   S    
C56   C68   S    
O33   Zn9   S    
C43   C51   S    
C48   C61   S    
C23   O43   A    
C3    O5    A    
C7    C23   S    
C45   C61   S    
C8    C24   S    
C38   H2    S    
C52   C88   S    
C61   C65   S    
O5    Zn3   S    
C19   O39   A    
C38   C46   S    
O48   Zn11  S    
O6    Zn4   S    
C79   N7    T    
C1    O4    A    
C23   O47   A    
C80   N8    T    
C56   C60   S    
C54   H19   S    
O30   Zn5   S    
C13   C61   S    
O47   Zn12  S    
O8    Zn4   S    
C48   C84   S    
C87   O55   D    
C36   C60   S    
O43   Zn11  S    
O45   Zn10  S    
C16   C64   S    
C2    C70   S    
O7    Zn3   S    
O23   Zn8   S    
O10   Zn2   S    
C40   C76   S    
C37   C57   S    
O24   Zn7   S    
C1    O1    A    
C6    C22   S    
