data_mof_unit_pretest_407.cif
_audit_creation_date              2013-03-05T15:54:52-0500
_audit_creation_method            fapswitch 2.2
_symmetry_space_group_name_H-M    P1
_symmetry_Int_Tables_number       1
_space_group_crystal_system       triclinic
_cell_length_a                    12.336223
_cell_length_b                    13.365715
_cell_length_c                    14.263266
_cell_angle_alpha                 92.784035
_cell_angle_beta                  107.952809
_cell_angle_gamma                 117.000275
_cell_volume                      1943.4831673

loop_
_atom_site_label
_atom_site_type_symbol
_atom_site_description
_atom_site_fract_x
_atom_site_fract_y
_atom_site_fract_z
_atom_type_partial_charge
O1    O     O_R   0.545970 0.684450 0.528810 -0.585592
O2    O     O_R   0.687130 0.639470 0.490120 -0.607998
C1    C     C_R   0.651310 0.713813 0.508908 0.777917
O3    O     O_R   0.519670 0.535100 0.660030 -0.566113
O4    O     O_R   0.660830 0.490120 0.621340 -0.596350
C2    C     C_R   0.616701 0.513756 0.686275 0.796880
Cu1   Cu    Cu3+1 0.416420 0.526630 0.522910 0.955632
Cu2   Cu    Cu3+1 0.583580 0.473370 0.477090 0.926625
O5    O     O_R   0.312870 0.360530 0.509880 -0.579051
O6    O     O_R   0.454030 0.315550 0.471190 -0.585580
O7    O     O_R   0.339170 0.509880 0.378660 -0.590262
O8    O     O_R   0.480330 0.464900 0.339970 -0.594815
C3    C     C_R   0.345022 0.286062 0.484740 0.798270
C4    C     C_R   0.380296 0.481670 0.313047 0.788876
C5    C     C_R   0.669896 0.501813 0.789505 -0.062786
C6    C     C_R   0.311909 0.467631 0.204798 -0.044402
C7    C     C_R   0.638664 0.442293 0.940986 -0.188542
C8    C     C_R   0.596218 0.474744 0.851324 -0.172880
C9    C     C_R   0.788044 0.500316 0.819755 -0.241833
C10   C     C_R   0.829265 0.462045 0.906676 0.115460
C11   C     C_R   0.753790 0.434671 0.968573 0.170249
C12   C     C_R   0.944432 0.452126 0.934486 0.001214
C13   C     C_R   0.993719 0.433551 0.031679 0.069310
C14   C     C_R   0.912975 0.400749 0.089195 -0.214235
C15   C     C_R   0.793548 0.399037 0.056734 -0.229943
C16   C     C_R   0.010227 0.458031 0.867753 -0.295838
C17   C     C_R   0.128585 0.457136 0.898353 0.323959
C18   C     C_R   0.186585 0.453729 0.999260 0.031254
C19   C     C_R   0.120912 0.445878 0.067300 0.046337
C20   C     C_R   0.308237 0.456859 0.033872 -0.136582
C21   C     C_R   0.370074 0.463801 0.135500 -0.209867
C22   C     C_R   0.187359 0.456747 0.170356 -0.224295
H1    H     H_    0.733739 0.372751 0.102403 0.140044
H2    H     H_    0.145772 0.461386 0.225755 0.139933
H3    H     H_    0.465216 0.469101 0.160141 0.157092
H4    H     H_    0.580119 0.420821 0.987713 0.134375
H5    H     H_    0.503808 0.474494 0.828639 0.194043
H6    H     H_    0.846203 0.529388 0.773618 0.150173
H7    H     H_    0.938593 0.372994 0.158577 0.142678
H8    H     H_    0.970322 0.460999 0.789866 0.186951
H9    H     H_    0.357479 0.455047 0.983411 0.179571
C23   C     C_R   0.135568 0.975132 0.354659 -0.174693
H10   H     H_    0.316777 0.111137 0.356954 0.149916
H11   H     H_    0.132511 0.916562 0.297440 0.174483
C24   C     C_R   0.247383 0.164915 0.460729 -0.040831
C25   C     C_R   0.732765 0.918549 0.576696 -0.192742
C26   C     C_R   0.822707 0.034579 0.595931 -0.133194
C27   C     C_R   0.922587 0.070327 0.558457 -0.148490
C28   C     C_R   0.932157 0.989988 0.497501 0.068645
C29   C     C_R   0.831349 0.873260 0.468560 0.012675
C30   C     C_R   0.037479 0.022332 0.463086 0.013863
C31   C     C_R   0.033753 0.941676 0.391753 0.052025
C32   C     C_R   0.928157 0.828989 0.358030 0.402437
C33   C     C_R   0.826495 0.797025 0.393356 -0.283102
C34   C     C_R   0.148225 0.132324 0.499208 -0.220671
C35   C     C_R   0.241762 0.085979 0.389107 -0.209671
C36   C     C_R   0.737434 0.836478 0.515220 -0.071480
H12   H     H_    0.160502 0.195029 0.557710 0.158802
H13   H     H_    0.660799 0.892864 0.611928 0.150113
H14   H     H_    0.988492 0.161838 0.576384 0.159212
H15   H     H_    0.817139 0.097159 0.642548 0.157563
H16   H     H_    0.743368 0.711700 0.359322 0.195829
C37   C     C_R   0.253964 0.683702 0.661080 -0.224020
H17   H     H_    0.443159 0.706645 0.677470 0.118651
H18   H     H_    0.074412 0.719619 0.694290 0.159350
H19   H     H_    0.294003 0.755714 0.723381 0.137630
N1    N     N_R   0.290690 0.566960 0.557640 -0.183808
C38   C     C_R   0.654809 0.343865 0.363491 0.078467
C39   C     C_R   0.732484 0.308533 0.334906 -0.267022
C40   C     C_R   0.867598 0.365389 0.387799 -0.195110
C41   C     C_R   0.927361 0.459492 0.470178 0.001827
C42   C     C_R   0.843333 0.492209 0.497103 0.286714
C43   C     C_R   0.067027 0.523977 0.525276 -0.019680
C44   C     C_R   0.118657 0.618186 0.606451 0.182772
C45   C     C_R   0.035334 0.647460 0.632322 -0.300682
C46   C     C_R   0.901270 0.586552 0.578622 -0.220758
C47   C     C_R   0.159064 0.500788 0.502982 0.039407
C48   C     C_R   0.338701 0.656502 0.635323 0.130615
N2    N     N_R   0.709100 0.433710 0.442970 -0.201842
H20   H     H_    0.128482 0.430876 0.442541 0.113926
H21   H     H_    0.550063 0.298907 0.322047 0.122384
H22   H     H_    0.922891 0.334646 0.362113 0.133576
H23   H     H_    0.687768 0.236818 0.271359 0.146391
H24   H     H_    0.847037 0.618026 0.603138 0.211400
O9    O     O_3   0.923243 0.747934 0.290469 -0.578670
C49   C     C_3   0.995117 0.698672 0.346123 0.050959
H25   H     H_    0.956874 0.661807 0.404553 0.158290
H26   H     H_    0.100995 0.763236 0.383845 0.140746
C50   C     C_3   0.982609 0.602722 0.275073 -0.760851
H27   H     H_    0.010783 0.634917 0.211186 0.263137
H28   H     H_    0.047579 0.569833 0.315952 0.190755
H29   H     H_    0.879700 0.531589 0.245829 0.251252
N3    N     N_R   0.191069 0.465670 0.826754 0.107003
O10   O     O_R   0.309349 0.549605 0.846922 -0.402216
O11   O     O_R   0.121948 0.403778 0.734887 -0.391160

loop_
_geom_bond_atom_site_label_1
_geom_bond_atom_site_label_2
_geom_bond_distance
_ccdc_geom_bond_type
C5    C8    1.400332 A    
N3    O10   1.301511 A    
C25   H13   1.083336 S    
C43   C44   1.416787 A    
C9    C10   1.402286 A    
N1    C47   1.369408 A    
C42   C46   1.407039 A    
C46   H24   1.064103 S    
Cu1   Cu2   2.702722 S    
C32   C33   1.390408 A    
C6    C21   1.400038 A    
C5    C9    1.396616 A    
C16   C17   1.395001 A    
C29   C33   1.411101 A    
C38   H21   1.081582 S    
C13   C19   1.418795 A    
C18   C19   1.423573 A    
C8    H5    1.083196 S    
C42   N2    1.388219 A    
C20   C21   1.390222 A    
O7    C4    1.306707 A    
C49   H26   1.112837 S    
C14   H7    1.079881 S    
O5    C3    1.299228 A    
C23   C35   1.386644 A    
C2    C5    1.465043 S    
C24   C35   1.395242 A    
C38   C39   1.392993 A    
C28   C30   1.421175 A    
Cu2   N2    2.024913 S    
C13   C14   1.414041 A    
C20   H9    1.081110 S    
C40   C41   1.409450 A    
C7    H4    1.084101 S    
C50   H28   1.110093 S    
C30   C34   1.400722 A    
C38   N2    1.358360 A    
C37   H19   1.083824 S    
N3    O11   1.301456 A    
N1    C48   1.354181 A    
C23   H11   1.082812 S    
O3    Cu1   1.942193 S    
C27   H14   1.077464 S    
C44   C45   1.389539 A    
C30   C31   1.420934 A    
C14   C15   1.390418 A    
O3    C2    1.303270 A    
C41   C43   1.442274 A    
C49   H25   1.109548 S    
C33   H16   1.079489 S    
O9    C49   1.413060 S    
C49   C50   1.514309 S    
C7    C11   1.404631 A    
O1    C1    1.303241 A    
C22   H2    1.079554 S    
Cu1   O7    1.935022 S    
C45   C46   1.385870 A    
C39   H23   1.082532 S    
C9    H6    1.077757 S    
C26   C27   1.388672 A    
Cu2   O8    1.942193 S    
C7    C8    1.394669 A    
C50   H29   1.108453 S    
C1    C36   1.473071 S    
C27   C28   1.417939 A    
C10   C12   1.422004 A    
C25   C36   1.403752 A    
C21   H3    1.083453 S    
C17   N3    1.437653 S    
C31   C32   1.399508 A    
C47   H20   1.076951 S    
Cu1   O5    1.957934 S    
C11   C15   1.392370 A    
C25   C26   1.385658 A    
O1    Cu1   1.962032 S    
C29   C36   1.420139 A    
H17   C48   1.081769 S    
O2    Cu2   1.957935 S    
O8    C4    1.299205 A    
O6    C3    1.299009 A    
C26   H15   1.082915 S    
O4    Cu2   1.935022 S    
C37   C44   1.401729 A    
C6    C22   1.395718 A    
H18   C45   1.084496 S    
C18   C20   1.407813 A    
O2    C1    1.303935 A    
C19   C22   1.407850 A    
C3    C24   1.452898 S    
C16   H8    1.078389 S    
O4    C2    1.300972 A    
C4    C6    1.468326 S    
C39   C40   1.394227 A    
C40   H22   1.078079 S    
Cu1   N1    2.036786 S    
H10   C35   1.083418 S    
C41   C42   1.433134 A    
C10   C11   1.417404 A    
C24   C34   1.393039 A    
Cu2   O6    1.962031 S    
C28   C29   1.417857 A    
C12   C16   1.412943 A    
C34   H12   1.077291 S    
C23   C31   1.407172 A    
C17   C18   1.409477 A    
C43   C47   1.420848 A    
C12   C13   1.415636 A    
C32   O9    1.381630 S    
C50   H27   1.110794 S    
C15   H1    1.084105 S    
C37   C48   1.388779 A    
