data_mof_unit_pretest_1889.cif
_audit_creation_date              2012-12-10T18:34:27-0500
_audit_creation_method            fapswitch 2.2
_symmetry_space_group_name_H-M    P1
_symmetry_Int_Tables_number       1
_space_group_crystal_system       triclinic
_cell_length_a                    36.13038
_cell_length_b                    36.165217
_cell_length_c                    25.547364
_cell_angle_alpha                 89.961743
_cell_angle_beta                  135.000353
_cell_angle_gamma                 90.00161
_cell_volume                      23604.339067

loop_
_atom_site_label
_atom_site_type_symbol
_atom_type_description
_atom_site_fract_x
_atom_site_fract_y
_atom_site_fract_z
_atom_type_partial_charge
C1    C     C_R   0.849703 0.750034 0.699342 0.830437
C2    C     C_3   0.536559 0.250001 0.499992 0.347105
C3    C     C_3   0.254921 0.521383 0.560725 -0.505332
C4    C     C_3   0.795920 0.978635 0.513026 -0.376964
C5    C     C_3   0.795660 0.021502 0.512566 -0.374286
C6    C     C_3   0.295304 0.478636 0.511545 -0.376934
C7    C     C_3   0.295054 0.521502 0.511108 -0.374183
C8    C     C_1   0.749887 0.110630 0.499907 -0.158045
C9    C     C_1   0.749776 0.889402 0.499586 -0.149052
C10   C     C_1   0.249937 0.610632 0.499976 -0.158169
C11   C     C_1   0.249774 0.389404 0.499586 -0.148950
C12   C     C_3   0.748949 0.963534 0.498046 0.212966
C13   C     C_3   0.036555 0.250001 0.499981 0.344473
C14   C     C_3   0.748870 0.036533 0.498138 0.214287
C15   C     C_3   0.248955 0.463539 0.498085 0.212987
C16   C     C_3   0.248911 0.536538 0.498236 0.214389
C17   C     C_3   0.696809 0.021778 0.422006 0.358266
C18   C     C_3   0.697102 0.978348 0.421821 0.366061
C19   C     C_3   0.196383 0.521800 0.422653 0.358040
C20   C     C_3   0.196654 0.478368 0.422418 0.365897
C21   C     C_1   0.749552 0.077296 0.499410 -0.068627
C22   C     C_1   0.749481 0.922745 0.499027 -0.055611
C23   C     C_1   0.249617 0.577300 0.499520 -0.068782
C24   C     C_3   0.036558 0.750001 0.499990 0.347108
C25   C     C_1   0.249480 0.422748 0.499038 -0.055405
C26   C     C_3   0.804318 0.521470 0.582379 -0.245043
C27   C     C_3   0.802144 0.477962 0.583269 -0.245142
C28   C     C_3   0.304204 0.021470 0.582497 -0.245038
C29   C     C_3   0.302016 0.977962 0.583364 -0.245145
C30   C     C_3   0.702450 0.522019 0.490529 -0.248303
C31   C     C_3   0.699784 0.478497 0.484947 -0.241533
C32   C     C_3   0.202294 0.022020 0.490167 -0.248313
C33   C     C_3   0.199640 0.978497 0.484586 -0.241545
C34   C     C_1   0.749979 0.389148 0.501283 -0.085933
C35   C     C_3   0.497657 0.785282 0.538210 -0.387430
C36   C     C_1   0.750194 0.610847 0.501496 -0.087343
C37   C     C_1   0.249977 0.889148 0.501280 -0.085922
C38   C     C_1   0.250192 0.110847 0.501495 -0.087320
C39   C     C_R   0.750012 0.849728 0.499955 0.820229
C40   C     C_R   0.750053 0.150283 0.500045 0.820825
C41   C     C_R   0.250011 0.349728 0.499954 0.820258
C42   C     C_R   0.250066 0.650284 0.500061 0.820843
C43   C     C_3   0.750833 0.536810 0.507218 0.156624
C44   C     C_3   0.749843 0.463167 0.506313 0.157038
C45   C     C_3   0.250812 0.036810 0.507200 0.156613
C46   C     C_3   0.500080 0.216102 0.543058 -0.388562
C47   C     C_3   0.249822 0.963167 0.506290 0.157024
C48   C     C_3   0.747678 0.478583 0.447213 -0.446781
C49   C     C_3   0.745232 0.521438 0.444932 -0.442142
C50   C     C_3   0.247902 0.978583 0.447426 -0.446770
C51   C     C_3   0.245455 0.021438 0.445134 -0.442133
C52   C     C_1   0.749866 0.422408 0.503166 -0.033402
C53   C     C_1   0.750461 0.577584 0.503715 -0.042533
C54   C     C_1   0.249858 0.922408 0.503156 -0.033398
C55   C     C_1   0.250453 0.077584 0.503709 -0.042524
C56   C     C_R   0.849723 0.750030 0.499989 0.822594
C57   C     C_3   0.998075 0.285052 0.539046 -0.387405
C58   C     C_R   0.849714 0.249970 0.499990 0.822310
C59   C     C_R   0.349724 0.250030 0.499989 0.822590
C60   C     C_R   0.349714 0.749970 0.499990 0.822300
C61   C     C_R   0.650363 0.750046 0.500000 0.831369
C62   C     C_R   0.650355 0.249954 0.500002 0.829249
C63   C     C_R   0.150363 0.250046 0.500000 0.831386
C64   C     C_R   0.150355 0.749954 0.500002 0.829245
C65   C     C_3   0.540617 0.785295 0.538216 -0.391522
C66   C     C_3   0.543039 0.216089 0.543063 -0.390480
C67   C     C_3   0.041035 0.285065 0.539050 -0.391496
C68   C     C_3   0.000413 0.716316 0.543725 -0.388553
C69   C     C_3   0.043373 0.716302 0.543730 -0.390476
C70   C     C_3   0.481341 0.748914 0.419635 -0.389384
C71   C     C_3   0.481365 0.248359 0.419682 -0.390106
C72   C     C_3   0.981330 0.249391 0.419612 -0.389433
C73   C     C_3   0.981382 0.747963 0.419718 -0.390148
C74   C     C_3   0.438381 0.748901 0.419631 -0.390926
C75   C     C_3   0.438404 0.248372 0.419677 -0.390762
C76   C     C_3   0.938369 0.249378 0.419608 -0.390961
C77   C     C_3   0.938422 0.747976 0.419713 -0.390824
C78   C     C_3   0.591161 0.836323 0.079122 0.092508
C79   C     C_3   0.463507 0.749980 0.499976 0.348399
C80   C     C_3   0.591947 0.874986 0.103159 -0.812612
C81   C     C_3   0.606517 0.174761 0.078413 0.087710
C82   C     C_3   0.615600 0.134768 0.103477 -0.803194
C83   C     C_3   0.088098 0.337979 0.078899 0.092737
C84   C     C_3   0.087265 0.376308 0.102385 -0.813967
C85   C     C_3   0.105513 0.673903 0.078335 0.087593
C86   C     C_3   0.113993 0.633931 0.103225 -0.803082
C87   C     C_3   0.640096 0.954691 0.301709 0.144998
C88   C     C_3   0.634456 0.948276 0.237557 -0.802768
C89   C     C_3   0.646886 0.058959 0.315992 0.111936
C90   C     C_3   0.463513 0.250023 0.499983 0.349127
C91   C     C_3   0.642541 0.072964 0.255708 -0.803441
C92   C     C_3   0.138334 0.455074 0.301938 0.145954
C93   C     C_3   0.131525 0.449171 0.236638 -0.803711
C94   C     C_3   0.145584 0.559193 0.316832 0.111487
C95   C     C_3   0.140369 0.573402 0.255856 -0.804275
C96   C     C_2   0.815673 0.460899 0.649436 1.036653
C97   C     C_2   0.827622 0.540515 0.653474 0.978414
C98   C     C_2   0.315319 0.960899 0.649363 1.036647
C99   C     C_2   0.327302 0.040515 0.653486 0.978410
C100  C     C_2   0.696786 0.538922 0.539103 1.024034
C101  C     C_3   0.963506 0.249979 0.499974 0.348356
C102  C     C_2   0.682837 0.459104 0.518224 0.988199
C103  C     C_2   0.196397 0.038923 0.538484 1.024045
C104  C     C_2   0.182477 0.959104 0.517574 0.988223
C105  C     C_R   0.849693 0.249935 0.699337 0.828455
C106  C     C_3   0.963512 0.750024 0.499981 0.349131
C107  C     C_3   0.499617 0.715768 0.542092 -0.391533
C108  C     C_3   0.497183 0.285584 0.537218 -0.390147
C109  C     C_3   0.999206 0.215520 0.541271 -0.391492
C110  C     C_3   0.996830 0.785766 0.536512 -0.390098
C111  C     C_3   0.542577 0.715781 0.542095 -0.382064
C112  C     C_3   0.540144 0.285570 0.537223 -0.385233
C113  C     C_3   0.042167 0.215533 0.541275 -0.381983
C114  C     C_3   0.039791 0.785753 0.536517 -0.385195
C115  C     C_1   0.422751 0.749971 0.499975 -0.128392
C116  C     C_R   0.349703 0.250034 0.699343 0.830412
C117  C     C_1   0.422758 0.250032 0.499980 -0.129103
C118  C     C_1   0.922750 0.249971 0.499974 -0.128365
C119  C     C_1   0.922758 0.750032 0.499978 -0.129106
C120  C     C_1   0.577314 0.750017 0.499989 -0.123936
C121  C     C_1   0.577314 0.249985 0.499997 -0.126698
C122  C     C_1   0.077313 0.250016 0.499987 -0.123911
C123  C     C_1   0.077313 0.749985 0.499996 -0.126710
C124  C     C_1   0.610677 0.750031 0.499995 -0.137192
C125  C     C_1   0.610674 0.249970 0.500001 -0.142158
C126  C     C_1   0.110677 0.250031 0.499994 -0.137161
C127  C     C_R   0.349691 0.749940 0.699339 0.828435
C128  C     C_1   0.110674 0.749970 0.500000 -0.142176
C129  C     C_3   0.532625 0.711453 0.043024 -0.504725
C130  C     C_3   0.525022 0.289709 0.042884 -0.504222
C131  C     C_3   0.033949 0.211784 0.043026 -0.504836
C132  C     C_3   0.025524 0.789662 0.042887 -0.504246
C133  C     C_R   0.650408 0.750007 0.300660 0.819205
C134  C     C_R   0.650386 0.249989 0.300666 0.819423
C135  C     C_R   0.150411 0.250004 0.300659 0.819354
C136  C     C_R   0.150386 0.749989 0.300665 0.819480
C137  C     C_3   0.482618 0.759727 0.042898 -0.366037
C138  C     C_1   0.389393 0.749969 0.499980 -0.143107
C139  C     C_3   0.485206 0.232825 0.042961 -0.368510
C140  C     C_3   0.982334 0.258346 0.042895 -0.365766
C141  C     C_3   0.984990 0.733285 0.042958 -0.368426
C142  C     C_3   0.439666 0.759732 0.957030 -0.395469
C143  C     C_3   0.442203 0.232931 0.957089 -0.393896
C144  C     C_3   0.939383 0.258360 0.957028 -0.395493
C145  C     C_3   0.941990 0.733388 0.957085 -0.393918
C146  C     C_1   0.389372 0.749933 0.778702 -0.144216
C147  C     C_1   0.389385 0.249942 0.778715 -0.144336
C148  C     C_1   0.889386 0.249901 0.778698 -0.144192
C149  C     C_1   0.389400 0.250033 0.499982 -0.144017
C150  C     C_1   0.889383 0.749945 0.778714 -0.144314
C151  C     C_3   0.536752 0.750142 0.073004 0.280269
C152  C     C_3   0.536779 0.249669 0.073036 0.280348
C153  C     C_3   0.036768 0.250088 0.072996 0.280250
C154  C     C_3   0.036774 0.749666 0.073034 0.280349
C155  C     C_3   0.489892 0.711495 0.957139 -0.404602
C156  C     C_3   0.482432 0.289684 0.957015 -0.404619
C157  C     C_3   0.991194 0.211822 0.957137 -0.404614
C158  C     C_3   0.982925 0.789638 0.957018 -0.404641
C159  C     C_3   0.463591 0.750031 0.926935 0.293616
C160  C     C_1   0.889393 0.249969 0.499979 -0.143075
C161  C     C_3   0.463614 0.249736 0.926962 0.294027
C162  C     C_3   0.963606 0.249962 0.926927 0.293620
C163  C     C_3   0.963608 0.749741 0.926959 0.294039
C164  C     C_3   0.506307 0.779049 0.956710 -0.444005
C165  C     C_3   0.511315 0.226405 0.956867 -0.447346
C166  C     C_3   0.005332 0.279887 0.956682 -0.443817
C167  C     C_3   0.011015 0.726006 0.956859 -0.447268
C168  C     C_3   0.550143 0.778918 0.043043 0.384972
C169  C     C_3   0.555219 0.226803 0.043221 0.386714
C170  C     C_3   0.049157 0.279800 0.043012 0.384811
C171  C     C_1   0.889400 0.750033 0.499981 -0.144020
C172  C     C_3   0.054919 0.726382 0.043214 0.386668
C173  C     C_1   0.422765 0.749960 0.845421 -0.097645
C174  C     C_1   0.422781 0.249835 0.845439 -0.097195
C175  C     C_1   0.922781 0.249902 0.845415 -0.097693
C176  C     C_1   0.922777 0.749840 0.845437 -0.097200
C177  C     C_1   0.577448 0.749914 0.154591 -0.078429
C178  C     C_1   0.577392 0.249942 0.154611 -0.077954
C179  C     C_1   0.077473 0.249873 0.154585 -0.078482
C180  C     C_1   0.077391 0.749939 0.154610 -0.077991
C181  C     C_R   0.750081 0.650406 0.499948 0.830821
C182  C     C_3   0.536556 0.750002 0.499984 0.344526
C183  C     C_R   0.750039 0.349593 0.499899 0.826157
C184  C     C_R   0.250081 0.150406 0.499948 0.830805
C185  C     C_R   0.250039 0.849593 0.499899 0.826167
C186  C     C_1   0.610778 0.749937 0.221304 -0.140541
C187  C     C_1   0.610704 0.250005 0.221319 -0.141841
C188  C     C_1   0.110795 0.249914 0.221300 -0.140466
C189  C     C_1   0.110703 0.750004 0.221318 -0.141839
C190  C     C_3   0.753518 0.978516 0.559302 -0.511801
C191  C     C_3   0.753790 0.021386 0.559647 -0.505339
C192  C     C_3   0.254623 0.478512 0.560346 -0.511922
H1    H     H_    0.472710 0.810337 0.508884 0.166288
H2    H     H_    0.518835 0.216650 0.601130 0.168081
H3    H     H_    0.213234 0.967496 0.391533 0.179837
H4    H     H_    0.833834 0.528079 0.581123 0.114452
H5    H     H_    0.834051 0.467934 0.588960 0.138733
H6    H     H_    0.333851 0.028079 0.581500 0.114479
H7    H     H_    0.334036 0.967934 0.589305 0.138759
H8    H     H_    0.475850 0.773299 0.388109 0.164308
H9    H     H_    0.477613 0.222962 0.391637 0.164093
H10   H     H_    0.976130 0.273961 0.388668 0.164314
H11   H     H_    0.977883 0.722429 0.392176 0.164064
H12   H     H_    0.412330 0.773278 0.388100 0.164091
H13   H     H_    0.016815 0.286132 0.597087 0.168837
H14   H     H_    0.414095 0.222981 0.391630 0.164005
H15   H     H_    0.912612 0.273942 0.388662 0.164087
H16   H     H_    0.914364 0.722448 0.392169 0.163974
H17   H     H_    0.413730 0.723703 0.390872 0.169523
H18   H     H_    0.412030 0.272534 0.387466 0.169072
H19   H     H_    0.913420 0.224354 0.390251 0.169487
H20   H     H_    0.911810 0.771978 0.387027 0.169011
H21   H     H_    0.581896 0.715920 0.600180 0.168543
H22   H     H_    0.579404 0.287402 0.595190 0.167573
H23   H     H_    0.081485 0.215327 0.599360 0.168600
H24   H     H_    0.019161 0.717150 0.601782 0.168054
H25   H     H_    0.079031 0.787870 0.594443 0.167594
H26   H     H_    0.539621 0.689975 0.515611 0.176108
H27   H     H_    0.535419 0.310416 0.507197 0.173035
H28   H     H_    0.038905 0.189886 0.514178 0.176142
H29   H     H_    0.034821 0.810450 0.506001 0.173059
H30   H     H_    0.518378 0.715902 0.600175 0.166732
H31   H     H_    0.515885 0.287422 0.595182 0.166156
H32   H     H_    0.017967 0.215308 0.599353 0.166751
H33   H     H_    0.015512 0.787890 0.594436 0.166167
H34   H     H_    0.580265 0.838469 0.026119 0.134731
H35   H     H_    0.476103 0.689956 0.515606 0.170789
H36   H     H_    0.631195 0.824395 0.122738 0.141264
H37   H     H_    0.602743 0.873500 0.156008 0.258489
H38   H     H_    0.621106 0.892314 0.111410 0.207907
H39   H     H_    0.552714 0.887966 0.060167 0.256871
H40   H     H_    0.643993 0.190063 0.120875 0.139679
H41   H     H_    0.594677 0.175326 0.024624 0.133072
H42   H     H_    0.578841 0.118679 0.062363 0.256550
H43   H     H_    0.646284 0.122270 0.108969 0.204714
H44   H     H_    0.628667 0.133531 0.157955 0.258239
H45   H     H_    0.077230 0.340499 0.025957 0.134810
H46   H     H_    0.471899 0.310436 0.507189 0.170399
H47   H     H_    0.128578 0.326797 0.122751 0.141703
H48   H     H_    0.097902 0.374440 0.155086 0.258634
H49   H     H_    0.115836 0.394482 0.110685 0.208264
H50   H     H_    0.047559 0.388570 0.059071 0.257006
H51   H     H_    0.143210 0.688956 0.120874 0.139835
H52   H     H_    0.093701 0.674331 0.024563 0.133095
H53   H     H_    0.077004 0.618090 0.062008 0.256581
H54   H     H_    0.144520 0.621078 0.108728 0.204768
H55   H     H_    0.126993 0.632818 0.157663 0.258353
H56   H     H_    0.612051 0.976795 0.285259 0.118840
H57   H     H_    0.975386 0.189867 0.514172 0.170851
H58   H     H_    0.630083 0.928654 0.312650 0.124968
H59   H     H_    0.661437 0.925947 0.251765 0.254938
H60   H     H_    0.593588 0.940112 0.187500 0.199707
H61   H     H_    0.643963 0.974043 0.225389 0.264213
H62   H     H_    0.650735 0.083235 0.346319 0.134422
H63   H     H_    0.610419 0.043606 0.289256 0.116472
H64   H     H_    0.638280 0.049301 0.224090 0.255117
H65   H     H_    0.607753 0.091195 0.217151 0.204346
H66   H     H_    0.678128 0.088943 0.280736 0.258336
H67   H     H_    0.110702 0.477198 0.286780 0.118451
H68   H     H_    0.971301 0.810469 0.505993 0.170446
H69   H     H_    0.128481 0.428921 0.312819 0.124829
H70   H     H_    0.158036 0.426819 0.249506 0.254980
H71   H     H_    0.090406 0.441295 0.186975 0.199750
H72   H     H_    0.140889 0.475066 0.224575 0.264690
H73   H     H_    0.150083 0.583370 0.347886 0.134263
H74   H     H_    0.109178 0.543952 0.290710 0.116678
H75   H     H_    0.135380 0.549854 0.223437 0.254927
H76   H     H_    0.105706 0.591820 0.218167 0.204528
H77   H     H_    0.175922 0.589239 0.280315 0.258421
H78   H     H_    0.858421 0.422860 0.731139 0.345128
H79   H     H_    0.459980 0.690086 0.936399 0.181951
H80   H     H_    0.889813 0.544786 0.764015 0.348397
H81   H     H_    0.357900 0.922860 0.731080 0.345150
H82   H     H_    0.389285 0.044786 0.764086 0.348411
H83   H     H_    0.716008 0.538304 0.634899 0.354888
H84   H     H_    0.694763 0.419012 0.583876 0.347684
H85   H     H_    0.215289 0.038304 0.634032 0.354891
H86   H     H_    0.194172 0.919012 0.583045 0.347694
H87   H     H_    0.448805 0.307096 0.936054 0.182321
H88   H     H_    0.962016 0.189772 0.936426 0.181859
H89   H     H_    0.476916 0.190111 0.517303 0.166173
H90   H     H_    0.949518 0.807334 0.936068 0.182298
H91   H     H_    0.522864 0.690281 0.063357 0.195013
H92   H     H_    0.511433 0.306695 0.062984 0.195251
H93   H     H_    0.024941 0.189950 0.063391 0.194899
H94   H     H_    0.012161 0.806945 0.062999 0.195227
H95   H     H_    0.483986 0.787304 0.063502 0.204503
H96   H     H_    0.492028 0.204021 0.063525 0.204400
H97   H     H_    0.982774 0.285600 0.063512 0.204494
H98   H     H_    0.991448 0.704528 0.063526 0.204388
H99   H     H_    0.472361 0.739170 0.063414 0.160470
H100  H     H_    0.973427 0.310279 0.510319 0.166349
H101  H     H_    0.471430 0.249044 0.063547 0.159887
H102  H     H_    0.972784 0.237102 0.063404 0.160559
H103  H     H_    0.971419 0.749808 0.063538 0.159918
H104  H     H_    0.408777 0.739312 0.936518 0.170881
H105  H     H_    0.407905 0.249199 0.936650 0.171044
H106  H     H_    0.909181 0.237268 0.936511 0.170907
H107  H     H_    0.907893 0.749950 0.936641 0.171033
H108  H     H_    0.420739 0.787438 0.936448 0.178775
H109  H     H_    0.428536 0.204133 0.936464 0.180082
H110  H     H_    0.919545 0.285766 0.936459 0.178696
H111  H     H_    0.977506 0.690199 0.518484 0.166208
H112  H     H_    0.927971 0.704632 0.936465 0.180065
H113  H     H_    0.587606 0.769717 0.061899 0.027533
H114  H     H_    0.590280 0.241253 0.061837 0.027390
H115  H     H_    0.086934 0.271571 0.061907 0.027764
H116  H     H_    0.090172 0.740498 0.061848 0.027462
H117  H     H_    0.536230 0.810356 0.508893 0.165746
H118  H     H_    0.540433 0.190092 0.517310 0.165701
H119  H     H_    0.036945 0.310298 0.510325 0.165788
H120  H     H_    0.041024 0.690180 0.518492 0.165718
H121  H     H_    0.523930 0.772918 0.935447 0.128773
H122  H     H_    0.579900 0.786725 0.596228 0.168772
H123  H     H_    0.527191 0.237602 0.935389 0.127179
H124  H     H_    0.023157 0.274687 0.935442 0.128972
H125  H     H_    0.027035 0.736879 0.935394 0.127231
H126  H     H_    0.570927 0.703507 0.063868 0.168810
H127  H     H_    0.561308 0.302838 0.063827 0.168677
H128  H     H_    0.072498 0.204795 0.063848 0.168847
H129  H     H_    0.061974 0.802462 0.063823 0.168671
H130  H     H_    0.507853 0.704018 0.936848 0.171461
H131  H     H_    0.498604 0.302239 0.936837 0.171198
H132  H     H_    0.009373 0.205280 0.936824 0.171513
H133  H     H_    0.582353 0.216631 0.601137 0.168242
H134  H     H_    0.999244 0.801869 0.936832 0.171201
H135  H     H_    0.488106 0.806961 0.935682 0.196993
H136  H     H_    0.498520 0.197522 0.936147 0.196384
H137  H     H_    0.986197 0.307525 0.935617 0.196930
H138  H     H_    0.997857 0.697158 0.936120 0.196405
H139  H     H_    0.790724 0.031469 0.614741 0.206434
H140  H     H_    0.790136 0.968125 0.614424 0.206337
H141  H     H_    0.292206 0.531453 0.615451 0.206384
H142  H     H_    0.291584 0.468108 0.615099 0.206288
H143  H     H_    0.794312 0.968243 0.470467 0.214659
H144  H     H_    0.080333 0.286151 0.597093 0.168771
H145  H     H_    0.793420 0.031728 0.469300 0.214577
H146  H     H_    0.292903 0.468248 0.468230 0.214666
H147  H     H_    0.292016 0.531732 0.467097 0.214580
H148  H     H_    0.833299 0.968542 0.567670 0.163902
H149  H     H_    0.833133 0.031834 0.566750 0.164037
H150  H     H_    0.333006 0.468535 0.565785 0.163904
H151  H     H_    0.332849 0.531828 0.564881 0.164038
H152  H     H_    0.664609 0.968411 0.415191 -0.039938
H153  H     H_    0.664217 0.030505 0.416014 -0.045696
H154  H     H_    0.164662 0.468409 0.416888 -0.039529
H155  H     H_    0.082679 0.717131 0.601790 0.168222
H156  H     H_    0.164305 0.530515 0.417799 -0.045680
H157  H     H_    0.477249 0.723723 0.390877 0.171993
H158  H     H_    0.475549 0.272515 0.387475 0.170340
H159  H     H_    0.976939 0.224372 0.390257 0.171937
H160  H     H_    0.975329 0.771959 0.387035 0.170285
H161  H     H_    0.720206 0.968328 0.550079 0.179203
H162  H     H_    0.720852 0.031752 0.551161 0.179012
H163  H     H_    0.221775 0.468329 0.552221 0.179251
H164  H     H_    0.222470 0.531753 0.553365 0.179059
H165  H     H_    0.667212 0.532059 0.433655 0.132891
H166  H     H_    0.516381 0.786707 0.596220 0.168852
H167  H     H_    0.666509 0.472072 0.424895 0.110134
H168  H     H_    0.167149 0.032060 0.433235 0.132890
H169  H     H_    0.166481 0.972073 0.424507 0.110132
H170  H     H_    0.776816 0.532543 0.450924 0.179017
H171  H     H_    0.782708 0.469412 0.459788 0.182464
H172  H     H_    0.277149 0.032543 0.451372 0.179042
H173  H     H_    0.283027 0.969412 0.460247 0.182488
H174  H     H_    0.707472 0.530630 0.389696 0.182918
H175  H     H_    0.712920 0.467496 0.391379 0.179847
H176  H     H_    0.207770 0.030631 0.389812 0.182909
O1    O     O_3   0.750040 0.750040 0.500000 -0.480140
O2    O     O_R   0.750020 0.167970 0.542980 -0.640556
O3    O     O_R   0.250020 0.332030 0.542980 -0.641736
O4    O     O_R   0.250020 0.667970 0.542980 -0.640606
O5    O     O_R   0.853500 0.728560 0.663950 -0.632811
O6    O     O_R   0.853500 0.271440 0.663950 -0.631342
O7    O     O_R   0.353500 0.228560 0.663950 -0.632826
O8    O     O_R   0.353500 0.771440 0.663950 -0.631329
O9    O     O_R   0.689570 0.771520 0.336050 -0.636314
O10   O     O_R   0.689570 0.228480 0.336050 -0.635286
O11   O     O_R   0.189570 0.271520 0.336050 -0.636438
O12   O     O_3   0.750040 0.249960 0.500000 -0.479193
O13   O     O_R   0.189570 0.728480 0.336050 -0.635330
O14   O     O_R   0.810510 0.771550 0.663950 -0.639079
O15   O     O_R   0.810510 0.228450 0.663950 -0.639710
O16   O     O_R   0.310510 0.271550 0.663950 -0.639085
O17   O     O_R   0.310510 0.728450 0.663950 -0.639719
O18   O     O_R   0.646590 0.728530 0.336050 -0.640466
O19   O     O_R   0.646590 0.271470 0.336050 -0.641089
O20   O     O_R   0.146590 0.228530 0.336050 -0.640385
O21   O     O_R   0.146590 0.771470 0.336050 -0.641064
O22   O     O_R   0.793040 0.668060 0.542980 -0.636125
O23   O     O_3   0.250040 0.250040 0.500000 -0.480148
O24   O     O_R   0.793040 0.331940 0.542980 -0.627826
O25   O     O_R   0.293040 0.168060 0.542980 -0.636201
O26   O     O_R   0.293040 0.831940 0.542980 -0.627895
O27   O     O_R   0.750030 0.832020 0.457020 -0.631995
O28   O     O_R   0.750030 0.167980 0.457020 -0.633895
O29   O     O_R   0.250030 0.332020 0.457020 -0.631947
O30   O     O_R   0.250030 0.667980 0.457020 -0.633863
O31   O     O_R   0.853520 0.728540 0.542980 -0.640154
O32   O     O_R   0.853520 0.271460 0.542980 -0.638436
O33   O     O_R   0.353520 0.228540 0.542980 -0.640152
O34   O     O_3   0.250040 0.749960 0.500000 -0.479183
O35   O     O_R   0.353520 0.771460 0.542980 -0.638445
O36   O     O_R   0.689540 0.771550 0.542990 -0.640470
O37   O     O_R   0.689540 0.228450 0.542990 -0.639718
O38   O     O_R   0.189540 0.271550 0.542990 -0.640485
O39   O     O_R   0.189540 0.728450 0.542990 -0.639739
O40   O     O_R   0.810530 0.771520 0.457010 -0.638798
O41   O     O_R   0.810530 0.228480 0.457010 -0.638998
O42   O     O_R   0.310530 0.271520 0.457010 -0.638822
O43   O     O_R   0.310530 0.728480 0.457010 -0.639025
O44   O     O_R   0.646570 0.728550 0.457020 -0.630187
O45   O     O_R   0.707070 0.668050 0.457020 -0.629953
O46   O     O_R   0.646570 0.271450 0.457020 -0.634087
O47   O     O_R   0.146570 0.228550 0.457020 -0.630140
O48   O     O_R   0.146570 0.771450 0.457020 -0.634064
O49   O     O_3   0.554703 0.814538 0.070486 -0.606404
O50   O     O_3   0.567156 0.190146 0.071189 -0.605862
O51   O     O_3   0.052470 0.315096 0.070389 -0.606500
O52   O     O_3   0.066373 0.689749 0.071154 -0.605877
O53   O     O_3   0.692317 0.964771 0.365027 -0.570034
O54   O     O_3   0.691058 0.035640 0.364387 -0.568264
O55   O     O_3   0.190861 0.464804 0.364719 -0.570234
O56   O     O_R   0.707070 0.331950 0.457020 -0.638943
O57   O     O_3   0.189629 0.535676 0.364159 -0.568325
O58   O     O_2   0.795788 0.472189 0.669947 -0.545404
O59   O     O_R   0.852235 0.432146 0.688011 -0.801725
O60   O     O_2   0.804787 0.565701 0.652894 -0.606213
O61   O     O_R   0.877627 0.530145 0.720274 -0.804838
O62   O     O_2   0.295261 0.972189 0.669614 -0.545406
O63   O     O_R   0.351872 0.932145 0.688085 -0.801704
O64   O     O_2   0.304372 0.065701 0.652713 -0.606255
O65   O     O_R   0.377235 0.030145 0.720428 -0.804790
O66   O     O_2   0.667422 0.565299 0.515897 -0.623209
O67   O     O_R   0.207070 0.168050 0.457020 -0.629873
O68   O     O_R   0.723754 0.524489 0.609008 -0.719626
O69   O     O_2   0.641767 0.468362 0.498015 -0.626428
O70   O     O_R   0.711291 0.429544 0.567547 -0.782149
O71   O     O_2   0.167006 0.065299 0.515125 -0.623149
O72   O     O_R   0.223179 0.024489 0.608318 -0.719630
O73   O     O_2   0.141318 0.968362 0.497098 -0.626399
O74   O     O_R   0.210841 0.929544 0.566929 -0.782132
O75   O     O_R   0.207070 0.831950 0.457020 -0.638880
O76   O     O_R   0.750020 0.832030 0.542980 -0.641706
Zn1   Zn    Zn3+2 0.688630 0.719330 0.438590 0.986238
Zn2   Zn    Zn3+2 0.750040 0.219260 0.438590 0.969505
Zn3   Zn    Zn3+2 0.250040 0.280740 0.438590 0.970997
Zn4   Zn    Zn3+2 0.250040 0.719260 0.438590 0.969481
Zn5   Zn    Zn3+2 0.750030 0.780760 0.561410 0.971610
Zn6   Zn    Zn3+2 0.750030 0.219240 0.561410 0.969983
Zn7   Zn    Zn3+2 0.250030 0.280760 0.561410 0.971606
Zn8   Zn    Zn3+2 0.250030 0.719240 0.561410 0.969933
Zn9   Zn    Zn3+2 0.688630 0.280670 0.438590 0.976119
Zn10  Zn    Zn3+2 0.188630 0.219330 0.438590 0.986398
Zn11  Zn    Zn3+2 0.188630 0.780670 0.438590 0.976186
Zn12  Zn    Zn3+2 0.811460 0.719330 0.561410 0.980569
Zn13  Zn    Zn3+2 0.811460 0.280670 0.561410 0.985091
Zn14  Zn    Zn3+2 0.311460 0.219330 0.561410 0.980511
Zn15  Zn    Zn3+2 0.311460 0.780670 0.561410 0.985051
Zn16  Zn    Zn3+2 0.750040 0.780740 0.438590 0.970963

loop_
_geom_bond_atom_site_label_1
_geom_bond_atom_site_label_2
_ccdc_geom_bond_type
C78   H34   S    
C87   H58   S    
C83   H45   S    
C63   O38   A    
C32   C45   S    
C118  C160  T    
C19   C20   S    
O16   Zn7   S    
C26   H4    S    
O23   Zn10  S    
C155  H130  S    
C84   H48   S    
O22   Zn12  S    
C109  H57   S    
C61   C124  S    
C39   O76   A    
C14   C21   S    
C24   C69   S    
C154  C180  S    
C59   O42   A    
C141  C154  S    
C137  H95   S    
C142  H104  S    
C61   O44   A    
C139  C152  S    
C9    C39   S    
O1    Zn16  S    
O34   Zn11  S    
C129  H91   S    
C20   O55   S    
C36   C53   T    
C75   C90   S    
C140  H97   S    
C102  O69   D    
C37   C185  S    
C38   C55   T    
C29   H7    S    
C70   C74   S    
C95   H77   S    
C111  H26   S    
C4    C12   S    
C6    H150  S    
C145  H112  S    
C141  C145  S    
C88   H60   S    
C131  H128  S    
C92   O55   S    
O34   Zn4   S    
O23   Zn14  S    
O41   Zn2   S    
C59   C149  S    
C165  C169  S    
C15   C20   S    
C89   O54   S    
C90   C117  S    
C164  C168  S    
C156  H87   S    
C167  H138  S    
C131  H93   S    
C4    C5    S    
C179  C188  T    
C111  C182  S    
C177  C186  T    
C49   H174  S    
C110  H68   S    
O34   Zn15  S    
O26   Zn15  S    
C172  H116  S    
C145  H107  S    
C1    C150  S    
C184  O25   A    
C88   H61   S    
O5    Zn12  S    
C60   O35   A    
C68   H111  S    
C74   C79   S    
C56   C171  S    
C130  C152  S    
C167  H125  S    
C81   H41   S    
C30   C43   S    
C69   H120  S    
O34   Zn8   S    
C2    C71   S    
H84   O70   S    
C164  H121  S    
C2    C121  S    
C70   H8    S    
C172  O52   S    
C7    H151  S    
C111  H21   S    
O9    Zn16  S    
C80   H38   S    
C51   H172  S    
C96   O59   S    
C42   O30   A    
C116  C147  S    
C62   O46   A    
C46   C66   S    
C6    C7    S    
C13   C72   S    
C56   O40   A    
C190  H161  S    
C91   H66   S    
C65   H117  S    
C161  C174  S    
C165  H123  S    
C166  H124  S    
C139  H96   S    
O13   Zn4   S    
C85   H52   S    
C114  H29   S    
C39   O27   A    
C64   O39   A    
C95   H75   S    
C158  H90   S    
C130  H127  S    
C73   C77   S    
C117  C149  T    
C36   C181  S    
C8    C40   S    
C120  C182  S    
H83   O68   S    
C143  C161  S    
C161  C165  S    
C44   C48   S    
C119  C171  T    
O42   Zn3   S    
C75   H18   S    
C24   C114  S    
C86   H55   S    
C79   C115  S    
C33   C104  S    
O28   Zn2   S    
C7    H147  S    
O29   Zn3   S    
C64   O48   A    
C105  O6    A    
C147  C174  T    
C85   C86   S    
C73   H11   S    
C191  H139  S    
C183  O56   A    
C29   C47   S    
C101  C118  S    
C77   C106  S    
C180  C189  T    
C78   C80   S    
C151  C177  S    
O25   Zn14  S    
C11   C25   T    
C30   C100  S    
O46   Zn9   S    
C38   C184  S    
C83   O51   S    
C170  O51   S    
C192  H163  S    
C139  C143  S    
C27   C44   S    
C19   O57   S    
C107  H35   S    
C153  C170  S    
C132  C154  S    
C115  C138  T    
C112  H22   S    
C89   C91   S    
C110  C114  S    
O18   Zn1   S    
C129  H126  S    
C44   C52   S    
C14   C17   S    
C30   H165  S    
C133  O18   A    
C43   C53   S    
C46   H2    S    
C47   C50   S    
C65   C182  S    
O56   Zn9   S    
C67   H144  S    
C74   H17   S    
C155  C159  S    
C168  H113  S    
C34   C183  S    
C134  O10   A    
O15   Zn6   S    
C162  C175  S    
C145  C163  S    
C73   H160  S    
C136  O21   A    
C105  C148  S    
O12   Zn9   S    
C24   C123  S    
C183  O24   A    
C134  O19   A    
O39   Zn8   S    
C121  C125  T    
C6    H146  S    
C62   O37   A    
O37   Zn6   S    
C169  H114  S    
C181  O45   A    
C83   C84   S    
C17   C18   S    
C168  O49   S    
C71   H158  S    
C104  O73   D    
C190  H140  S    
C57   H100  S    
C158  C163  S    
C103  O71   D    
C28   C99   S    
C158  H134  S    
C156  C161  S    
C166  C170  S    
C86   H53   S    
C89   H62   S    
C98   O62   D    
O6    Zn13  S    
C14   C191  S    
C92   H67   S    
C72   H10   S    
C93   H70   S    
C94   H73   S    
C127  O8    A    
O2    Zn6   S    
C72   H159  S    
C107  C111  S    
C3    H164  S    
C40   O2    A    
C2    C66   S    
C130  C156  S    
C99   O65   S    
C16   C23   S    
C57   C101  S    
C136  C189  S    
C107  H30   S    
C90   C108  S    
C96   O58   D    
C3    C192  S    
C74   H12   S    
C157  C162  S    
C35   C79   S    
O45   Zn1   S    
C26   C97   S    
C102  O70   S    
C70   H157  S    
C17   H153  S    
C45   C55   S    
C4    H143  S    
C135  O11   A    
O8    Zn15  S    
C159  C164  S    
C114  H25   S    
C82   H43   S    
C20   H154  S    
C3    C16   S    
C31   H167  S    
H80   O61   S    
C87   C88   S    
C153  C179  S    
C41   O29   A    
C58   O41   A    
C82   H44   S    
C106  C119  S    
C10   C42   S    
C27   H5    S    
C142  C159  S    
C137  C142  S    
C181  O22   A    
C66   H118  S    
C141  H98   S    
C2    C112  S    
C26   C27   S    
C190  C191  S    
C29   C98   S    
C42   O4    A    
C28   C29   S    
O19   Zn9   S    
C129  C151  S    
C106  C110  S    
C30   C31   S    
C24   C73   S    
C35   C65   S    
C101  C109  S    
C3    H141  S    
C5    H145  S    
C165  H136  S    
C131  C157  S    
C77   H20   S    
C162  C166  S    
C70   C182  S    
O47   Zn10  S    
H82   O65   S    
C68   C69   S    
C84   H49   S    
C113  H28   S    
C92   H69   S    
C116  O7    A    
C140  C153  S    
C93   H72   S    
C60   O43   A    
C27   C96   S    
O24   Zn13  S    
O48   Zn11  S    
C132  H129  S    
C31   C102  S    
C133  O9    A    
C48   H175  S    
C116  O16   A    
C129  C155  S    
C108  H31   S    
C132  C158  S    
C108  C112  S    
H86   O74   S    
C66   H133  S    
C91   H65   S    
C35   H166  S    
O30   Zn4   S    
O20   Zn10  S    
C50   C51   S    
C32   C103  S    
C79   C107  S    
C5    C14   S    
C88   H59   S    
C178  C187  T    
C48   C49   S    
C61   O36   A    
C108  H46   S    
C185  O26   A    
C17   O54   S    
C82   H42   S    
C156  H131  S    
O1    Zn1   S    
C143  H105  S    
C144  H110  S    
C85   O52   S    
C19   H156  S    
C134  C187  S    
C99   O64   D    
C140  C144  S    
H78   O59   S    
C184  O67   A    
C62   C125  S    
C155  H79   S    
C32   H168  S    
C167  C172  S    
C46   C90   S    
O67   Zn10  S    
O12   Zn13  S    
C34   C52   T    
C32   C33   S    
O35   Zn15  S    
C58   C160  S    
C152  C169  S    
O14   Zn5   S    
C16   C19   S    
C92   C93   S    
C94   C95   S    
C68   H24   S    
C28   H6    S    
O38   Zn7   S    
C63   C126  S    
C97   O61   S    
C35   H1    S    
C127  C146  S    
O32   Zn13  S    
O4    Zn8   S    
O36   Zn5   S    
C1    O14   A    
C142  H108  S    
C18   H152  S    
H81   O63   S    
H85   O72   S    
C150  C176  T    
C15   C192  S    
C127  O17   A    
C18   O53   S    
C12   C22   S    
C4    H148  S    
C80   H37   S    
C72   C76   S    
O12   Zn2   S    
C81   C82   S    
C123  C128  T    
C87   H56   S    
C1    O5    A    
C169  O50   S    
O31   Zn12  S    
C67   H119  S    
C59   O33   A    
O27   Zn16  S    
C140  H102  S    
O33   Zn14  S    
C75   H14   S    
C9    C22   T    
C141  H103  S    
C91   H64   S    
C45   C51   S    
C151  C168  S    
C100  O68   S    
C146  C173  T    
C57   H13   S    
C136  O13   A    
C85   H51   S    
C50   H3    S    
C137  H99   S    
C130  H92   S    
C6    C15   S    
C112  H27   S    
C132  H94   S    
C64   C128  S    
C166  H137  S    
C49   H170  S    
C104  O74   S    
C76   H15   S    
C109  C113  S    
O44   Zn1   S    
C100  O66   D    
O21   Zn11  S    
C98   O63   S    
C135  O20   A    
C87   O53   S    
O7    Zn14  S    
C68   C106  S    
C57   C67   S    
C163  C176  S    
C40   O28   A    
O12   Zn6   S    
C26   C43   S    
O10   Zn2   S    
C191  H162  S    
C78   H36   S    
C94   H74   S    
C83   H47   S    
C28   C45   S    
C148  C175  T    
C31   C44   S    
C58   O32   A    
C131  C153  S    
C78   O49   S    
C77   H16   S    
C139  H101  S    
C105  O15   A    
C65   H122  S    
C43   C49   S    
C69   H155  S    
C81   H40   S    
O75   Zn11  S    
C122  C126  T    
C163  C167  S    
C51   H176  S    
C81   O50   S    
C164  H135  S    
C63   O47   A    
C170  H115  S    
C8    C21   T    
C154  C172  S    
C97   O60   D    
O23   Zn3   S    
C109  H32   S    
C133  C186  S    
C37   C54   T    
C76   H19   S    
O76   Zn5   S    
C47   C54   S    
C89   H63   S    
C185  O75   A    
C48   H171  S    
C113  H23   S    
C80   H39   S    
O11   Zn3   S    
C135  C188  S    
O17   Zn8   S    
C13   C67   S    
C76   C101  S    
C71   H9    S    
O3    Zn7   S    
C7    C16   S    
C144  C162  S    
C56   O31   A    
O1    Zn5   S    
O40   Zn16  S    
C110  H33   S    
C10   C23   T    
C157  H132  S    
C12   C190  S    
C5    H149  S    
C94   O57   S    
C157  H88   S    
C71   C75   S    
C13   C122  S    
C95   H76   S    
C192  H142  S    
C41   O3    A    
C33   C47   S    
O1    Zn12  S    
C11   C41   S    
C152  C178  S    
O43   Zn4   S    
C143  H109  S    
O23   Zn7   S    
C103  O72   S    
C144  H106  S    
C33   H169  S    
C15   C25   S    
C86   H54   S    
C159  C173  S    
C12   C18   S    
C46   H89   S    
C137  C151  S    
C84   H50   S    
C50   H173  S    
C13   C113  S    
C120  C124  T    
C93   H71   S    
C60   C138  S    
