data_mof_unit_pretest_165.cif
_audit_creation_date              2012-12-10T17:02:19-0500
_audit_creation_method            fapswitch 2.2
_symmetry_space_group_name_H-M    P1
_symmetry_Int_Tables_number       1
_space_group_crystal_system       triclinic
_cell_length_a                    10.643776
_cell_length_b                    10.70169
_cell_length_c                    9.996382
_cell_angle_alpha                 88.99235
_cell_angle_beta                  89.822858
_cell_angle_gamma                 89.842099
_cell_volume                      1138.46611598

loop_
_atom_site_label
_atom_site_type_symbol
_atom_type_description
_atom_site_fract_x
_atom_site_fract_y
_atom_site_fract_z
_atom_type_partial_charge
C1    C     C_R   0.493141 0.262637 0.501248 0.938593
C2    C     C_2   0.468490 0.132139 0.505913 -0.317449
C3    C     C_2   0.583180 0.558775 0.923322 -0.117047
C4    C     C_R   0.260106 0.513923 0.500203 0.916133
C5    C     C_2   0.575916 0.568436 0.073273 0.000412
C6    C     C_R   0.498036 0.737592 0.498487 0.975187
C7    C     C_R   0.739949 0.486217 0.500512 0.881332
C8    C     C_R   0.101944 0.584501 0.743677 0.448524
C9    C     C_R   0.049915 0.543457 0.865438 -0.257804
C10   C     C_R   0.953606 0.455688 0.867290 -0.254783
C11   C     C_R   0.897490 0.420299 0.747481 0.028810
C12   C     C_R   0.058081 0.532101 0.622789 -0.032351
C13   C     C_R   0.941590 0.472288 0.624181 0.000241
C14   C     C_1   0.659410 0.655392 0.135750 0.264233
C15   C     C_1   0.808003 0.318996 0.752878 0.205833
C16   C     C_1   0.356470 0.877996 0.297792 0.266442
C17   C     C_R   0.125711 0.530824 0.500760 -0.058043
C18   C     C_R   0.063455 0.514321 0.379474 -0.190473
C19   C     C_R   0.937200 0.490641 0.379936 -0.187956
C20   C     C_R   0.874587 0.472370 0.501810 -0.099208
C21   C     C_2   0.433790 0.935539 0.398712 0.031966
C22   C     C_2   0.497125 0.870280 0.493316 -0.291620
C23   C     C_2   0.445353 0.070168 0.394156 -0.202504
H1    H     H_    0.112238 0.518045 0.284172 0.170465
H2    H     H_    0.437196 0.118098 0.297718 0.178546
H3    H     H_    0.124659 0.814058 0.924109 0.357403
H4    H     H_    0.464378 0.087710 0.604330 0.178915
H5    H     H_    0.659758 0.606136 0.871613 0.165287
H6    H     H_    0.423724 0.464223 0.899157 0.175849
H7    H     H_    0.448855 0.433404 0.103405 0.154250
H8    H     H_    0.083690 0.579864 0.959075 0.161646
H9    H     H_    0.919807 0.418811 0.962418 0.161948
H10   H     H_    0.888881 0.487366 0.284794 0.168907
H11   H     H_    0.555536 0.914409 0.567479 0.139310
N1    N     N_2   0.501340 0.501330 0.852150 -0.168373
N2    N     N_2   0.501380 0.501360 0.147810 -0.211842
N3    N     N_1   0.726659 0.725411 0.185520 -0.199819
N4    N     N_1   0.736889 0.237428 0.757710 -0.188991
N5    N     N_1   0.294731 0.832074 0.217294 -0.186138
O1    O     O_R   0.499980 0.319060 0.613040 -0.612338
O2    O     O_2   0.219348 0.771389 0.606691 -0.307478
O3    O     O_3   0.111214 0.833134 0.827879 -0.520535
O4    O     O_R   0.500020 0.319100 0.386900 -0.621300
O5    O     O_R   0.316750 0.499980 0.613090 -0.596323
O6    O     O_R   0.316790 0.500020 0.386950 -0.631298
O7    O     O_R   0.499980 0.680900 0.613100 -0.548572
O8    O     O_R   0.500020 0.680940 0.386960 -0.620384
O9    O     O_R   0.683210 0.499980 0.613050 -0.625246
O10   O     O_R   0.683250 0.500020 0.386910 -0.621315
O11   O     O_2   0.313864 0.699304 0.818072 -0.310686
S1    S     S_3+6 0.192435 0.723100 0.745823 0.029854
Zn1   Zn    Zn3+2 0.499970 0.499970 0.650990 1.018029
Zn2   Zn    Zn3+2 0.500030 0.500030 0.349010 0.961759

loop_
_geom_bond_atom_site_label_1
_geom_bond_atom_site_label_2
_ccdc_geom_bond_type
C12   C17   A    
C15   N4    T    
C2    H4    S    
H7    N2    S    
O8    Zn2   S    
C9    C10   A    
H6    N1    S    
C19   C20   A    
C13   C20   A    
C3    N1    D    
O3    S1    S    
C8    C12   A    
C10   C11   A    
C7    O9    A    
O5    Zn1   S    
C21   C23   S    
C17   C18   A    
O6    Zn2   S    
C21   C22   D    
C14   N3    T    
C11   C13   A    
C8    S1    S    
C7    O10   A    
C5    C14   S    
C16   C21   S    
C10   H9    S    
O10   Zn2   S    
C4    C17   S    
C1    C2    S    
C3    H5    S    
O2    S1    D    
O4    Zn2   S    
C18   C19   A    
C4    O6    A    
C23   H2    S    
C6    O7    A    
C22   H11   S    
C18   H1    S    
C6    O8    A    
C9    H8    S    
C16   N5    T    
C6    C22   S    
C5    N2    D    
O7    Zn1   S    
O9    Zn1   S    
C12   C13   A    
H3    O3    S    
C7    C20   S    
C19   H10   S    
C2    C23   D    
N1    Zn1   S    
N2    Zn2   S    
C4    O5    A    
C1    O1    A    
O11   S1    D    
O1    Zn1   S    
C11   C15   S    
C1    O4    A    
C8    C9    A    
C3    C5    S    
