data_mof_unit_pretest_1186.cif
_audit_creation_date              2012-12-10T20:26:25-0500
_audit_creation_method            fapswitch 2.2
_symmetry_space_group_name_H-M    P1
_symmetry_Int_Tables_number       1
_space_group_crystal_system       triclinic
_cell_length_a                    10.759822
_cell_length_b                    10.657091
_cell_length_c                    9.8656
_cell_angle_alpha                 88.504293
_cell_angle_beta                  90.718268
_cell_angle_gamma                 90.735969
_cell_volume                      1130.70961526

loop_
_atom_site_label
_atom_site_type_symbol
_atom_type_description
_atom_site_fract_x
_atom_site_fract_y
_atom_site_fract_z
_atom_type_partial_charge
C1    C     C_R   0.510003 0.259886 0.501555 0.887818
C2    C     C_R   0.542027 0.129328 0.501542 -0.109555
C3    C     C_R   0.545842 0.069032 0.376022 -0.161502
C4    C     C_R   0.541936 0.939301 0.373296 -0.191878
C5    C     C_R   0.533493 0.871336 0.495941 -0.061628
C6    C     C_R   0.557694 0.931679 0.616852 0.002500
C7    C     C_3   0.497183 0.917501 0.751025 0.291057
C8    C     C_3   0.513289 0.058772 0.761091 0.205244
C9    C     C_R   0.397766 0.459035 0.071697 0.098821
C10   C     C_R   0.594766 0.554111 0.071244 0.631875
C11   C     C_R   0.594921 0.553570 0.927430 -0.287370
C12   C     C_R   0.263370 0.509746 0.498671 0.981994
C13   C     C_R   0.397897 0.458553 0.928978 0.107995
C14   C     C_3   0.343311 0.329289 0.929424 -0.571367
C15   C     C_3   0.341468 0.331201 0.082434 0.523687
C16   C     C_R   0.505824 0.740265 0.498456 0.900444
C17   C     C_R   0.737955 0.497780 0.501312 0.829513
C18   C     C_2   0.931315 0.542389 0.396402 -0.335269
C19   C     C_2   0.871547 0.491121 0.503483 0.241349
C20   C     C_2   0.064594 0.535063 0.384641 0.723442
C21   C     C_2   0.134943 0.541081 0.496561 -0.411130
C22   C     C_R   0.569067 0.059680 0.620895 -0.050700
H1    H     H_    0.881449 0.589092 0.313417 0.213979
H2    H     H_    0.672437 0.594962 0.872850 0.173482
H3    H     H_    0.250232 0.324299 0.881064 0.233816
H4    H     H_    0.409459 0.260725 0.894074 0.169294
H5    H     H_    0.402209 0.260540 0.133686 0.060206
H6    H     H_    0.096078 0.569709 0.591476 0.134198
H7    H     H_    0.539221 0.120558 0.280220 0.163629
H8    H     H_    0.533764 0.894045 0.276451 0.182539
H9    H     H_    0.555308 0.859303 0.822474 0.110094
H10   H     H_    0.423345 0.107525 0.765719 0.125031
N1    N     N_R   0.499170 0.499140 0.142800 -0.202647
N2    N     N_R   0.499170 0.499180 0.857150 -0.138796
O1    O     O_R   0.500020 0.316790 0.614690 -0.644585
O2    O     O_R   0.500000 0.316760 0.385350 -0.630167
O3    O     O_R   0.319080 0.500020 0.614640 -0.619468
O4    O     O_R   0.319070 0.499980 0.385300 -0.527851
O5    O     O_R   0.500000 0.683240 0.614650 -0.601437
O6    O     O_R   0.499980 0.683210 0.385310 -0.612887
O7    O     O_R   0.680930 0.500020 0.614700 -0.664848
O8    O     O_R   0.680920 0.499980 0.385360 -0.565257
Zn1   Zn    Zn3+2 0.500010 0.500020 0.653130 0.931659
Zn2   Zn    Zn3+2 0.499990 0.499980 0.346870 1.033435
O9    O     O_3   0.596788 0.080915 0.870770 -0.633456
C23   C     C_3   0.664922 0.193975 0.855318 0.084263
H11   H     H_    0.605686 0.273306 0.823275 0.179912
H12   H     H_    0.740182 0.182737 0.780553 0.173129
C24   C     C_3   0.722927 0.225797 0.991939 -0.792201
H13   H     H_    0.787169 0.150366 0.026313 0.275920
H14   H     H_    0.775554 0.315765 0.984249 0.213750
H15   H     H_    0.648929 0.235457 0.068352 0.237791
F1    F     F_    0.691196 0.608673 0.137683 -0.665049
F2    F     F_    0.221893 0.332941 0.131873 -0.582005
O10   O     O_3   0.933544 0.414988 0.599290 -0.608801
C25   C     C_3   0.908118 0.451059 0.733196 0.069461
H16   H     H_    0.822731 0.402506 0.769224 0.173398
H17   H     H_    0.898008 0.554696 0.741367 0.139995
C26   C     C_3   0.013278 0.410263 0.827727 -0.769410
H18   H     H_    0.099871 0.462146 0.800929 0.248521
H19   H     H_    0.989806 0.431296 0.933997 0.258945
H20   H     H_    0.028014 0.307730 0.820186 0.263065
F3    F     F_    0.113054 0.520054 0.259613 -0.597240
O11   O     O_3   0.371107 0.880214 0.737220 -0.613231
C27   C     C_3   0.326513 0.837111 0.864221 0.122652
H21   H     H_    0.329247 0.914269 0.938258 0.146190
H22   H     H_    0.382117 0.756647 0.904638 0.144748
C28   C     C_3   0.192785 0.791613 0.847650 -0.770756
H23   H     H_    0.188231 0.713360 0.775501 0.249559
H24   H     H_    0.156686 0.757470 0.947114 0.228173
H25   H     H_    0.133725 0.869556 0.808523 0.253915

loop_
_geom_bond_atom_site_label_1
_geom_bond_atom_site_label_2
_ccdc_geom_bond_type
C2    C22   A    
C8    C22   S    
O10   C25   S    
C26   H18   S    
O4    Zn2   S    
C6    C7    S    
O1    Zn1   S    
C25   H16   S    
C15   H5    S    
C14   C15   S    
C25   C26   S    
C24   H15   S    
O11   C27   S    
C27   C28   S    
C20   F3    S    
C2    C3    A    
C9    C15   S    
C8    O9    S    
C7    C8    S    
C13   C14   S    
C14   H4    S    
C9    N1    A    
O7    Zn1   S    
C23   C24   S    
C3    H7    S    
O8    Zn2   S    
C16   O6    A    
C28   H25   S    
C17   C19   S    
C21   H6    S    
C25   H17   S    
C27   H21   S    
C10   N1    A    
C17   O7    A    
C11   N2    A    
C14   H3    S    
C12   O4    A    
C5    C6    A    
C23   H12   S    
C7    O11   S    
C26   H19   S    
O2    Zn2   S    
C10   C11   A    
C16   O5    A    
C18   H1    S    
C8    H10   S    
C15   F2    S    
O9    C23   S    
C11   H2    S    
O6    Zn2   S    
C7    H9    S    
C20   C21   D    
C1    O1    A    
C18   C20   S    
C28   H24   S    
C1    C2    S    
C13   N2    A    
C19   O10   S    
C12   O3    A    
C24   H13   S    
C10   F1    S    
C9    C13   A    
C17   O8    A    
C18   C19   D    
C5    C16   S    
O5    Zn1   S    
C24   H14   S    
C23   H11   S    
N1    Zn2   S    
C27   H22   S    
C12   C21   S    
C28   H23   S    
O3    Zn1   S    
C4    H8    S    
N2    Zn1   S    
C3    C4    A    
C1    O2    A    
C4    C5    A    
C26   H20   S    
C6    C22   A    
