data_mof_unit_pretest_1577.cif
_audit_creation_date              2012-12-10T16:48:59-0500
_audit_creation_method            fapswitch 2.2
_symmetry_space_group_name_H-M    P1
_symmetry_Int_Tables_number       1
_space_group_crystal_system       triclinic
_cell_length_a                    18.469949
_cell_length_b                    18.357907
_cell_length_c                    18.37473
_cell_angle_alpha                 119.558654
_cell_angle_beta                  119.616812
_cell_angle_gamma                 90.600054
_cell_volume                      4437.07744206

loop_
_atom_site_label
_atom_site_type_symbol
_atom_type_description
_atom_site_fract_x
_atom_site_fract_y
_atom_site_fract_z
_atom_type_partial_charge
Br1   Br    Br    0.590086 0.302685 0.390473 -0.329963
Br2   Br    Br    0.807047 0.162060 0.436240 -0.400405
Br3   Br    Br    0.807351 0.455082 0.597577 -0.179614
Br4   Br    Br    0.724364 0.157749 0.775696 -0.304690
Br5   Br    Br    0.343325 0.446647 0.198331 -0.288426
Br6   Br    Br    0.371282 0.710647 0.019430 -0.381673
Br7   Br    Br    0.846228 0.204323 0.167290 -0.399614
C1    C     C_R   0.138635 0.361476 0.000677 0.535685
C2    C     C_2   0.812975 0.700574 0.005595 -0.102944
C3    C     C_2   0.694554 0.271280 0.444225 0.139139
C4    C     C_R   0.860365 0.637511 0.998639 0.562766
C5    C     C_2   0.702624 0.194491 0.386324 0.141371
C6    C     C_2   0.764479 0.334621 0.552700 0.192771
C7    C     C_2   0.793104 0.305867 0.613402 -0.041596
C8    C     C_2   0.335029 0.281745 0.042476 0.236695
C9    C     C_2   0.307725 0.195410 0.006375 -0.101188
C10   C     C_2   0.281698 0.336235 0.063960 0.165540
C11   C     C_2   0.194070 0.306438 0.992585 -0.091893
C12   C     C_3   0.706680 0.321802 0.969091 0.137202
C13   C     C_2   0.220791 0.760049 0.924475 -0.126792
C14   C     C_2   0.308727 0.782410 0.979106 0.138562
C15   C     C_2   0.166867 0.692183 0.912416 0.210586
C16   C     C_R   0.138392 0.638089 0.276903 0.512399
C17   C     C_2   0.191580 0.696836 0.997357 -0.038730
C18   C     C_2   0.219417 0.776644 0.556629 -0.137247
C19   C     C_2   0.307973 0.809142 0.612290 -0.073146
C20   C     C_2   0.162983 0.722984 0.444232 -0.139634
C21   C     C_2   0.195198 0.690835 0.387645 -0.071115
C22   C     C_R   0.638219 0.138472 0.276862 0.568627
C23   C     C_3   0.795118 0.300092 0.993077 -0.026757
C24   C     C_R   0.361781 0.861904 0.723083 0.521114
C25   C     C_R   0.639695 0.862456 0.000914 0.558383
C26   C     C_R   0.361915 0.138891 0.999159 0.554743
C27   C     C_R   0.360027 0.856001 0.997117 0.536239
C28   C     C_R   0.859970 0.361643 0.722921 0.562680
C29   C     C_R   0.641114 0.141165 0.999750 0.611641
C30   C     C_R   0.139802 0.639211 0.997911 0.538485
C31   C     C_R   0.856961 0.358422 0.997984 0.568134
C32   C     C_3   0.776288 0.199076 0.917100 0.036658
C33   C     C_3   0.720557 0.140626 0.921533 -0.186258
C34   C     C_3   0.695107 0.198387 0.995760 -0.040594
C35   C     C_3   0.843237 0.318116 0.100834 -0.304163
C36   C     C_3   0.782246 0.263773 0.104607 -0.033004
C37   C     C_3   0.643175 0.254716 0.960241 0.098229
C38   C     C_2   0.735656 0.789467 0.954292 0.231629
C39   C     C_2   0.687231 0.799508 0.992390 -0.098210
C40   C     C_2   0.766208 0.712874 0.930949 0.222402
H1    H     H_    0.840800 0.187225 0.942026 0.150232
H2    H     H_    0.187296 0.795114 0.891735 0.137600
H3    H     H_    0.251042 0.748395 0.071235 0.116645
H4    H     H_    0.185962 0.790481 0.594366 0.171563
H5    H     H_    0.660907 0.089668 0.844231 0.224301
H6    H     H_    0.343749 0.799127 0.577957 0.130870
H7    H     H_    0.092178 0.708831 0.407346 0.170672
H8    H     H_    0.264926 0.701269 0.421279 0.133444
H9    H     H_    0.759318 0.102396 0.947654 0.181755
H10   H     H_    0.905010 0.301293 0.119955 0.178061
H11   H     H_    0.727353 0.387152 0.040141 0.110091
H12   H     H_    0.628046 0.296153 0.016558 0.139994
H13   H     H_    0.873419 0.897951 0.922031 0.376789
H14   H     H_    0.634852 0.611903 0.656510 0.393260
H15   H     H_    0.477923 0.450810 0.075535 0.387071
H16   H     H_    0.067738 0.661922 0.701382 0.345450
H17   H     H_    0.563400 0.418026 0.843921 0.387091
H18   H     H_    0.418698 0.086057 0.777341 0.362153
H19   H     H_    0.863952 0.390010 0.160749 0.147506
H20   H     H_    0.765207 0.310817 0.156318 0.168351
H21   H     H_    0.675516 0.753726 0.009710 0.087105
H22   H     H_    0.823187 0.744476 0.079174 0.079034
H23   H     H_    0.762935 0.236750 0.580678 0.135681
H24   H     H_    0.244792 0.166429 0.988631 0.072048
H25   H     H_    0.162844 0.240919 0.921150 0.091250
O1    O     O_3   0.000000 0.500000 0.000000 -0.499666
O2    O     O_R   0.324760 0.053850 0.939900 -0.544800
O3    O     O_R   0.443270 0.883090 0.060070 -0.497663
O4    O     O_R   0.053940 0.324750 0.939940 -0.541523
O5    O     O_R   0.616890 0.176890 0.060090 -0.499361
O6    O     O_R   0.323100 0.883090 0.939900 -0.562968
O7    O     O_R   0.616910 0.056740 0.939940 -0.497379
O8    O     O_R   0.615250 0.885990 0.939940 -0.467993
O9    O     O_R   0.446110 0.175200 0.060060 -0.452632
O10   O     O_R   0.614030 0.053850 0.229160 -0.510220
O11   O     O_R   0.324790 0.884790 0.770830 -0.540364
O12   O     O_R   0.053880 0.613970 0.229150 -0.550558
O13   O     O_R   0.884790 0.613970 0.060060 -0.524523
O14   O     O_R   0.175250 0.615170 0.229170 -0.520206
O15   O     O_R   0.886020 0.446110 0.770840 -0.457769
O16   O     O_R   0.176940 0.616860 0.060100 -0.520024
O17   O     O_R   0.883150 0.323060 0.939910 -0.501945
O18   O     O_R   0.056770 0.616860 0.939930 -0.481971
O19   O     O_R   0.883130 0.443210 0.060060 -0.525183
O20   O     O_2   0.697642 0.851150 0.838515 -0.204119
O21   O     O_2   0.794795 0.960607 0.024518 -0.251745
O22   O     O_3   0.859844 0.855259 0.935291 -0.468612
O23   O     O_R   0.884840 0.324750 0.770840 -0.514775
O24   O     O_2   0.809355 0.657262 0.796999 -0.161154
O25   O     O_2   0.708849 0.543901 0.770274 -0.242353
O26   O     O_3   0.646635 0.652528 0.724790 -0.462603
O27   O     O_2   0.511287 0.360158 0.163767 -0.202103
O28   O     O_2   0.440543 0.271376 0.978588 -0.232221
O29   O     O_3   0.422544 0.425520 0.063785 -0.449643
O30   O     O_2   0.060843 0.521008 0.767159 -0.197942
O31   O     O_2   0.991202 0.635448 0.777903 -0.204294
O32   O     O_3   0.081713 0.609636 0.700423 -0.458758
O33   O     O_2   0.726332 0.412737 0.894065 -0.278132
O34   O     O_R   0.175280 0.446110 0.060100 -0.480007
O35   O     O_2   0.606886 0.270217 0.768051 -0.139400
O36   O     O_3   0.587847 0.403260 0.894625 -0.465216
O37   O     O_2   0.482927 0.245986 0.820259 -0.151509
O38   O     O_2   0.539705 0.129049 0.751284 -0.215848
O39   O     O_3   0.475873 0.121169 0.845495 -0.525176
O40   O     O_R   0.885990 0.615170 0.939900 -0.466145
O41   O     O_3   0.500040 0.999960 0.000000 -0.496032
O42   O     O_R   0.615200 0.175200 0.229160 -0.500881
O43   O     O_R   0.446160 0.885990 0.770850 -0.514759
O44   O     O_R   0.614060 0.884790 0.060100 -0.523965
S1    S     S_3+6 0.770797 0.867385 0.937753 0.096269
S2    S     S_3+6 0.733986 0.638438 0.803309 0.123771
S3    S     S_3+6 0.431042 0.333897 0.062675 0.104185
S4    S     S_3+6 0.071712 0.611783 0.787584 0.106193
S5    S     S_3+6 0.657246 0.350139 0.876735 0.109061
S6    S     S_3+6 0.533831 0.187001 0.839705 0.099109
Zn1   Zn    Zn3+2 0.956210 0.542060 0.085830 0.989737
Zn2   Zn    Zn3+2 0.129620 0.543770 0.085850 1.018259
Zn3   Zn    Zn3+2 0.957930 0.543770 0.914160 1.114477
Zn4   Zn    Zn3+2 0.956240 0.370390 0.914160 1.028757
Zn5   Zn    Zn3+2 0.543830 0.957900 0.914170 1.066783
Zn6   Zn    Zn3+2 0.542120 0.956180 0.085840 1.029379
Zn7   Zn    Zn3+2 0.370430 0.956180 0.914150 0.966808
Zn8   Zn    Zn3+2 0.543800 0.129560 0.085840 1.089310

loop_
_geom_bond_atom_site_label_1
_geom_bond_atom_site_label_2
_ccdc_geom_bond_type
C22   O42   A    
C5    C22   S    
O42   Zn8   S    
C30   O16   A    
H14   O26   S    
O15   Zn3   S    
O36   S5    S    
O16   Zn2   S    
Br2   C5    S    
C20   H7    S    
C24   O11   A    
O41   Zn6   S    
C38   C39   D    
O12   Zn1   S    
C15   S4    S    
C31   O17   A    
O41   Zn7   S    
C30   O18   A    
O24   S2    D    
O6    Zn7   S    
C2    H22   S    
O11   Zn7   S    
C29   O5    A    
O22   S1    S    
O37   S6    D    
Br5   C10   S    
C37   H12   S    
C8    C9    D    
C1    O4    A    
O43   Zn5   S    
C23   C31   S    
O3    Zn6   S    
O25   S2    D    
H18   O39   S    
C28   O15   A    
C40   S2    S    
O31   S4    D    
C33   H9    S    
C16   O14   A    
H17   O36   S    
Br7   C36   S    
Br3   C6    S    
C27   O3    A    
H15   O29   S    
C19   C24   S    
O19   Zn1   S    
C6    C7    D    
O39   S6    S    
C17   H3    S    
C34   C36   S    
C29   C34   S    
C7    H23   S    
C9    H24   S    
O21   S1    D    
C35   H10   S    
C24   O43   A    
C21   H8    S    
O26   S2    S    
O17   Zn4   S    
C38   C40   S    
C12   H11   S    
C11   H25   S    
O41   Zn8   S    
O29   S3    S    
C17   C30   S    
C16   O12   A    
C7    C28   S    
O4    Zn4   S    
C14   C27   S    
O1    Zn1   S    
C18   C19   D    
C33   H5    S    
Br6   C14   S    
C31   O19   A    
C3    C6    S    
C1    C11   S    
O20   S1    D    
C18   H4    S    
C39   H21   S    
C13   H2    S    
C9    C26   S    
C25   O8    A    
Br4   C32   S    
O1    Zn2   S    
C10   C11   D    
O33   S5    D    
O28   S3    D    
C16   C21   S    
C25   O44   A    
C2    C4    S    
O10   Zn6   S    
O40   Zn3   S    
C3    C5    D    
C33   C34   S    
C13   C15   S    
C2    C40   D    
O14   Zn2   S    
C34   C37   S    
C15   C17   D    
C35   C36   S    
O35   S5    D    
C19   H6    S    
C32   C33   S    
O30   S4    D    
C12   C37   S    
C38   S1    S    
C8    C10   S    
O7    Zn5   S    
C12   S5    S    
C4    O40   A    
C25   C39   S    
Br1   C3    S    
H16   O32   S    
C29   O7    A    
C1    O34   A    
O41   Zn5   S    
O8    Zn5   S    
C28   O23   A    
C18   C20   S    
C22   O10   A    
C27   O6    A    
O23   Zn4   S    
O9    Zn8   S    
C4    O13   A    
O1    Zn3   S    
C37   S6    S    
O18   Zn3   S    
C8    S3    S    
C23   C32   S    
O13   Zn1   S    
O5    Zn8   S    
O27   S3    D    
C26   O2    A    
C13   C14   D    
C36   H20   S    
O44   Zn6   S    
O2    Zn7   S    
O34   Zn2   S    
C20   C21   D    
C35   H19   S    
C23   C35   S    
C12   C23   S    
C26   O9    A    
O38   S6    D    
O1    Zn4   S    
C32   H1    S    
O32   S4    S    
H13   O22   S    
