data_mof_unit_pretest_617.cif
_audit_creation_date              2012-12-10T17:52:05-0500
_audit_creation_method            fapswitch 2.2
_symmetry_space_group_name_H-M    P1
_symmetry_Int_Tables_number       1
_space_group_crystal_system       triclinic
_cell_length_a                    14.662391
_cell_length_b                    14.682438
_cell_length_c                    19.31787
_cell_angle_alpha                 76.355918
_cell_angle_beta                  102.735982
_cell_angle_gamma                 114.869852
_cell_volume                      3631.76706825

loop_
_atom_site_label
_atom_site_type_symbol
_atom_type_description
_atom_site_fract_x
_atom_site_fract_y
_atom_site_fract_z
_atom_type_partial_charge
C1    C     C_R   0.880463 0.312108 0.513019 0.827528
C2    C     C_R   0.120006 0.687983 0.488416 0.863759
C3    C     C_R   0.813183 0.203843 0.525064 -0.287500
C4    C     C_R   0.188824 0.795946 0.476336 -0.278348
C5    C     C_R   0.777829 0.031040 0.588702 0.420304
C6    C     C_R   0.224754 0.969696 0.413902 0.423826
C7    C     C_R   0.843246 0.133933 0.578866 0.400056
C8    C     C_R   0.159423 0.866619 0.422786 0.385063
C9    C     C_R   0.715329 0.170954 0.485157 0.024955
C10   C     C_R   0.287293 0.828020 0.516106 0.029324
C11   C     C_R   0.641383 0.076953 0.512499 0.007033
C12   C     C_R   0.360653 0.923615 0.490423 -0.040770
C13   C     C_R   0.676124 0.002403 0.555900 -0.071284
C14   C     C_R   0.326010 0.998468 0.447668 -0.068107
C15   C     C_R   0.535124 0.052120 0.495344 0.115906
C16   C     C_R   0.466859 0.949267 0.509221 0.109047
C17   C     C_R   0.507074 0.874354 0.537244 -0.231872
C18   C     C_R   0.494870 0.127294 0.468464 -0.232956
C19   C     C_R   0.609051 0.900470 0.564042 -0.171309
C20   C     C_R   0.392763 0.100819 0.441222 -0.163877
C21   C     C_R   0.706426 0.654072 0.370608 -0.306228
C22   C     C_R   0.293583 0.346132 0.629524 -0.304870
C23   C     C_R   0.000201 0.500788 0.632441 0.797693
C24   C     C_R   0.999838 0.499261 0.367576 0.795459
C25   C     C_R   0.793082 0.632597 0.394724 0.113632
C26   C     C_R   0.207162 0.367982 0.605602 0.114784
C27   C     C_R   0.716139 0.512642 0.492185 0.007849
C28   C     C_R   0.283353 0.486468 0.507344 -0.006808
C29   C     C_R   0.630039 0.538793 0.474553 -0.031454
C30   C     C_R   0.369404 0.460274 0.524996 -0.027578
C31   C     C_R   0.623062 0.604043 0.408833 0.129900
C32   C     C_R   0.376549 0.395385 0.590898 0.131138
C33   C     C_R   0.547870 0.497179 0.516488 -0.000917
C34   C     C_R   0.451478 0.501683 0.482972 -0.000686
C35   C     C_R   0.441980 0.547334 0.409098 0.098756
C36   C     C_R   0.557431 0.451669 0.590376 0.096967
C37   C     C_R   0.530227 0.610570 0.378142 -0.192076
C38   C     C_R   0.469281 0.388594 0.621440 -0.193090
C39   C     C_R   0.045531 0.442308 0.761354 -0.304803
C40   C     C_R   0.956119 0.558872 0.238674 -0.314193
C41   C     C_R   0.044767 0.436401 0.834609 0.185216
C42   C     C_R   0.955853 0.563714 0.165356 0.184646
C43   C     C_R   0.998675 0.491503 0.855397 -0.037294
C44   C     C_R   0.999169 0.505753 0.144787 -0.017172
C45   C     C_R   0.952999 0.548912 0.802570 -0.286610
C46   C     C_R   0.043322 0.447110 0.197736 -0.294722
C47   C     C_R   0.954892 0.555095 0.729623 0.485245
C48   C     C_R   0.042274 0.442040 0.270641 0.483866
C49   C     C_R   0.999888 0.499817 0.708645 -0.166656
C50   C     C_R   0.999903 0.499793 0.291436 -0.158381
C51   C     C_R   0.999127 0.503298 0.069233 0.426834
C52   C     C_R   0.998501 0.493188 0.931058 0.415176
Cu1   Cu    Cu3+1 0.081740 0.475680 0.518680 0.947434
Cu2   Cu    Cu3+1 0.918260 0.524320 0.481320 0.949976
H1    H     H_    0.080006 0.399382 0.745442 0.163301
H2    H     H_    0.923942 0.603577 0.254891 0.156310
H3    H     H_    0.524216 0.654849 0.325080 0.143876
H4    H     H_    0.475399 0.344514 0.674570 0.143650
H5    H     H_    0.279707 0.547018 0.463964 0.126692
H6    H     H_    0.719626 0.451852 0.535419 0.126810
H7    H     H_    0.143736 0.331524 0.635903 0.144963
H8    H     H_    0.856867 0.669748 0.364754 0.144265
H9    H     H_    0.703122 0.706269 0.320930 0.136703
H10   H     H_    0.297083 0.294337 0.679395 0.136614
H11   H     H_    0.917619 0.591418 0.817967 0.164406
H12   H     H_    0.076772 0.402752 0.182451 0.163894
H13   H     H_    0.635274 0.840274 0.590135 0.186364
H14   H     H_    0.366196 0.160965 0.415805 0.186141
H15   H     H_    0.460622 0.795137 0.538137 0.172298
H16   H     H_    0.541446 0.206881 0.468625 0.147385
N1    N     N_R   0.913605 0.485809 0.953018 -0.245686
N2    N     N_R   0.084062 0.510694 0.047282 -0.246907
N3    N     N_R   0.913778 0.490091 0.021035 -0.249997
N4    N     N_R   0.083931 0.506444 0.979251 -0.240283
N5    N     N_R   0.795420 0.560800 0.453240 -0.177226
N6    N     N_R   0.204580 0.439200 0.546760 -0.177789
O1    O     O_R   0.977910 0.338110 0.524620 -0.530482
O2    O     O_R   0.022090 0.661890 0.475380 -0.540005
O3    O     O_R   0.839850 0.379180 0.493080 -0.601789
O4    O     O_R   0.160150 0.620820 0.506920 -0.587759
O5    O     O_R   0.069040 0.479450 0.615630 -0.610492
O6    O     O_R   0.930960 0.520550 0.384370 -0.604380
O7    O     O_R   0.930990 0.520520 0.584090 -0.538676
O8    O     O_R   0.069010 0.479480 0.415910 -0.539750
C53   C     C_3   0.341718 0.520158 0.358705 -0.387935
C54   C     C_3   0.345614 0.482426 0.292339 -0.785548
H17   H     H_    0.395447 0.544860 0.255826 0.233603
H18   H     H_    0.373370 0.419706 0.308808 0.248770
H19   H     H_    0.268322 0.453227 0.261746 0.263734
H20   H     H_    0.279925 0.456336 0.385097 0.253077
H21   H     H_    0.320847 0.587437 0.341232 0.196113
C55   C     C_3   0.657635 0.479316 0.640780 -0.385607
C56   C     C_3   0.653439 0.517539 0.706838 -0.786436
H22   H     H_    0.625449 0.580088 0.689996 0.248024
H23   H     H_    0.603653 0.455280 0.743468 0.233059
H24   H     H_    0.730632 0.547108 0.737481 0.264385
H25   H     H_    0.678722 0.412189 0.658587 0.195759
H26   H     H_    0.719304 0.543041 0.614237 0.253315
C57   C     C_3   0.088362 0.366054 0.887673 -0.396509
C58   C     C_3   0.204115 0.414701 0.899648 -0.798338
H27   H     H_    0.234746 0.429899 0.848525 0.239934
H28   H     H_    0.230642 0.487313 0.920410 0.269071
H29   H     H_    0.234002 0.362300 0.939537 0.235256
H30   H     H_    0.059144 0.343921 0.939991 0.211769
H31   H     H_    0.063850 0.293829 0.866649 0.183077
C59   C     C_3   0.913259 0.634766 0.111797 -0.393947
C60   C     C_3   0.997163 0.727589 0.077502 -0.821987
H32   H     H_    0.053892 0.768700 0.119803 0.243995
H33   H     H_    0.035915 0.705176 0.045227 0.261206
H34   H     H_    0.963787 0.780020 0.041318 0.236729
H35   H     H_    0.855472 0.594308 0.069901 0.221848
H36   H     H_    0.872952 0.662925 0.138847 0.187061
O9    O     O_3   0.909820 0.613059 0.679179 -0.588674
C61   C     C_3   0.981986 0.713709 0.667689 -0.269995
H37   H     H_    0.006998 0.748113 0.717648 0.152166
H38   H     H_    0.048568 0.717445 0.646696 0.137371
H39   H     H_    0.946174 0.760003 0.626551 0.212613
O10   O     O_3   0.085273 0.382366 0.321226 -0.586879
C62   C     C_3   0.010596 0.283098 0.333273 -0.265946
H40   H     H_    0.044529 0.235588 0.374850 0.212774
H41   H     H_    0.984189 0.247848 0.283634 0.151722
H42   H     H_    0.945080 0.282375 0.353930 0.142021
C63   C     C_3   0.299828 0.785657 0.596686 -0.344129
C64   C     C_3   0.319899 0.687340 0.617600 -0.767361
H43   H     H_    0.329915 0.662339 0.571037 0.256269
H44   H     H_    0.389627 0.698689 0.657364 0.214616
H45   H     H_    0.255977 0.624910 0.643265 0.257570
H46   H     H_    0.361828 0.844697 0.625865 0.198539
H47   H     H_    0.230552 0.772453 0.618735 0.172287
C65   C     C_3   0.700342 0.223169 0.407084 -0.317579
C66   C     C_3   0.657376 0.148346 0.353496 -0.842392
H48   H     H_    0.659761 0.191189 0.297795 0.233496
H49   H     H_    0.703484 0.101945 0.361878 0.255274
H50   H     H_    0.577291 0.097247 0.358892 0.260751
H51   H     H_    0.653703 0.268294 0.399664 0.195629
H52   H     H_    0.774285 0.278755 0.390266 0.193238
O11   O     O_3   0.064388 0.837651 0.382297 -0.532137
C67   C     C_3   0.067646 0.797980 0.323387 -0.316553
H53   H     H_    0.996633 0.788292 0.285432 0.173571
H54   H     H_    0.072235 0.722257 0.341087 0.151730
H55   H     H_    0.132196 0.849456 0.293304 0.132647
O12   O     O_3   0.938572 0.163526 0.618924 -0.530160
C68   C     C_3   0.935595 0.203289 0.677873 -0.326973
H56   H     H_    0.930615 0.278828 0.660130 0.153060
H57   H     H_    0.006882 0.213373 0.715576 0.171460
H58   H     H_    0.871394 0.151718 0.708253 0.132182
O13   O     O_3   0.814923 0.958829 0.628035 -0.546343
C69   C     C_3   0.793134 0.934651 0.699378 -0.323421
H59   H     H_    0.721360 0.940061 0.704568 0.131240
H60   H     H_    0.857635 0.983838 0.733658 0.186468
H61   H     H_    0.785139 0.854946 0.720614 0.184562
O14   O     O_3   0.187718 0.042020 0.374741 -0.546013
C70   C     C_3   0.211486 0.067981 0.303840 -0.319686
H62   H     H_    0.149147 0.017872 0.268888 0.185019
H63   H     H_    0.285099 0.065597 0.299675 0.132453
H64   H     H_    0.217065 0.146985 0.282637 0.185779

loop_
_geom_bond_atom_site_label_1
_geom_bond_atom_site_label_2
_ccdc_geom_bond_type
C18   H16   S    
C68   H58   S    
C17   H15   S    
C56   H22   S    
C5    O13   S    
C27   C29   A    
C1    O1    A    
C15   C18   A    
C2    C4    S    
O13   C69   S    
C69   H61   S    
C4    C8    A    
C66   H50   S    
C61   H37   S    
C53   H21   S    
C55   H26   S    
C63   C64   S    
C39   C41   A    
C59   H36   S    
Cu1   Cu2   S    
C21   C31   A    
C22   C32   A    
Cu1   O8    S    
C2    O2    A    
C64   H44   S    
C35   C37   A    
C26   H7    S    
C69   H60   S    
C46   H12   S    
C3    C7    A    
C27   H6    S    
C47   O9    S    
C54   H18   S    
C43   C52   S    
C23   C49   S    
C59   C60   S    
C68   H56   S    
C29   C33   A    
C11   C13   A    
C33   C36   A    
Cu1   O5    S    
C34   C35   A    
C45   C47   A    
C24   O6    A    
O10   C62   S    
C55   C56   S    
C17   C19   A    
C38   H4    S    
C11   C15   A    
C39   H1    S    
C12   C16   A    
C16   C17   A    
C40   H2    S    
C26   N6    A    
C60   H32   S    
C41   C57   S    
C19   H13   S    
C32   C38   A    
C70   H63   S    
C41   C43   A    
C5    C13   A    
C6    O14   S    
C36   C55   S    
C40   C42   A    
C57   H30   S    
C56   H23   S    
C63   H47   S    
C60   H33   S    
C42   C44   A    
C27   N5    A    
C10   C12   A    
Cu2   O7    S    
C44   C46   A    
C55   H25   S    
C59   H35   S    
C62   H41   S    
C24   C50   S    
C57   H31   S    
C46   C48   A    
C30   C34   A    
C14   C20   A    
Cu1   O4    S    
C69   H59   S    
N2    N4    A    
C10   C63   S    
N1    N3    A    
C13   C19   A    
C54   H17   S    
C6    C8    A    
C53   C54   S    
C67   H55   S    
C58   H29   S    
C31   C37   A    
C48   O10   S    
C8    O11   S    
C1    C3    S    
Cu1   O1    S    
C3    C9    A    
C6    C14   A    
C43   C45   A    
C57   C58   S    
C62   H40   S    
C58   H28   S    
C33   C34   A    
C70   H64   S    
C9    C11   A    
C23   O7    A    
C64   H45   S    
C44   C51   S    
C39   C49   A    
C65   H51   S    
C12   C14   A    
C56   H24   S    
C45   H11   S    
C1    O3    A    
C60   H34   S    
Cu1   N6    S    
C51   N2    A    
C4    C10   A    
C66   H48   S    
C28   N6    A    
Cu2   O6    S    
C5    C7    A    
O9    C61   S    
C28   H5    S    
C68   H57   S    
C21   C25   A    
C23   O5    A    
C20   H14   S    
C65   H52   S    
C51   N3    A    
C66   H49   S    
C54   H19   S    
C61   H38   S    
C53   H20   S    
C67   H54   S    
C47   C49   A    
O11   C67   S    
C52   N4    A    
C28   C30   A    
C65   C66   S    
C24   O8    A    
C29   C31   A    
C52   N1    A    
C36   C38   A    
C30   C32   A    
C35   C53   S    
C63   H46   S    
C40   C50   A    
C48   C50   A    
C58   H27   S    
C62   H42   S    
C18   C20   A    
C25   H8    S    
C21   H9    S    
C61   H39   S    
C2    O4    A    
C67   H53   S    
Cu2   O3    S    
C22   H10   S    
Cu2   N5    S    
C42   C59   S    
C9    C65   S    
O14   C70   S    
C22   C26   A    
O12   C68   S    
C25   N5    A    
C70   H62   S    
C7    O12   S    
C37   H3    S    
C15   C16   A    
C64   H43   S    
Cu2   O2    S    
