data_mof_unit_pretest_51.cif
_audit_creation_date              2012-12-10T17:00:42-0500
_audit_creation_method            fapswitch 2.2
_symmetry_space_group_name_H-M    P1
_symmetry_Int_Tables_number       1
_space_group_crystal_system       triclinic
_cell_length_a                    27.78737
_cell_length_b                    11.022537
_cell_length_c                    9.758781
_cell_angle_alpha                 89.906818
_cell_angle_beta                  90.588455
_cell_angle_gamma                 92.124367
_cell_volume                      2986.77669038

loop_
_atom_site_label
_atom_site_type_symbol
_atom_type_description
_atom_site_fract_x
_atom_site_fract_y
_atom_site_fract_z
_atom_type_partial_charge
C1    C     C_R   0.499138 0.265660 0.501020 0.792408
C2    C     C_R   0.277111 0.420864 0.403668 -0.134402
C3    C     C_R   0.253139 0.480630 0.507894 0.284108
C4    C     C_R   0.101082 0.464839 0.516991 -0.123806
C5    C     C_R   0.126918 0.357607 0.535434 -0.101660
C6    C     C_R   0.101583 0.245266 0.555661 0.486250
C7    C     C_R   0.126082 0.576715 0.489336 -0.034099
C8    C     C_R   0.354455 0.490143 0.499371 -0.082555
C9    C     C_R   0.645518 0.484478 0.505169 -0.295190
C10   C     C_R   0.973332 0.343464 0.522608 0.082876
C11   C     C_R   0.974690 0.565170 0.549522 -0.078671
C12   C     C_R   0.407573 0.496665 0.499454 0.800837
C13   C     C_R   0.948584 0.452583 0.536959 0.021698
C14   C     C_R   0.946112 0.235025 0.497442 -0.241917
C15   C     C_R   0.895839 0.232688 0.489379 -0.028417
C16   C     C_R   0.870637 0.340635 0.509492 -0.075504
C17   C     C_R   0.897498 0.449686 0.537650 -0.062075
C18   C     C_R   0.873301 0.556720 0.565678 -0.099271
C19   C     C_R   0.823003 0.554061 0.565517 0.593646
C20   C     C_R   0.819706 0.345519 0.500310 0.602898
C21   C     C_R   0.716655 0.398255 0.613381 0.379353
C22   C     C_R   0.665930 0.402426 0.599111 0.237340
C23   C     C_R   0.498407 0.733685 0.498967 0.815173
C24   C     C_R   0.675546 0.551760 0.415096 0.324185
C25   C     C_R   0.725212 0.527174 0.411301 -0.166673
C26   C     C_R   0.745775 0.456526 0.515255 0.137049
C27   C     C_R   0.024533 0.346860 0.532548 -0.000859
C28   C     C_R   0.050073 0.460081 0.524637 0.067172
C29   C     C_R   0.024719 0.568827 0.521982 0.044990
C30   C     C_R   0.050965 0.240999 0.548739 -0.324049
C31   C     C_R   0.099152 0.681676 0.465504 -0.049822
C32   C     C_R   0.949628 0.669236 0.590740 0.431727
C33   C     C_R   0.899580 0.664303 0.594842 -0.208593
C34   C     C_R   0.592522 0.497454 0.501040 0.894807
C35   C     C_R   0.049501 0.676848 0.483843 -0.233487
C36   C     C_2   0.501930 0.935815 0.388642 -0.007729
C37   C     C_2   0.490017 0.862620 0.495226 -0.335154
C38   C     C_2   0.494458 0.066837 0.394762 -0.252478
C39   C     C_2   0.501937 0.134410 0.508179 -0.140649
C40   C     C_2   0.467032 0.442693 0.921304 0.138168
C41   C     C_2   0.462554 0.468817 0.073900 0.056368
C42   C     C_R   0.177730 0.366459 0.534884 0.576226
C43   C     C_R   0.176916 0.578300 0.484296 0.545811
C44   C     C_R   0.279985 0.543530 0.610162 0.022843
C45   C     C_R   0.330253 0.548570 0.604805 -0.245333
C46   C     C_R   0.327396 0.423398 0.399633 -0.055442
Cu1   Cu    Cu3+1 0.500010 0.500020 0.638630 0.995203
Cu2   Cu    Cu3+1 0.499990 0.499980 0.361370 1.022274
H1    H     H_    0.881425 0.746172 0.621716 0.205583
H2    H     H_    0.030065 0.757517 0.459860 0.195012
H3    H     H_    0.471013 0.896963 0.582521 0.171397
H4    H     H_    0.486287 0.111345 0.298205 0.168530
H5    H     H_    0.256234 0.370338 0.326933 0.157937
H6    H     H_    0.427245 0.459117 0.119089 0.098087
H7    H     H_    0.963360 0.150783 0.477379 0.147575
H8    H     H_    0.032894 0.153566 0.559840 0.142388
H9    H     H_    0.350627 0.598257 0.683298 0.166486
N1    N     N_R   0.201284 0.475122 0.509786 -0.471996
N2    N     N_R   0.797377 0.451308 0.527576 -0.412542
N3    N     N_2   0.499480 0.498660 0.846910 -0.014565
N4    N     N_2   0.499460 0.498630 0.153040 0.050189
O1    O     O_R   0.500010 0.321960 0.617040 -0.573987
O2    O     O_2   0.792578 0.246819 0.463185 -0.540309
O3    O     O_2   0.202217 0.681805 0.455369 -0.524943
O4    O     O_2   0.799644 0.653895 0.602253 -0.573079
O5    O     O_R   0.499990 0.321920 0.382900 -0.616878
O6    O     O_R   0.430270 0.500040 0.617060 -0.580399
O7    O     O_R   0.430260 0.500000 0.382910 -0.597432
O8    O     O_R   0.500010 0.678080 0.617100 -0.600323
O9    O     O_R   0.499990 0.678040 0.382960 -0.544172
O10   O     O_R   0.569740 0.500000 0.617090 -0.588679
O11   O     O_R   0.569730 0.499960 0.382940 -0.525374
O12   O     O_2   0.203755 0.267867 0.560615 -0.479432
C47   C     C_1   0.349895 0.349191 0.298594 0.265431
N5    N     N_1   0.367623 0.288606 0.218124 -0.288502
C48   C     C_1   0.256472 0.601467 0.722406 0.290437
N6    N     N_1   0.237570 0.647910 0.812349 -0.274784
C49   C     C_1   0.120285 0.795789 0.417831 0.314032
N7    N     N_1   0.136916 0.887135 0.378871 -0.214183
O13   O     O_3   0.972840 0.777439 0.629177 -0.632881
C50   C     C_3   0.993538 0.766229 0.761610 0.037176
H10   H     H_    0.023845 0.834423 0.769221 0.166579
H11   H     H_    0.009220 0.675929 0.780498 0.143808
C51   C     C_3   0.956947 0.794086 0.872667 -0.353796
H12   H     H_    0.941551 0.884033 0.852006 0.233995
H13   H     H_    0.927160 0.724023 0.871034 0.220786
C52   C     C_3   0.980413 0.795575 0.014805 -0.881996
H14   H     H_    0.995458 0.705818 0.038336 0.258479
H15   H     H_    0.953072 0.815566 0.093008 0.265792
H16   H     H_    0.009743 0.866744 0.020381 0.253555
O14   O     O_3   0.655116 0.643005 0.337435 -0.587435
C53   C     C_3   0.679795 0.758050 0.352015 0.088597
H17   H     H_    0.655805 0.826640 0.307996 0.159520
H18   H     H_    0.711757 0.764159 0.285376 0.166938
C54   C     C_3   0.692284 0.797608 0.501461 -0.447709
H19   H     H_    0.660377 0.837787 0.548608 0.203469
H20   H     H_    0.702112 0.720908 0.568159 0.248092
C55   C     C_3   0.735208 0.888745 0.505680 -0.744811
H21   H     H_    0.768464 0.843351 0.475550 0.296060
H22   H     H_    0.740201 0.924877 0.611226 0.260947
H23   H     H_    0.730310 0.965572 0.434189 0.244667
C56   C     C_1   0.755613 0.572438 0.301762 0.294808
N8    N     N_1   0.780165 0.608186 0.214306 -0.299562
C57   C     C_1   0.523274 0.891843 0.264104 0.298333
N9    N     N_1   0.540407 0.857038 0.164663 -0.271759
C58   C     C_1   0.517282 0.084752 0.639151 0.272596
N10   N     N_1   0.529317 0.045882 0.743810 -0.317180
C59   C     C_1   0.434968 0.351508 0.861180 0.209274
N11   N     N_1   0.409166 0.278064 0.813249 -0.247517
O15   O     O_3   0.514185 0.605726 0.907910 -0.489397
C60   C     C_3   0.558847 0.656296 0.860061 0.279409
H24   H     H_    0.559888 0.753155 0.891625 0.133142
H25   H     H_    0.562813 0.661768 0.750269 0.167023
C61   C     C_3   0.603724 0.600398 0.922251 -0.353492
H26   H     H_    0.604583 0.615051 0.034755 0.281508
H27   H     H_    0.603544 0.502108 0.897824 0.247341
C62   C     C_3   0.649606 0.661100 0.865135 -0.968530
H28   H     H_    0.653068 0.639210 0.754869 0.255001
H29   H     H_    0.681444 0.628133 0.921535 0.272476
H30   H     H_    0.649117 0.761204 0.877735 0.262548
O16   O     O_3   0.543780 0.473410 0.105956 -0.484408
C63   C     C_3   0.548657 0.346200 0.089110 0.136380
H31   H     H_    0.542891 0.322746 0.979464 0.140670
H32   H     H_    0.522515 0.290170 0.149582 0.139592
C64   C     C_3   0.599768 0.311700 0.127000 -0.350908
H33   H     H_    0.626504 0.374648 0.077827 0.218316
H34   H     H_    0.604708 0.319848 0.239041 0.223614
C65   C     C_3   0.609099 0.182301 0.081283 -0.928289
H35   H     H_    0.579572 0.118856 0.114946 0.264003
H36   H     H_    0.643527 0.152523 0.126222 0.257628
H37   H     H_    0.611422 0.178431 0.967808 0.268405
O17   O     O_3   0.127086 0.139140 0.566173 -0.546951
C66   C     C_3   0.109262 0.060755 0.670516 0.050291
H38   H     H_    0.081571 0.996608 0.625649 0.148397
H39   H     H_    0.093305 0.110969 0.757254 0.122429
C67   C     C_3   0.150867 0.988297 0.727785 -0.254429
H40   H     H_    0.170869 0.947591 0.642362 0.263437
H41   H     H_    0.176200 0.050606 0.784941 0.235767
C68   C     C_3   0.132980 0.886894 0.823251 -0.914029
H42   H     H_    0.111063 0.924118 0.906826 0.253870
H43   H     H_    0.164262 0.841555 0.869504 0.288890
H44   H     H_    0.111011 0.818075 0.764803 0.248395
O18   O     O_3   0.635706 0.323339 0.671556 -0.610070
C69   C     C_3   0.640753 0.202723 0.624363 0.056523
H45   H     H_    0.617494 0.142805 0.689016 0.174938
H46   H     H_    0.677928 0.170887 0.639048 0.183734
C70   C     C_3   0.625333 0.187951 0.473586 -0.366065
H47   H     H_    0.590996 0.232959 0.456517 0.217547
H48   H     H_    0.652934 0.232432 0.406770 0.208524
C71   C     C_3   0.619595 0.055622 0.431749 -0.911939
H49   H     H_    0.655463 0.019369 0.417580 0.261105
H50   H     H_    0.600193 0.048508 0.332592 0.264164
H51   H     H_    0.599491 0.000718 0.509095 0.258959
O19   O     O_3   0.739245 0.327585 0.711393 -0.595604
C72   C     C_3   0.721051 0.344965 0.844489 0.083785
H52   H     H_    0.693025 0.273189 0.865982 0.181431
H53   H     H_    0.705371 0.435576 0.858212 0.144405
C73   C     C_3   0.762133 0.333365 0.948504 -0.344302
H54   H     H_    0.782642 0.251235 0.925468 0.239488
H55   H     H_    0.787072 0.414228 0.940375 0.231040
C74   C     C_3   0.743274 0.323227 0.094542 -0.870222
H56   H     H_    0.718675 0.397776 0.116182 0.253977
H57   H     H_    0.773934 0.328427 0.168432 0.279616
H58   H     H_    0.723582 0.234830 0.108896 0.253975
C75   C     C_1   0.871905 0.116231 0.462440 0.338634
N12   N     N_1   0.852991 0.022763 0.440957 -0.267644

loop_
_geom_bond_atom_site_label_1
_geom_bond_atom_site_label_2
_ccdc_geom_bond_type
C10   C27   A    
C39   C58   S    
C21   C26   A    
C24   O14   S    
C75   N12   T    
C40   N3    D    
C66   H38   S    
C50   C51   S    
C72   H53   S    
C11   C13   A    
C23   O8    A    
C54   H19   S    
C51   C52   S    
C41   N4    D    
C52   H14   S    
C1    O1    A    
C42   N1    A    
Cu1   O1    S    
C61   H26   S    
Cu2   N4    S    
C54   C55   S    
C2    C46   A    
C12   O7    A    
C45   H9    S    
C64   H33   S    
C31   C49   S    
C28   C29   A    
C70   H48   S    
C51   H13   S    
C62   H29   S    
C5    C6    A    
C37   H3    S    
C68   H44   S    
C9    C22   A    
C38   H4    S    
C58   N10   T    
C33   H1    S    
O18   C69   S    
C59   N11   T    
N4    O16   S    
C18   C19   A    
C44   C48   S    
O15   C60   S    
Cu1   O8    S    
C43   N1    A    
C4    C28   A    
Cu1   N3    S    
C8    C45   A    
C70   H47   S    
O17   C66   S    
C71   H51   S    
C22   O18   S    
C66   C67   S    
C21   O19   S    
C7    C43   A    
C26   N2    S    
C73   C74   S    
C8    C12   S    
C40   C59   S    
C14   H7    S    
C21   C22   A    
C65   H35   S    
C72   C73   S    
C73   H55   S    
C23   O9    A    
C69   C70   S    
Cu2   O11   S    
C4    C7    A    
Cu1   O6    S    
C57   N9    T    
C74   H57   S    
C43   O3    S    
C74   H56   S    
C48   N6    T    
C12   O6    A    
C3    C44   A    
C72   H52   S    
C7    C31   A    
C47   N5    T    
C70   C71   S    
C24   C25   A    
C67   H41   S    
C10   C14   A    
C62   H30   S    
O14   C53   S    
C49   N7    T    
C16   C17   A    
C19   N2    A    
C25   C26   A    
C23   C37   S    
C30   H8    S    
C10   C13   A    
C53   C54   S    
C50   H10   S    
C67   C68   S    
C32   O13   S    
C69   H46   S    
Cu1   Cu2   S    
C16   C20   A    
C35   H2    S    
C53   H18   S    
C1    O5    A    
O16   C63   S    
C60   H25   S    
C51   H12   S    
C20   N2    A    
Cu1   O10   S    
O19   C72   S    
C6    O17   S    
C40   C41   S    
C6    C30   A    
C11   C32   A    
C55   H22   S    
C52   H15   S    
C73   H54   S    
C31   C35   A    
C63   H32   S    
C65   H37   S    
C34   O11   A    
C46   C47   S    
C74   H58   S    
C44   C45   A    
C5    C42   A    
C66   H39   S    
C36   C37   D    
C42   O12   S    
C60   H24   S    
C71   H49   S    
Cu2   O9    S    
O13   C50   S    
Cu2   O7    S    
C2    H5    S    
C65   H36   S    
C50   H11   S    
C61   H27   S    
C68   H42   S    
C54   H20   S    
C9    C24   A    
C55   H23   S    
C29   C35   A    
C17   C18   A    
C13   C17   A    
C69   H45   S    
C32   C33   A    
C63   C64   S    
C36   C38   S    
C2    C3    A    
C62   H28   S    
C68   H43   S    
C36   C57   S    
C38   C39   D    
C20   O2    S    
C64   C65   S    
C53   H17   S    
C9    C34   S    
C19   O4    S    
C60   C61   S    
C71   H50   S    
C56   N8    T    
C25   C56   S    
C18   C33   A    
C8    C46   A    
C41   H6    S    
C61   C62   S    
N3    O15   S    
C1    C39   S    
C3    N1    S    
C4    C5    A    
C11   C29   A    
C55   H21   S    
C52   H16   S    
C27   C28   A    
C64   H34   S    
C14   C15   A    
C15   C75   S    
Cu2   O5    S    
C63   H31   S    
C34   O10   A    
C67   H40   S    
C15   C16   A    
C27   C30   A    
