data_mof_unit_pretest_1421.cif
_audit_creation_date              2012-10-26T18:47:56-0400
_audit_creation_method            fapswitch 2.2
_symmetry_space_group_name_H-M    P1
_symmetry_Int_Tables_number       1
_space_group_crystal_system       triclinic
_cell_length_a                    15.852891
_cell_length_b                    8.691842
_cell_length_c                    7.452499
_cell_angle_alpha                 103.007537
_cell_angle_beta                  94.083838
_cell_angle_gamma                 92.178275
_cell_volume                      996.45219538

loop_
_atom_site_label
_atom_site_type_symbol
_atom_type_description
_atom_site_fract_x
_atom_site_fract_y
_atom_site_fract_z
_atom_type_partial_charge
Br1   Br    Br    0.090516 0.715027 0.246676 -0.619997
C1    C     C_R   0.497473 0.199734 0.453266 0.547505
C2    C     C_2   0.503682 0.968161 0.572988 -0.150504
C3    C     C_R   0.340334 0.499947 0.502528 0.557561
C4    C     C_R   0.502496 0.800264 0.546735 0.549998
C5    C     C_R   0.659671 0.500112 0.497466 0.547620
C6    C     C_3   0.053220 0.479791 0.688148 -0.247413
C7    C     C_3   0.041962 0.365208 0.345973 -0.201851
C8    C     C_3   0.944163 0.365810 0.340799 -0.215854
C9    C     C_1   0.749170 0.500005 0.492642 -0.028858
C10   C     C_3   0.082930 0.502859 0.501687 0.065903
C11   C     C_3   0.955410 0.479199 0.684469 -0.226632
C12   C     C_3   0.917042 0.501496 0.495354 0.038258
C13   C     C_3   0.953132 0.660761 0.464273 -0.184299
C14   C     C_3   0.051309 0.663080 0.470124 0.057873
C15   C     C_1   0.824771 0.500442 0.492383 -0.075389
C16   C     C_1   0.175270 0.501984 0.506615 -0.015432
C17   C     C_1   0.250867 0.501106 0.507259 0.013214
C18   C     C_2   0.496247 0.031833 0.427013 -0.148520
Cu1   Cu    Cu3+1 0.509300 0.517380 0.684380 0.969052
Cu2   Cu    Cu3+1 0.490700 0.482620 0.315620 0.978408
H1    H     H_    0.930229 0.365430 0.710058 0.126271
H2    H     H_    0.062859 0.375139 0.209497 0.166944
H3    H     H_    0.062788 0.250107 0.370039 0.130050
H4    H     H_    0.918116 0.249924 0.358638 0.124319
H5    H     H_    0.918148 0.380526 0.203286 0.129155
H6    H     H_    0.077923 0.760082 0.587196 0.144747
H7    H     H_    0.933943 0.760307 0.573225 0.103306
H8    H     H_    0.081660 0.576461 0.803440 0.168936
H9    H     H_    0.936934 0.575759 0.797909 0.142754
H10   H     H_    0.925677 0.678828 0.329436 0.160988
H11   H     H_    0.489233 0.960253 0.286325 0.138148
H12   H     H_    0.510691 0.039741 0.713676 0.134909
H13   H     H_    0.434938 0.376750 0.948668 0.243124
H14   H     H_    0.565058 0.623256 0.051334 0.238775
H15   H     H_    0.074927 0.366306 0.715549 0.131959
N1    N     N_2   0.476670 0.456430 0.038530 -0.252113
N2    N     N_2   0.523330 0.543570 0.961470 -0.255036
O1    O     O_R   0.506050 0.286130 0.619770 -0.507921
O2    O     O_R   0.490330 0.256780 0.308370 -0.498044
O3    O     O_R   0.387300 0.514690 0.655770 -0.499840
O4    O     O_R   0.371580 0.485340 0.344370 -0.481764
O5    O     O_R   0.509670 0.743220 0.691630 -0.497478
O6    O     O_R   0.493950 0.713870 0.380230 -0.504160
O7    O     O_R   0.628420 0.514660 0.655630 -0.495850
O8    O     O_R   0.612700 0.485310 0.344230 -0.502821

loop_
_geom_bond_atom_site_label_1
_geom_bond_atom_site_label_2
_ccdc_geom_bond_type
C5    C9    S    
C2    C18   D    
N1    N2    D    
Br1   C14   S    
C5    O7    A    
C1    O2    A    
H13   N1    S    
Cu1   N2    S    
C6    H15   S    
C14   H6    S    
Cu1   O7    S    
C13   H10   S    
C3    C17   S    
H14   N2    S    
C16   C17   T    
C4    O5    A    
C8    H4    S    
C9    C15   T    
C12   C13   S    
C11   C12   S    
C6    C10   S    
Cu2   O2    S    
C3    O4    A    
C7    C10   S    
C6    H8    S    
C18   H11   S    
C7    H3    S    
C4    O6    A    
C8    H5    S    
Cu1   O3    S    
C10   C14   S    
C6    C11   S    
Cu1   O5    S    
C3    O3    A    
C2    H12   S    
Cu2   O4    S    
Cu2   O6    S    
C11   H1    S    
C7    H2    S    
Cu2   N1    S    
Cu1   Cu2   S    
Cu2   O8    S    
C12   C15   S    
Cu1   O1    S    
C8    C12   S    
C13   C14   S    
C10   C16   S    
C5    O8    A    
C13   H7    S    
C1    C18   S    
C11   H9    S    
C1    O1    A    
C7    C8    S    
C2    C4    S    
