data_mof_unit_pretest_810.cif
_audit_creation_date              2012-12-10T17:21:12-0500
_audit_creation_method            fapswitch 2.2
_symmetry_space_group_name_H-M    P1
_symmetry_Int_Tables_number       1
_space_group_crystal_system       triclinic
_cell_length_a                    10.123475
_cell_length_b                    10.671712
_cell_length_c                    10.770716
_cell_angle_alpha                 90.177763
_cell_angle_beta                  96.191158
_cell_angle_gamma                 80.609588
_cell_volume                      1141.19894471

loop_
_atom_site_label
_atom_site_type_symbol
_atom_type_description
_atom_site_fract_x
_atom_site_fract_y
_atom_site_fract_z
_atom_type_partial_charge
C1    C     C_R   0.443159 0.504032 0.266958 0.928313
C2    C     C_3   0.496783 0.878540 0.500265 -0.098102
C3    C     C_3   0.613609 0.907988 0.596885 -0.512301
C4    C     C_3   0.361483 0.951093 0.543863 0.315398
C5    C     C_2   0.410701 0.494241 0.133961 -0.390393
C6    C     C_2   0.508378 0.440900 0.067489 -0.049529
C7    C     C_2   0.590859 0.459416 0.865654 0.126553
C8    C     C_2   0.488793 0.453283 0.933929 -0.170131
C9    C     C_2   0.063801 0.515816 0.473332 0.506486
C10   C     C_2   0.924799 0.513987 0.509357 -0.211884
C11   C     C_R   0.500637 0.257649 0.501957 0.971289
C12   C     C_R   0.557065 0.486206 0.733225 0.897554
C13   C     C_R   0.499023 0.742269 0.499488 0.879835
C14   C     C_3   0.513479 0.069589 0.367990 0.014558
C15   C     C_3   0.523638 0.924013 0.370129 -0.441461
C16   C     C_3   0.622631 0.050354 0.591614 0.152720
C17   C     C_3   0.362028 0.094044 0.543304 0.007574
C18   C     C_3   0.500466 0.121349 0.503627 -0.136878
H1    H     H_    0.366284 0.921730 0.643503 0.172139
H2    H     H_    0.597163 0.879092 0.692464 0.207388
H3    H     H_    0.384684 0.468931 0.891891 0.184513
H4    H     H_    0.606770 0.398260 0.112116 0.237686
H5    H     H_    0.311848 0.535732 0.089642 0.139394
H6    H     H_    0.889691 0.574246 0.584409 0.153527
H7    H     H_    0.878885 0.389898 0.379445 0.222076
H8    H     H_    0.423211 0.112782 0.305485 0.140997
H9    H     H_    0.130236 0.579093 0.638018 0.132759
H10   H     H_    0.455904 0.892457 0.292844 0.147985
H11   H     H_    0.626572 0.878430 0.351821 0.235906
H12   H     H_    0.717046 0.059927 0.551015 0.191967
H13   H     H_    0.712062 0.852679 0.577011 0.199576
H14   H     H_    0.279317 0.141588 0.474797 0.159537
N1    N     N_2   0.157300 0.551950 0.551120 -0.211729
N2    N     N_2   0.842730 0.448000 0.448950 -0.181112
O1    O     O_R   0.568940 0.489540 0.307530 -0.607441
O2    O     O_R   0.348880 0.522880 0.340350 -0.597716
O3    O     O_R   0.610030 0.298130 0.483570 -0.569565
O4    O     O_R   0.389960 0.331470 0.516390 -0.578871
O5    O     O_R   0.651120 0.477120 0.659650 -0.564776
O6    O     O_R   0.431060 0.510460 0.692470 -0.633402
O7    O     O_R   0.610040 0.668530 0.483610 -0.635388
O8    O     O_R   0.389970 0.701870 0.516430 -0.586967
Zn1   Zn    Zn3+2 0.646940 0.477740 0.478080 0.994986
Zn2   Zn    Zn3+2 0.353060 0.522260 0.521920 1.010291
Br1   Br    Br    0.664392 0.113383 0.286422 -0.546914
Br2   Br    Br    0.649061 0.119114 0.759151 -0.416463
Br3   Br    Br    0.777530 0.428983 0.932892 -0.497038
O9    O     O_3   0.092480 0.475290 0.355546 -0.613253
C19   C     C_3   0.057829 0.579388 0.269933 0.103041
H15   H     H_    0.116703 0.555843 0.189638 0.180518
H16   H     H_    0.087389 0.668714 0.309552 0.121764
C20   C     C_3   0.907834 0.600778 0.219406 -0.413214
H17   H     H_    0.878159 0.508767 0.189455 0.272029
H18   H     H_    0.845479 0.640908 0.293157 0.222944
C21   C     C_3   0.877888 0.693524 0.108669 -0.844256
H19   H     H_    0.898946 0.788300 0.138540 0.263884
H20   H     H_    0.769781 0.702977 0.072254 0.285980
H21   H     H_    0.939782 0.659105 0.032538 0.277464
Br4   Br    Br    0.311217 0.164894 0.703657 -0.421003
O10   O     O_3   0.236409 0.917929 0.490249 -0.609204
C22   C     C_3   0.209140 0.934524 0.359305 0.086905
H22   H     H_    0.244607 0.843614 0.313520 0.142826
H23   H     H_    0.255839 0.010594 0.321995 0.123009
C23   C     C_3   0.057345 0.970922 0.324634 -0.338837
H24   H     H_    0.005945 0.891037 0.347843 0.219104
H25   H     H_    0.018341 0.054773 0.379421 0.261850
C24   C     C_3   0.025093 0.004097 0.185592 -0.855929
H26   H     H_    0.066574 0.090548 0.163363 0.282445
H27   H     H_    0.914448 0.023053 0.160515 0.311832
H28   H     H_    0.069085 0.924311 0.128465 0.247156

loop_
_geom_bond_atom_site_label_1
_geom_bond_atom_site_label_2
_ccdc_geom_bond_type
O3    Zn1   S    
C22   C23   S    
C2    C4    S    
C21   H19   S    
C11   C18   S    
C12   O6    A    
C11   O3    A    
C11   O4    A    
O1    Zn1   S    
C9    C10   S    
C14   C18   S    
C5    H5    S    
C20   C21   S    
O6    Zn2   S    
H7    N2    S    
C3    H13   S    
C19   C20   S    
C23   H24   S    
C24   H28   S    
C12   O5    A    
C13   O7    A    
C17   C18   S    
C7    C8    D    
C10   N2    D    
C23   H25   S    
C14   H8    S    
C9    N1    D    
C2    C15   S    
O7    Zn1   S    
C4    O10   S    
C15   H10   S    
C7    C12   S    
C5    C6    D    
O8    Zn2   S    
C17   Br4   S    
C1    C5    S    
C4    C17   S    
C6    C8    S    
C2    C13   S    
O9    C19   S    
C20   H18   S    
O4    Zn2   S    
C15   H11   S    
C14   Br1   S    
C2    C3    S    
C21   H20   S    
C22   H22   S    
N1    Zn2   S    
O2    Zn2   S    
N2    Zn1   S    
C16   H12   S    
C24   H26   S    
C6    H4    S    
C23   C24   S    
C3    H2    S    
C20   H17   S    
C1    O1    A    
C9    O9    S    
C16   C18   S    
C19   H15   S    
C21   H21   S    
C16   Br2   S    
C22   H23   S    
C17   H14   S    
C14   C15   S    
C13   O8    A    
O5    Zn1   S    
C10   H6    S    
C4    H1    S    
H9    N1    S    
C3    C16   S    
C19   H16   S    
C1    O2    A    
C7    Br3   S    
O10   C22   S    
C24   H27   S    
C8    H3    S    
