data_mof_unit_pretest_1590.cif
_audit_creation_date              2012-12-10T20:16:10-0500
_audit_creation_method            fapswitch 2.2
_symmetry_space_group_name_H-M    P1
_symmetry_Int_Tables_number       1
_space_group_crystal_system       triclinic
_cell_length_a                    35.56238
_cell_length_b                    35.543726
_cell_length_c                    30.044341
_cell_angle_alpha                 90.000027
_cell_angle_beta                  90.000021
_cell_angle_gamma                 90.167787
_cell_volume                      37976.4697684

loop_
_atom_site_label
_atom_site_type_symbol
_atom_type_description
_atom_site_fract_x
_atom_site_fract_y
_atom_site_fract_z
_atom_type_partial_charge
C1    C     C_R   0.999945 0.426813 0.499874 1.031873
C2    C     C_R   0.114814 0.000645 0.500115 -0.262852
C3    C     C_R   0.500000 0.000000 0.586786 0.926946
C4    C     C_R   0.500000 0.000000 0.913226 0.928227
C5    C     C_R   0.000000 0.500000 0.913218 0.927496
C6    C     C_R   0.500000 0.000000 0.086777 0.926437
C7    C     C_R   1.000000 0.500000 0.086786 0.926946
C8    C     C_R   0.023283 0.474949 0.157319 -0.193235
C9    C     C_R   0.474965 0.976555 0.157305 -0.193280
C10   C     C_R   0.976716 0.525050 0.157319 -0.193235
C11   C     C_R   0.525035 0.023445 0.157305 -0.193281
C12   C     C_R   0.023522 0.524964 0.842696 -0.192474
C13   C     C_R   0.001125 0.885279 0.500133 -0.239194
C14   C     C_R   0.475196 0.023545 0.842708 -0.191793
C15   C     C_R   0.976478 0.475036 0.842696 -0.192473
C16   C     C_R   0.524804 0.976455 0.842708 -0.191793
C17   C     C_R   0.523283 0.974950 0.657319 -0.193235
C18   C     C_R   0.974965 0.476555 0.657305 -0.193280
C19   C     C_R   0.476717 0.025050 0.657319 -0.193235
C20   C     C_R   0.025035 0.523445 0.657305 -0.193280
C21   C     C_R   0.523522 0.024964 0.342697 -0.192474
C22   C     C_R   0.975196 0.523545 0.342708 -0.191793
C23   C     C_R   0.476478 0.975036 0.342696 -0.192473
C24   C     C_R   0.885185 0.999355 0.500115 -0.262852
C25   C     C_R   0.024804 0.476455 0.342708 -0.191793
C26   C     C_R   1.000000 0.500000 0.134582 -0.038224
C27   C     C_R   0.500000 1.000000 0.134570 -0.038509
C28   C     C_R   0.000000 0.500000 0.865429 -0.037542
C29   C     C_R   0.500000 0.000000 0.865440 -0.037048
C30   C     C_R   0.500000 0.000000 0.634582 -0.038224
C31   C     C_R   1.000000 0.500000 0.634570 -0.038509
C32   C     C_R   0.500000 1.000000 0.365429 -0.037542
C33   C     C_R   1.000000 0.500000 0.365440 -0.037048
C34   C     C_R   0.976119 0.524867 0.203537 0.113711
C35   C     C_R   0.498875 0.614721 0.000133 -0.239195
C36   C     C_R   0.524849 0.024044 0.203524 0.113662
C37   C     C_R   0.023881 0.475133 0.203537 0.113711
C38   C     C_R   0.475151 0.975956 0.203524 0.113662
C39   C     C_R   0.975879 0.475224 0.796478 0.113677
C40   C     C_R   0.524613 0.975858 0.796490 0.113604
C41   C     C_R   0.024121 0.524776 0.796478 0.113677
C42   C     C_R   0.475387 0.024142 0.796490 0.113604
C43   C     C_R   0.476119 0.024867 0.703537 0.113711
C44   C     C_R   0.024849 0.524044 0.703524 0.113662
C45   C     C_R   0.523881 0.975133 0.703537 0.113711
C46   C     C_R   0.614815 0.500645 0.000115 -0.262852
C47   C     C_R   0.975151 0.475956 0.703524 0.113662
C48   C     C_R   0.475879 0.975224 0.296478 0.113677
C49   C     C_R   0.024613 0.475858 0.296490 0.113604
C50   C     C_R   0.524121 0.024776 0.296478 0.113677
C51   C     C_R   0.975387 0.524142 0.296490 0.113604
C52   C     C_R   1.000000 0.500000 0.226777 0.064557
C53   C     C_R   0.500000 1.000000 0.226764 0.064373
C54   C     C_R   1.000000 0.500000 0.773238 0.064206
C55   C     C_R   0.500000 0.000000 0.773251 0.064129
C56   C     C_R   0.500000 0.000000 0.726777 0.064557
C57   C     C_R   0.501125 0.385279 0.000133 -0.239195
C58   C     C_R   0.000000 0.500000 0.726764 0.064373
C59   C     C_R   0.500000 1.000000 0.273238 0.064206
C60   C     C_R   0.000000 0.500000 0.273251 0.064129
C61   C     C_R   0.952060 0.548985 0.226847 -0.171692
C62   C     C_R   0.548948 0.048264 0.226834 -0.171503
C63   C     C_R   0.047940 0.451015 0.226847 -0.171693
C64   C     C_R   0.451052 0.951735 0.226834 -0.171504
C65   C     C_R   0.951584 0.451202 0.773168 -0.171211
C66   C     C_R   0.548474 0.951543 0.773181 -0.170948
C67   C     C_R   0.048416 0.548798 0.773168 -0.171211
C68   C     C_R   0.385185 0.499355 0.000115 -0.262852
C69   C     C_R   0.451526 0.048457 0.773181 -0.170948
C70   C     C_R   0.452060 0.048985 0.726847 -0.171692
C71   C     C_R   0.048947 0.548264 0.726834 -0.171503
C72   C     C_R   0.547940 0.951015 0.726847 -0.171693
C73   C     C_R   0.951053 0.451735 0.726834 -0.171504
C74   C     C_R   0.451584 0.951202 0.273168 -0.171211
C75   C     C_R   0.048474 0.451543 0.273181 -0.170949
C76   C     C_R   0.548416 0.048798 0.273168 -0.171211
C77   C     C_R   0.951526 0.548457 0.273181 -0.170948
C78   C     C_R   0.017068 0.174713 0.533375 0.163594
C79   C     C_R   0.998328 0.193632 0.498922 -0.079452
C80   C     C_R   0.174371 0.981527 0.533682 0.166830
C81   C     C_R   0.982932 0.825287 0.533375 0.163593
C82   C     C_R   0.825629 0.018473 0.533682 0.166830
C83   C     C_R   0.020399 0.826338 0.465119 0.126630
C84   C     C_R   0.174330 0.019608 0.465986 0.165531
C85   C     C_R   0.979601 0.173662 0.465119 0.126629
C86   C     C_R   0.825670 0.980392 0.465986 0.165532
C87   C     C_R   0.517068 0.674713 0.033375 0.163594
C88   C     C_R   0.674371 0.481527 0.033682 0.166830
C89   C     C_R   0.482932 0.325287 0.033375 0.163593
C90   C     C_R   0.193792 0.000307 0.499581 -0.104011
C91   C     C_R   0.325629 0.518473 0.033682 0.166830
C92   C     C_R   0.520399 0.326338 0.965119 0.126629
C93   C     C_R   0.674330 0.519608 0.965986 0.165532
C94   C     C_R   0.479601 0.673662 0.965119 0.126630
C95   C     C_R   0.325670 0.480392 0.965986 0.165532
C96   C     C_R   0.017547 0.135396 0.534057 0.133682
C97   C     C_R   0.135031 0.981541 0.534085 0.146049
C98   C     C_R   0.982453 0.864604 0.534057 0.133682
C99   C     C_R   0.864969 0.018459 0.534084 0.146050
C100  C     C_R   0.020362 0.865919 0.465634 0.151622
C101  C     C_R   0.001672 0.806368 0.498922 -0.079452
C102  C     C_R   0.134956 0.020169 0.466251 0.142131
C103  C     C_R   0.979638 0.134081 0.465634 0.151621
C104  C     C_R   0.865044 0.979831 0.466251 0.142130
C105  C     C_R   0.517547 0.635396 0.034057 0.133681
C106  C     C_R   0.635031 0.481541 0.034085 0.146049
C107  C     C_R   0.482453 0.364604 0.034057 0.133682
C108  C     C_R   0.364969 0.518459 0.034085 0.146050
C109  C     C_R   0.520362 0.365919 0.965634 0.151622
C110  C     C_R   0.634956 0.520169 0.966251 0.142130
C111  C     C_R   0.479638 0.634081 0.965634 0.151621
C112  C     C_R   0.426816 0.999946 0.499959 1.031928
C113  C     C_R   0.806208 0.999693 0.499581 -0.104011
C114  C     C_R   0.365044 0.479831 0.966251 0.142130
C115  C     C_3   0.072839 0.206816 0.559717 -0.629362
C116  C     C_3   0.205613 0.925299 0.559567 -0.633387
C117  C     C_3   0.927161 0.793184 0.559717 -0.629361
C118  C     C_3   0.794387 0.074701 0.559567 -0.633386
C119  C     C_3   0.076053 0.793380 0.440328 -0.654968
C120  C     C_3   0.207748 0.074773 0.439885 -0.627151
C121  C     C_3   0.923947 0.206620 0.440328 -0.654966
C122  C     C_3   0.792252 0.925227 0.439885 -0.627151
C123  C     C_3   0.572839 0.706816 0.059717 -0.629361
C124  C     C_R   0.498328 0.693632 0.998922 -0.079452
C125  C     C_3   0.705613 0.425299 0.059567 -0.633387
C126  C     C_3   0.427161 0.293184 0.059717 -0.629363
C127  C     C_3   0.294387 0.574701 0.059567 -0.633387
C128  C     C_3   0.576053 0.293380 0.940328 -0.654967
C129  C     C_3   0.707748 0.574773 0.939885 -0.627151
C130  C     C_3   0.423947 0.706620 0.940328 -0.654968
C131  C     C_3   0.292252 0.425227 0.939885 -0.627152
C132  C     C_3   0.074160 0.102914 0.559250 -0.751752
C133  C     C_3   0.102295 0.925136 0.560561 -0.749714
C134  C     C_3   0.925840 0.897086 0.559250 -0.751749
C135  C     C_R   0.693792 0.500307 0.999581 -0.104011
C136  C     C_3   0.897705 0.074864 0.560561 -0.749715
C137  C     C_3   0.074394 0.902769 0.441322 -0.718454
C138  C     C_3   0.100083 0.075851 0.443578 -0.722562
C139  C     C_3   0.925606 0.097231 0.441322 -0.718452
C140  C     C_3   0.899917 0.924148 0.443578 -0.722564
C141  C     C_3   0.574160 0.602914 0.059250 -0.751751
C142  C     C_3   0.602295 0.425135 0.060561 -0.749715
C143  C     C_3   0.425840 0.397086 0.059250 -0.751751
C144  C     C_3   0.397705 0.574865 0.060561 -0.749716
C145  C     C_3   0.574394 0.402769 0.941322 -0.718453
C146  C     C_R   0.501672 0.306368 0.998922 -0.079452
C147  C     C_3   0.600083 0.575852 0.943578 -0.722563
C148  C     C_3   0.425606 0.597231 0.941322 -0.718452
C149  C     C_3   0.399917 0.424148 0.943578 -0.722563
C150  C     C_R   0.306208 0.499693 0.999581 -0.104011
C151  C     C_1   0.998530 0.233820 0.498283 -0.001520
C152  C     C_1   0.233946 0.999884 0.499193 -0.004372
C153  C     C_1   0.001469 0.766180 0.498283 -0.001520
C154  C     C_1   0.766054 0.000116 0.499193 -0.004372
C155  C     C_1   0.498530 0.733820 0.998283 -0.001520
C156  C     C_R   0.000055 0.573187 0.499874 1.031872
C157  C     C_1   0.733946 0.499884 0.999193 -0.004372
C158  C     C_1   0.501469 0.266180 0.998283 -0.001520
C159  C     C_1   0.266054 0.500116 0.999193 -0.004372
C160  C     C_1   0.998852 0.267431 0.498203 0.163763
C161  C     C_1   0.267532 0.999622 0.499067 0.166463
C162  C     C_1   0.001148 0.732569 0.498203 0.163763
C163  C     C_1   0.732468 0.000378 0.499067 0.166463
C164  C     C_1   0.498852 0.767431 0.998203 0.163763
C165  C     C_1   0.767532 0.499621 0.999067 0.166463
C166  C     C_1   0.501148 0.232569 0.998203 0.163763
C167  C     C_R   0.573183 0.000054 0.499959 1.031927
C168  C     C_1   0.232468 0.500379 0.999066 0.166463
C169  C     C_R   0.015618 0.326695 0.534562 0.342223
C170  C     C_R   0.326918 0.983150 0.535008 0.342473
C171  C     C_R   0.984382 0.673305 0.534562 0.342223
C172  C     C_R   0.673082 0.016850 0.535008 0.342473
C173  C     C_R   0.016730 0.672658 0.462813 0.342876
C174  C     C_R   0.327232 0.015867 0.463477 0.342274
C175  C     C_R   0.983270 0.327342 0.462813 0.342876
C176  C     C_R   0.672768 0.984133 0.463477 0.342274
C177  C     C_R   0.515618 0.826695 0.034562 0.342223
C178  C     C_R   0.499945 0.926813 0.999873 1.031873
C179  C     C_R   0.826918 0.483150 0.035008 0.342473
C180  C     C_R   0.484382 0.173305 0.034562 0.342223
C181  C     C_R   0.173082 0.516850 0.035008 0.342472
C182  C     C_R   0.516730 0.172658 0.962813 0.342876
C183  C     C_R   0.827232 0.515867 0.963477 0.342274
C184  C     C_R   0.483270 0.827342 0.962813 0.342876
C185  C     C_R   0.172768 0.484133 0.963477 0.342274
C186  C     C_R   0.015905 0.366036 0.535017 0.291153
C187  C     C_R   0.366241 0.983290 0.535316 0.290674
C188  C     C_R   0.984095 0.633964 0.535017 0.291153
C189  C     C_R   0.926816 0.499946 0.999959 1.031928
C190  C     C_R   0.633759 0.016710 0.535316 0.290674
C191  C     C_R   0.016503 0.633308 0.463223 0.289525
C192  C     C_R   0.366557 0.016059 0.463730 0.290351
C193  C     C_R   0.983497 0.366692 0.463223 0.289525
C194  C     C_R   0.633443 0.983941 0.463730 0.290352
C195  C     C_R   0.515905 0.866036 0.035017 0.291153
C196  C     C_R   0.866241 0.483290 0.035316 0.290674
C197  C     C_R   0.484095 0.133964 0.035017 0.291151
C198  C     C_R   0.133759 0.516710 0.035316 0.290675
C199  C     C_R   0.516503 0.133308 0.963223 0.289525
C200  C     C_R   0.500055 0.073187 0.999873 1.031872
C201  C     C_R   0.866557 0.516059 0.963730 0.290351
C202  C     C_R   0.483497 0.866692 0.963223 0.289525
C203  C     C_R   0.133443 0.483941 0.963730 0.290352
C204  C     C_R   0.999795 0.385925 0.499364 -0.361723
C205  C     C_R   0.385950 0.999797 0.499689 -0.362080
C206  C     C_R   0.000205 0.614075 0.499364 -0.361723
C207  C     C_R   0.614050 0.000203 0.499689 -0.362080
C208  C     C_R   0.499795 0.885925 0.999364 -0.361723
C209  C     C_R   0.885950 0.499797 0.999689 -0.362080
C210  C     C_R   0.500205 0.114075 0.999364 -0.361722
C211  C     C_R   0.073183 0.500054 0.999959 1.031927
C212  C     C_R   0.114050 0.500203 0.999689 -0.362080
C213  C     C_R   0.999289 0.307553 0.498490 -0.211179
C214  C     C_R   0.307625 0.999465 0.499129 -0.211586
C215  C     C_R   0.000711 0.692447 0.498490 -0.211178
C216  C     C_R   0.692375 0.000535 0.499129 -0.211586
C217  C     C_R   0.499289 0.807553 0.998490 -0.211179
C218  C     C_R   0.807625 0.499465 0.999129 -0.211586
C219  C     C_R   0.500711 0.192447 0.998490 -0.211178
C220  C     C_R   0.192375 0.500535 0.999129 -0.211586
C221  C     C_R   0.073292 0.000098 0.500023 0.898745
C222  C     C_R   0.998875 0.114721 0.500133 -0.239195
C223  C     C_R   0.999984 0.926743 0.500054 0.907150
C224  C     C_R   0.926707 0.999902 0.500023 0.898744
C225  C     C_R   0.000016 0.073257 0.500054 0.907151
C226  C     C_R   0.573292 0.500098 0.000023 0.898744
C227  C     C_R   0.499984 0.426743 0.000054 0.907150
C228  C     C_R   0.426707 0.499902 0.000023 0.898745
C229  C     C_R   0.500016 0.573257 0.000054 0.907151
C230  C     C_R   0.000000 0.500000 0.413226 0.928227
C231  C     C_R   0.500000 0.000000 0.413218 0.927496
C232  C     C_R   1.000000 0.500000 0.586777 0.926437
Cl1   Cl    Cl    0.035517 0.301459 0.579449 -0.545115
Cl2   Cl    Cl    0.801871 0.462726 0.079813 -0.542174
Cl3   Cl    Cl    0.464483 0.198541 0.079449 -0.545114
Cl4   Cl    Cl    0.198130 0.537274 0.079813 -0.542174
Cl5   Cl    Cl    0.536965 0.197130 0.917438 -0.538806
Cl6   Cl    Cl    0.802574 0.536050 0.918309 -0.541705
Cl7   Cl    Cl    0.463034 0.802870 0.917438 -0.538805
Cl8   Cl    Cl    0.197426 0.463950 0.918309 -0.541704
Cl9   Cl    Cl    0.035242 0.390336 0.581109 -0.508281
Cl10  Cl    Cl    0.390732 0.963984 0.581195 -0.508417
Cl11  Cl    Cl    0.964758 0.609664 0.581110 -0.508282
Cl12  Cl    Cl    0.301870 0.962726 0.579813 -0.542174
Cl13  Cl    Cl    0.609268 0.036016 0.581195 -0.508417
Cl14  Cl    Cl    0.035498 0.608178 0.417646 -0.510578
Cl15  Cl    Cl    0.391455 0.035512 0.418160 -0.509242
Cl16  Cl    Cl    0.964502 0.391822 0.417646 -0.510577
Cl17  Cl    Cl    0.608545 0.964488 0.418160 -0.509242
Cl18  Cl    Cl    0.535242 0.890336 0.081110 -0.508282
Cl19  Cl    Cl    0.890732 0.463984 0.081195 -0.508417
Cl20  Cl    Cl    0.464758 0.109664 0.081110 -0.508281
Cl21  Cl    Cl    0.109268 0.536016 0.081195 -0.508417
Cl22  Cl    Cl    0.535498 0.108178 0.917646 -0.510578
Cl23  Cl    Cl    0.964483 0.698541 0.579449 -0.545115
Cl24  Cl    Cl    0.891455 0.535512 0.918160 -0.509242
Cl25  Cl    Cl    0.464502 0.891822 0.917646 -0.510577
Cl26  Cl    Cl    0.108545 0.464488 0.918160 -0.509242
Cl27  Cl    Cl    0.698130 0.037274 0.579813 -0.542174
Cl28  Cl    Cl    0.036965 0.697130 0.417438 -0.538806
Cl29  Cl    Cl    0.302574 0.036050 0.418309 -0.541705
Cl30  Cl    Cl    0.963034 0.302870 0.417438 -0.538805
Cl31  Cl    Cl    0.697426 0.963950 0.418309 -0.541704
Cl32  Cl    Cl    0.535517 0.801459 0.079449 -0.545114
H1    H     H_    0.041376 0.455943 0.138950 0.160524
H2    H     H_    0.955971 0.458341 0.638933 0.160612
H3    H     H_    0.072504 0.072425 0.551800 0.243130
H4    H     H_    0.100762 0.978715 0.591022 0.252591
H5    H     H_    0.108106 0.906720 0.589555 0.251403
H6    H     H_    0.115907 0.912604 0.530778 0.224182
H7    H     H_    0.071476 0.926118 0.555218 0.242159
H8    H     H_    0.978772 0.898680 0.590899 0.252676
H9    H     H_    0.907223 0.892994 0.588492 0.250598
H10   H     H_    0.913126 0.882270 0.530357 0.225090
H11   H     H_    0.927496 0.927575 0.551798 0.243128
H12   H     H_    0.899238 0.021285 0.591022 0.252591
H13   H     H_    0.458624 0.044057 0.638950 0.160524
H14   H     H_    0.891894 0.093280 0.589555 0.251403
H15   H     H_    0.884093 0.087396 0.530778 0.224182
H16   H     H_    0.928524 0.073882 0.555218 0.242159
H17   H     H_    0.038509 0.872671 0.400020 0.253073
H18   H     H_    0.084701 0.919544 0.412611 0.238477
H19   H     H_    0.095322 0.880661 0.448966 0.221461
H20   H     H_    0.071894 0.921878 0.470228 0.231506
H21   H     H_    0.100292 0.023896 0.410444 0.252532
H22   H     H_    0.091539 0.091153 0.413023 0.243644
H23   H     H_    0.120621 0.093466 0.462003 0.226443
H24   H     H_    0.044029 0.541659 0.638934 0.160611
H25   H     H_    0.074904 0.071588 0.464631 0.230004
H26   H     H_    0.961491 0.127328 0.400020 0.253072
H27   H     H_    0.915299 0.080456 0.412611 0.238477
H28   H     H_    0.904678 0.119339 0.448966 0.221461
H29   H     H_    0.928106 0.078122 0.470228 0.231505
H30   H     H_    0.899708 0.976104 0.410444 0.252532
H31   H     H_    0.908461 0.908847 0.413023 0.243645
H32   H     H_    0.879379 0.906535 0.462004 0.226444
H33   H     H_    0.925095 0.928412 0.464630 0.230003
H34   H     H_    0.521228 0.601320 0.090899 0.252676
H35   H     H_    0.541794 0.043902 0.361071 0.160488
H36   H     H_    0.592777 0.607006 0.088493 0.250599
H37   H     H_    0.586874 0.617730 0.030357 0.225090
H38   H     H_    0.572504 0.572425 0.051798 0.243129
H39   H     H_    0.600762 0.478715 0.091022 0.252591
H40   H     H_    0.608106 0.406720 0.089555 0.251403
H41   H     H_    0.615907 0.412604 0.030778 0.224182
H42   H     H_    0.571476 0.426118 0.055218 0.242160
H43   H     H_    0.478772 0.398680 0.090899 0.252676
H44   H     H_    0.407223 0.392994 0.088492 0.250599
H45   H     H_    0.413126 0.382270 0.030357 0.225090
H46   H     H_    0.956383 0.541833 0.361083 0.160664
H47   H     H_    0.427496 0.427575 0.051798 0.243129
H48   H     H_    0.399238 0.521285 0.091022 0.252591
H49   H     H_    0.391894 0.593280 0.089555 0.251403
H50   H     H_    0.384093 0.587396 0.030778 0.224182
H51   H     H_    0.428524 0.573882 0.055218 0.242160
H52   H     H_    0.538509 0.372671 0.900020 0.253073
H53   H     H_    0.584701 0.419544 0.912611 0.238477
H54   H     H_    0.595322 0.380661 0.948966 0.221461
H55   H     H_    0.571894 0.421878 0.970228 0.231506
H56   H     H_    0.600292 0.523896 0.910444 0.252532
H57   H     H_    0.458207 0.956098 0.361071 0.160488
H58   H     H_    0.591539 0.591153 0.913023 0.243645
H59   H     H_    0.620621 0.593465 0.962004 0.226443
H60   H     H_    0.574904 0.571588 0.964630 0.230004
H61   H     H_    0.461491 0.627328 0.900020 0.253073
H62   H     H_    0.415299 0.580456 0.912611 0.238477
H63   H     H_    0.404678 0.619339 0.948966 0.221461
H64   H     H_    0.428106 0.578122 0.970228 0.231506
H65   H     H_    0.399708 0.476104 0.910444 0.252532
H66   H     H_    0.408461 0.408847 0.913023 0.243644
H67   H     H_    0.379379 0.406535 0.962004 0.226443
H68   H     H_    0.043617 0.458166 0.361083 0.160664
H69   H     H_    0.425096 0.428412 0.964630 0.230004
H70   H     H_    0.933579 0.568076 0.209252 0.162926
H71   H     H_    0.568024 0.066871 0.209239 0.163057
H72   H     H_    0.066421 0.431924 0.209252 0.162926
H73   H     H_    0.455971 0.958341 0.138933 0.160612
H74   H     H_    0.431976 0.933129 0.209239 0.163057
H75   H     H_    0.932918 0.432183 0.790763 0.163074
H76   H     H_    0.567367 0.932861 0.790776 0.163076
H77   H     H_    0.067082 0.567816 0.790763 0.163074
H78   H     H_    0.432633 0.067139 0.790776 0.163076
H79   H     H_    0.433579 0.068076 0.709252 0.162926
H80   H     H_    0.068024 0.566871 0.709239 0.163057
H81   H     H_    0.566421 0.931924 0.709252 0.162926
H82   H     H_    0.931976 0.433129 0.709239 0.163057
H83   H     H_    0.432918 0.932183 0.290763 0.163074
H84   H     H_    0.958624 0.544057 0.138950 0.160524
H85   H     H_    0.067367 0.432861 0.290776 0.163076
H86   H     H_    0.567082 0.067817 0.290763 0.163074
H87   H     H_    0.932633 0.567139 0.290776 0.163076
H88   H     H_    0.018385 0.216415 0.581454 0.265119
H89   H     H_    0.073507 0.227353 0.531852 0.240709
H90   H     H_    0.090654 0.182316 0.551169 0.231625
H91   H     H_    0.084797 0.220442 0.589827 0.263187
H92   H     H_    0.215695 0.979490 0.582127 0.264834
H93   H     H_    0.226494 0.924822 0.532071 0.241651
H94   H     H_    0.181017 0.907748 0.550259 0.231092
H95   H     H_    0.544029 0.041659 0.138933 0.160611
H96   H     H_    0.218694 0.912888 0.589714 0.262006
H97   H     H_    0.981615 0.783585 0.581454 0.265120
H98   H     H_    0.926493 0.772646 0.531852 0.240709
H99   H     H_    0.909346 0.817683 0.551169 0.231624
H100  H     H_    0.915203 0.779558 0.589827 0.263187
H101  H     H_    0.784305 0.020510 0.582126 0.264834
H102  H     H_    0.773506 0.075177 0.532071 0.241651
H103  H     H_    0.818983 0.092252 0.550259 0.231091
H104  H     H_    0.781306 0.087112 0.589714 0.262006
H105  H     H_    0.022267 0.786433 0.415102 0.268259
H106  H     H_    0.041793 0.543902 0.861071 0.160488
H107  H     H_    0.074637 0.770514 0.465462 0.252865
H108  H     H_    0.093892 0.816475 0.453424 0.224124
H109  H     H_    0.089420 0.782141 0.409719 0.262670
H110  H     H_    0.214446 0.020493 0.416175 0.262826
H111  H     H_    0.229441 0.073973 0.466462 0.242033
H112  H     H_    0.184415 0.093281 0.450551 0.226432
H113  H     H_    0.220537 0.086996 0.409413 0.262045
H114  H     H_    0.977733 0.213566 0.415102 0.268259
H115  H     H_    0.925363 0.229486 0.465462 0.252865
H116  H     H_    0.906108 0.183525 0.453424 0.224124
H117  H     H_    0.456383 0.041834 0.861083 0.160664
H118  H     H_    0.910580 0.217859 0.409719 0.262670
H119  H     H_    0.785554 0.979507 0.416175 0.262826
H120  H     H_    0.770559 0.926026 0.466462 0.242032
H121  H     H_    0.815585 0.906719 0.450550 0.226433
H122  H     H_    0.779463 0.913004 0.409413 0.262045
H123  H     H_    0.518385 0.716415 0.081455 0.265119
H124  H     H_    0.573507 0.727354 0.031852 0.240709
H125  H     H_    0.590654 0.682317 0.051169 0.231624
H126  H     H_    0.584797 0.720442 0.089827 0.263187
H127  H     H_    0.715695 0.479490 0.082127 0.264834
H128  H     H_    0.958206 0.456098 0.861071 0.160488
H129  H     H_    0.726494 0.424822 0.032071 0.241651
H130  H     H_    0.681017 0.407748 0.050259 0.231091
H131  H     H_    0.718694 0.412888 0.089714 0.262006
H132  H     H_    0.481615 0.283585 0.081454 0.265120
H133  H     H_    0.426493 0.272646 0.031852 0.240710
H134  H     H_    0.409345 0.317683 0.051169 0.231625
H135  H     H_    0.415203 0.279558 0.089827 0.263188
H136  H     H_    0.284305 0.520510 0.082127 0.264834
H137  H     H_    0.273506 0.575178 0.032071 0.241651
H138  H     H_    0.318983 0.592252 0.050259 0.231091
H139  H     H_    0.543617 0.958166 0.861083 0.160664
H140  H     H_    0.281306 0.587112 0.089714 0.262006
H141  H     H_    0.522267 0.286433 0.915102 0.268259
H142  H     H_    0.574637 0.270514 0.965462 0.252865
H143  H     H_    0.593892 0.316475 0.953424 0.224123
H144  H     H_    0.589420 0.282141 0.909719 0.262670
H145  H     H_    0.714446 0.520493 0.916175 0.262826
H146  H     H_    0.729441 0.573973 0.966462 0.242032
H147  H     H_    0.684415 0.593281 0.950551 0.226433
H148  H     H_    0.720537 0.586995 0.909413 0.262045
H149  H     H_    0.477733 0.713566 0.915102 0.268259
H150  H     H_    0.541376 0.955943 0.638950 0.160524
H151  H     H_    0.425363 0.729486 0.965462 0.252865
H152  H     H_    0.406108 0.683525 0.953424 0.224124
H153  H     H_    0.410580 0.717858 0.909720 0.262670
H154  H     H_    0.285554 0.479507 0.916175 0.262826
H155  H     H_    0.270559 0.426027 0.966462 0.242032
H156  H     H_    0.315585 0.406719 0.950550 0.226433
H157  H     H_    0.279463 0.413005 0.909413 0.262045
H158  H     H_    0.021228 0.101320 0.590899 0.252676
H159  H     H_    0.092777 0.107007 0.588493 0.250599
H160  H     H_    0.086874 0.117729 0.530357 0.225089
N1    N     N_2   0.034632 0.194976 0.568723 -0.278883
N2    N     N_2   0.694144 0.463494 0.069001 -0.278409
N3    N     N_2   0.465368 0.305024 0.068722 -0.278883
N4    N     N_2   0.305856 0.536506 0.069001 -0.278409
N5    N     N_2   0.538748 0.306878 0.929789 -0.313151
N6    N     N_2   0.694052 0.537271 0.930280 -0.280105
N7    N     N_2   0.461252 0.693122 0.929789 -0.313152
N8    N     N_2   0.305948 0.462729 0.930280 -0.280106
N9    N     N_2   0.037166 0.117422 0.569473 -0.266910
N10   N     N_2   0.116585 0.962509 0.569686 -0.267507
N11   N     N_2   0.962834 0.882578 0.569473 -0.266910
N12   N     N_2   0.194144 0.963494 0.569001 -0.278409
N13   N     N_2   0.883415 0.037491 0.569686 -0.267508
N14   N     N_2   0.038342 0.886157 0.430405 -0.269472
N15   N     N_2   0.116545 0.040127 0.431386 -0.268321
N16   N     N_2   0.961658 0.113843 0.430405 -0.269471
N17   N     N_2   0.883455 0.959873 0.431386 -0.268321
N18   N     N_2   0.537166 0.617422 0.069473 -0.266909
N19   N     N_2   0.616585 0.462508 0.069686 -0.267507
N20   N     N_2   0.462834 0.382578 0.069473 -0.266909
N21   N     N_2   0.383415 0.537491 0.069686 -0.267508
N22   N     N_2   0.538342 0.386157 0.930405 -0.269472
N23   N     N_2   0.965368 0.805024 0.568722 -0.278883
N24   N     N_2   0.616545 0.540127 0.931386 -0.268321
N25   N     N_2   0.461658 0.613843 0.930405 -0.269472
N26   N     N_2   0.383455 0.459873 0.931386 -0.268321
N27   N     N_2   0.805856 0.036506 0.569001 -0.278409
N28   N     N_2   0.038748 0.806878 0.429789 -0.313152
N29   N     N_2   0.194052 0.037271 0.430280 -0.280105
N30   N     N_2   0.961252 0.193122 0.429789 -0.313152
N31   N     N_2   0.805948 0.962729 0.430280 -0.280105
N32   N     N_2   0.534632 0.694976 0.068723 -0.278883
O1    O     O_R   0.968680 0.444530 0.500050 -0.595327
O2    O     O_R   0.944530 0.531320 0.000050 -0.594958
O3    O     O_R   0.531320 0.055470 0.000050 -0.595327
O4    O     O_R   0.055470 0.468680 0.000050 -0.594958
O5    O     O_R   0.468680 0.055470 0.999950 -0.594951
O6    O     O_R   0.944530 0.468680 0.999950 -0.595232
O7    O     O_R   0.531320 0.944530 0.999950 -0.594951
O8    O     O_R   0.055470 0.531320 0.999950 -0.595232
O9    O     O_R   0.968670 0.499990 0.433970 -0.612822
O10   O     O_R   0.499990 0.031330 0.433970 -0.612890
O11   O     O_R   0.031330 0.500010 0.433970 -0.612823
O12   O     O_R   0.444530 0.031320 0.500050 -0.594958
O13   O     O_R   0.500010 0.968670 0.433970 -0.612890
O14   O     O_R   0.968670 0.500010 0.566030 -0.613128
O15   O     O_R   0.499990 0.968670 0.566030 -0.613226
O16   O     O_R   0.031330 0.499990 0.566030 -0.613129
O17   O     O_R   0.500010 0.031330 0.566030 -0.613227
O18   O     O_R   0.468670 0.999990 0.933970 -0.612822
O19   O     O_R   0.999990 0.531330 0.933970 -0.612890
O20   O     O_R   0.531330 0.000010 0.933970 -0.612823
O21   O     O_R   0.000010 0.468670 0.933970 -0.612890
O22   O     O_R   0.468670 0.000010 0.066030 -0.613128
O23   O     O_R   0.031320 0.555470 0.500050 -0.595327
O24   O     O_R   0.999990 0.468670 0.066030 -0.613226
O25   O     O_R   0.531330 0.999990 0.066030 -0.613129
O26   O     O_R   0.000010 0.531330 0.066030 -0.613227
O27   O     O_R   0.055290 0.999950 0.462720 -0.619936
O28   O     O_R   0.999950 0.944710 0.462720 -0.583650
O29   O     O_R   0.944710 0.000050 0.462720 -0.619936
O30   O     O_R   0.000050 0.055290 0.462720 -0.583649
O31   O     O_R   0.055290 0.000050 0.537280 -0.628248
O32   O     O_R   0.999950 0.055290 0.537280 -0.636292
O33   O     O_R   0.944710 0.999950 0.537280 -0.628248
O34   O     O_R   0.555470 0.968680 0.500050 -0.594958
O35   O     O_R   0.000050 0.944710 0.537280 -0.636292
O36   O     O_R   0.555290 0.499950 0.962720 -0.619936
O37   O     O_R   0.499950 0.444710 0.962720 -0.583650
O38   O     O_R   0.444710 0.500050 0.962720 -0.619936
O39   O     O_R   0.500050 0.555290 0.962720 -0.583649
O40   O     O_R   0.555290 0.500050 0.037280 -0.628248
O41   O     O_R   0.499950 0.555290 0.037280 -0.636292
O42   O     O_R   0.444710 0.499950 0.037280 -0.628248
O43   O     O_R   0.500050 0.444710 0.037280 -0.636292
O44   O     O_R   0.968680 0.555470 0.499950 -0.594951
O45   O     O_R   0.444530 0.968680 0.499950 -0.595232
O46   O     O_R   0.031320 0.444530 0.499950 -0.594950
O47   O     O_R   0.555470 0.031320 0.499950 -0.595232
O48   O     O_R   0.468680 0.944530 0.000050 -0.595327
Zn1   Zn    Zn3+2 0.958180 0.500000 0.500000 1.068685
Zn2   Zn    Zn3+2 0.000000 0.000000 0.549780 0.924611
Zn3   Zn    Zn3+2 0.500000 0.500000 0.950220 0.969490
Zn4   Zn    Zn3+2 0.500000 0.500000 0.049780 0.924611
Zn5   Zn    Zn3+2 0.500000 0.041820 0.500000 1.068875
Zn6   Zn    Zn3+2 0.041820 0.500000 0.500000 1.068685
Zn7   Zn    Zn3+2 0.500000 0.958180 0.500000 1.068875
Zn8   Zn    Zn3+2 0.458180 0.000000 0.000000 1.068685
Zn9   Zn    Zn3+2 1.000000 0.541820 0.000000 1.068875
Zn10  Zn    Zn3+2 0.541820 0.000000 0.000000 1.068685
Zn11  Zn    Zn3+2 0.000000 0.458180 0.000000 1.068875
Zn12  Zn    Zn3+2 1.000000 0.000000 0.450220 0.969490

loop_
_geom_bond_atom_site_label_1
_geom_bond_atom_site_label_2
_ccdc_geom_bond_type
C105  N18   S    
C95   N8    S    
C7    O24   A    
O38   Zn3   S    
C8    C26   A    
C131  H155  S    
C224  O33   A    
C18   C47   A    
C139  H27   S    
C130  H152  S    
C41   C67   A    
C141  H37   S    
C138  N15   S    
C158  C166  T    
C49   C60   A    
C111  N25   S    
C50   C59   A    
C4    O18   A    
C187  Cl10  S    
C175  Cl30  S    
C87   C124  A    
C92   C109  A    
C133  H7    S    
C185  Cl8   S    
H154  N8    S    
C94   C111  A    
C20   H24   S    
C201  C209  A    
C36   C53   A    
C20   C44   A    
C141  H36   S    
C66   C72   A    
C45   C56   A    
C78   C96   A    
C178  C208  S    
C170  C187  A    
O19   Zn9   S    
C156  C206  S    
C113  C154  S    
C85   C103  A    
C93   C110  A    
C23   H57   S    
C17   C30   A    
C39   C65   A    
C36   C62   A    
C149  H66   S    
O26   Zn9   S    
C37   C63   A    
C38   C64   A    
C121  N30   S    
C99   N13   S    
C150  C159  S    
C117  H99   S    
C127  H138  S    
C183  C201  A    
C48   C74   A    
C136  H15   S    
C147  H58   S    
C90   C152  S    
C18   H2    S    
C145  H53   S    
C92   C146  A    
C173  C191  A    
C34   C61   A    
C191  C206  A    
C125  N2    S    
C50   C76   A    
C42   C55   A    
C186  Cl9   S    
C143  N20   S    
C11   C27   A    
C40   C55   A    
C64   H74   S    
C118  H102  S    
C181  C220  A    
C232  O14   A    
O17   Zn5   S    
C168  C220  S    
C192  Cl15  S    
C15   C39   A    
C123  H125  S    
C117  H98   S    
C12   C28   A    
C106  N19   S    
O40   Zn4   S    
C83   C100  A    
C46   C110  A    
C116  H93   S    
O36   Zn3   S    
C93   N6    S    
C79   C85   A    
C119  N28   S    
H48   N21   S    
C126  N3    S    
C177  C195  A    
C119  H107  S    
C182  C199  A    
C88   C135  A    
C177  C217  A    
C8    H1    S    
C4    O20   A    
C1    O1    A    
C68   C228  S    
C96   N9    S    
H30   N17   S    
C169  C213  A    
C153  C162  T    
C122  H121  S    
C132  N9    S    
C144  H50   S    
O23   Zn6   S    
C38   C53   A    
C69   C70   A    
O47   Zn5   S    
C88   N2    S    
C123  N32   S    
C129  H147  S    
C223  O28   A    
O37   Zn3   S    
C188  Cl11  S    
C18   C31   A    
C6    O22   A    
C127  N4    S    
C172  C216  A    
C1    C204  S    
C166  C219  S    
C175  C193  A    
C78   N1    S    
O9    Zn1   S    
C74   H83   S    
C135  C157  S    
C120  H111  S    
C80   C97   A    
C84   C102  A    
C192  C205  A    
C231  O13   A    
C128  H143  S    
C5    O21   A    
C147  N24   S    
C3    O17   A    
C86   C104  A    
C178  O7    A    
C148  H63   S    
C81   C101  A    
C145  H55   S    
C194  C207  A    
C142  H42   S    
C7    C26   S    
C223  O35   A    
C130  H153  S    
C173  C215  A    
C17   C45   A    
C112  C205  S    
C138  H25   S    
C145  N22   S    
C129  N6    S    
C39   C54   A    
C2    C102  A    
C232  O16   A    
C115  H90   S    
C148  H64   S    
C52   C60   A    
C195  C208  A    
C132  H160  S    
C137  H20   S    
C61   C77   A    
C49   C75   A    
H26   N16   S    
C92   N5    S    
C198  C212  A    
C152  C161  T    
H34   N18   S    
C35   C229  S    
C182  C219  A    
H65   N26   S    
C134  H11   S    
O41   Zn4   S    
C84   C90   A    
O14   Zn1   S    
C200  O3    A    
C167  O47   A    
C110  N24   S    
H56   N24   S    
C122  H120  S    
C57   C109  A    
O39   Zn3   S    
C226  O40   A    
C22   H46   S    
C202  Cl25  S    
C157  C165  T    
C37   C52   A    
C11   H95   S    
C222  C225  S    
C98   N11   S    
C138  H23   S    
C69   H78   S    
C9    H73   S    
C167  O34   A    
C136  H14   S    
C147  H59   S    
C35   C105  A    
C87   C105  A    
C115  N1    S    
C187  C205  A    
C95   C150  A    
C172  Cl27  S    
C104  N17   S    
C128  N5    S    
C14   H117  S    
C91   N4    S    
H149  N7    S    
C156  O23   A    
C140  N17   S    
C112  O12   A    
O30   Zn12  S    
C227  O43   A    
C84   N29   S    
C65   H75   S    
O32   Zn2   S    
C14   C29   A    
C3    O15   A    
C227  O37   A    
C80   N12   S    
C126  H135  S    
C48   C59   A    
C83   N28   S    
C121  H116  S    
C142  H40   S    
C83   C101  A    
C76   H86   S    
C21   H35   S    
C225  O30   A    
C82   C113  A    
C93   C135  A    
C143  H47   S    
O48   Zn8   S    
C140  H33   S    
C146  C158  S    
O22   Zn8   S    
C122  N31   S    
C43   C70   A    
C201  Cl24  S    
C132  H3    S    
C19   C30   A    
C181  Cl4   S    
C133  H6    S    
C63   C75   A    
C134  H10   S    
C46   C106  A    
C9    C38   A    
C193  Cl16  S    
C77   H87   S    
H141  N5    S    
C67   H77   S    
C57   C227  S    
C190  C207  A    
C124  C155  S    
C134  H9    S    
O18   Zn8   S    
C180  C219  A    
C137  N14   S    
H110  N29   S    
H21   N15   S    
O43   Zn4   S    
C182  Cl5   S    
C25   C33   A    
C130  H151  S    
C164  C217  S    
H4    N10   S    
C161  C214  S    
C185  C220  A    
C82   C99   A    
H97   N23   S    
C189  O6    A    
C221  O31   A    
C140  H31   S    
C120  N29   S    
C35   C111  A    
C118  N27   S    
O45   Zn7   S    
C188  C206  A    
C171  C188  A    
C127  H137  S    
C86   C113  A    
C178  O48   A    
C231  O10   A    
C128  H142  S    
C183  C218  A    
C136  H16   S    
C169  C186  A    
C183  Cl6   S    
C149  N26   S    
C108  N21   S    
C81   C98   A    
C95   C114  A    
C195  Cl18  S    
C229  O41   A    
C75   H85   S    
H127  N2    S    
O12   Zn5   S    
C149  H67   S    
C197  C210  A    
C2    C97   A    
C44   C58   A    
C118  H103  S    
C115  H91   S    
C211  O8    A    
C7    O26   A    
C125  H130  S    
C61   H70   S    
C126  H133  S    
C4    C29   S    
H8    N11   S    
C25   H68   S    
C171  C215  A    
C121  H118  S    
C40   C66   A    
C224  O29   A    
C72   H81   S    
C62   C76   A    
C131  H156  S    
C13   C223  S    
C179  Cl2   S    
C143  H45   S    
C139  H28   S    
C19   C43   A    
O33   Zn2   S    
C179  C196  A    
C141  H38   S    
O44   Zn1   S    
C66   H76   S    
C148  N25   S    
C228  O42   A    
C47   C73   A    
C116  H94   S    
C122  H122  S    
C200  C210  S    
C174  C214  A    
C51   C77   A    
O10   Zn5   S    
C140  H32   S    
C12   C41   A    
C17   H150  S    
C85   N30   S    
C211  C212  S    
C31   C232  S    
C89   C107  A    
H61   N25   S    
C119  H109  S    
H158  N9    S    
H114  N30   S    
O5    Zn8   S    
C169  Cl1   S    
O24   Zn11  S    
C196  C209  A    
C184  C217  A    
C19   H13   S    
C159  C168  T    
C96   C222  A    
H88   N1    S    
C129  H146  S    
H105  N28   S    
C133  N10   S    
O13   Zn7   S    
C144  N21   S    
O11   Zn6   S    
H39   N19   S    
C131  N8    S    
C9    C27   A    
O28   Zn12  S    
H136  N4    S    
O8    Zn9   S    
C156  O44   A    
C117  H100  S    
C91   C108  A    
C128  H144  S    
C136  N13   S    
O25   Zn10  S    
C91   C150  A    
C170  C214  A    
C134  N11   S    
C86   N31   S    
C34   C52   A    
C94   N7    S    
C199  C210  A    
C172  C190  A    
C23   C32   A    
C185  C203  A    
C189  C209  S    
C143  H44   S    
C174  Cl29  S    
C15   C28   A    
C87   N32   S    
C120  H112  S    
C70   H79   S    
C115  H89   S    
C67   C71   A    
C2    C221  S    
C25   C49   A    
C230  O11   A    
C225  O32   A    
C123  H126  S    
C137  H19   S    
H52   N22   S    
C171  Cl23  S    
C191  Cl14  S    
C64   C74   A    
O35   Zn2   S    
C176  C194  A    
H12   N13   S    
O6    Zn11  S    
C228  O38   A    
C24   C99   A    
C119  H108  S    
C109  N22   S    
C53   C59   A    
C116  H96   S    
O34   Zn7   S    
C82   N27   S    
C193  C204  A    
C175  C213  A    
C170  Cl12  S    
C11   C36   A    
C177  Cl32  S    
C144  H49   S    
C116  N12   S    
C103  C222  A    
O4    Zn11  S    
C65   C73   A    
C120  H113  S    
C44   C71   A    
C163  C216  S    
C149  H69   S    
C13   C98   A    
H43   N20   S    
C114  N26   S    
C180  Cl3   S    
C129  H148  S    
C176  C216  A    
C180  C197  A    
C130  N7    S    
C221  O27   A    
C184  Cl7   S    
O3    Zn10  S    
C14   C42   A    
C10   C26   A    
C32   C231  S    
C202  C208  A    
C45   C72   A    
C97   N10   S    
C5    O19   A    
C181  C198  A    
C21   C50   A    
C162  C215  S    
C24   C224  S    
C89   C146  A    
C21   C32   A    
C121  H115  S    
C142  H41   S    
C184  C202  A    
C71   H80   S    
C154  C163  T    
C131  H157  S    
C173  Cl28  S    
O2    Zn9   S    
C139  H29   S    
C78   C79   A    
C141  N18   S    
O46   Zn6   S    
C197  Cl20  S    
C16   C29   A    
O7    Zn10  S    
H145  N6    S    
C42   C69   A    
C125  H131  S    
C139  N16   S    
C211  O4    A    
C24   C104  A    
C167  C207  S    
C3    C30   S    
O20   Zn10  S    
C230  O9    A    
C200  O5    A    
C123  H124  S    
C5    C28   S    
C88   C106  A    
C62   H71   S    
C176  Cl31  S    
C133  H5    S    
C6    C27   S    
C132  H159  S    
C101  C153  S    
C145  H54   S    
C148  H62   S    
C55   C56   A    
O15   Zn7   S    
C46   C226  S    
C194  Cl17  S    
C186  C204  A    
C10   C34   A    
C142  N19   S    
O27   Zn12  S    
C16   H139  S    
C102  N15   S    
C198  Cl21  S    
C57   C107  A    
C16   C40   A    
C73   H82   S    
H132  N3    S    
C179  C218  A    
C189  O2    A    
C203  C212  A    
C118  H104  S    
C33   C230  S    
H92   N12   S    
C6    O25   A    
C165  C218  S    
C226  O36   A    
H17   N14   S    
C79   C151  S    
C54   C58   A    
C22   C33   A    
C81   N23   S    
C190  Cl13  S    
O16   Zn6   S    
C23   C48   A    
C117  N23   S    
C144  H51   S    
H119  N31   S    
C137  H18   S    
C203  Cl26  S    
C199  Cl22  S    
C51   C60   A    
C155  C164  T    
C229  O39   A    
C100  N14   S    
C138  H22   S    
O1    Zn1   S    
C127  H140  S    
C1    O46   A    
O42   Zn4   S    
C151  C160  T    
C13   C100  A    
H123  N32   S    
C10   H84   S    
C147  H60   S    
C47   C58   A    
O31   Zn2   S    
C160  C213  S    
C196  Cl19  S    
H101  N27   S    
C12   H106  S    
C63   H72   S    
C80   C90   A    
C112  O45   A    
C41   C54   A    
C103  N16   S    
O29   Zn12  S    
C43   C56   A    
C89   N3    S    
C8    C37   A    
C174  C192  A    
C15   H128  S    
C68   C108  A    
C125  H129  S    
O21   Zn11  S    
C107  N20   S    
C126  H134  S    
C68   C114  A    
C22   C51   A    
C20   C31   A    
C94   C124  A    
