data_mof_unit_pretest_1493.cif
_audit_creation_date              2012-10-26T20:01:52-0400
_audit_creation_method            fapswitch 2.2
_symmetry_space_group_name_H-M    P1
_symmetry_Int_Tables_number       1
_space_group_crystal_system       triclinic
_cell_length_a                    11.674555
_cell_length_b                    10.967856
_cell_length_c                    9.735528
_cell_angle_alpha                 90.045803
_cell_angle_beta                  89.540961
_cell_angle_gamma                 94.917468
_cell_volume                      1241.95582207

loop_
_atom_site_label
_atom_site_type_symbol
_atom_type_description
_atom_site_fract_x
_atom_site_fract_y
_atom_site_fract_z
_atom_type_partial_charge
Br1   Br    Br    0.254754 0.425183 0.867911 -0.345278
Br2   Br    Br    0.264669 0.163486 0.707118 -0.389024
Br3   Br    Br    0.603421 0.936687 0.030540 -0.375514
Br4   Br    Br    0.305717 0.324850 0.170131 -0.304237
Br5   Br    Br    0.882107 0.797015 0.169901 -0.405809
C1    C     C_R   0.491047 0.262243 0.498962 0.579774
C2    C     C_R   0.496291 0.872281 0.498226 -0.041242
C3    C     C_R   0.670872 0.644609 0.142038 -0.012125
C4    C     C_R   0.284529 0.499687 0.500392 0.583957
C5    C     C_R   0.764219 0.702609 0.071736 0.177104
C6    C     C_R   0.766752 0.700006 0.929763 -0.102435
C7    C     C_R   0.676677 0.638613 0.858335 -0.111176
C8    C     C_R   0.587725 0.565958 0.925500 0.116229
C9    C     C_R   0.585378 0.569045 0.073976 0.097197
C10   C     C_R   0.418088 0.434485 0.075496 0.298803
C11   C     C_R   0.410747 0.446676 0.930617 0.279591
C12   C     C_R   0.443304 0.055675 0.863504 0.307262
C13   C     C_R   0.501174 0.737789 0.499885 0.521045
C14   C     C_R   0.715484 0.500546 0.499568 0.528903
C15   C     C_1   0.162656 0.500017 0.500945 0.071875
C16   C     C_1   0.060016 0.500361 0.500422 0.039096
C17   C     C_1   0.940058 0.500693 0.499387 0.019006
C18   C     C_1   0.837392 0.500753 0.498909 0.021489
C19   C     C_R   0.410544 0.099340 0.734753 0.148241
C20   C     C_R   0.524957 0.969283 0.866116 0.234712
C21   C     C_R   0.548742 0.906235 0.745668 -0.105525
C22   C     C_R   0.505219 0.943303 0.619978 -0.087727
C23   C     C_R   0.465365 0.059499 0.617017 -0.058098
C24   C     C_R   0.476123 0.126680 0.494827 -0.019423
C25   C     C_R   0.479077 0.060219 0.370648 0.293554
C26   C     C_R   0.469394 0.932587 0.374827 0.292420
Cu1   Cu    Cu3+1 0.499990 0.499990 0.640660 1.031591
Cu2   Cu    Cu3+1 0.500010 0.500010 0.359340 1.043272
H1    H     H_    0.834724 0.752734 0.874115 0.170714
H2    H     H_    0.675748 0.658412 0.751589 0.167373
H3    H     H_    0.605985 0.835506 0.749397 0.144257
H4    H     H_    0.665970 0.665239 0.248775 0.198759
H5    H     H_    0.557912 0.159843 0.234873 0.348807
H6    H     H_    0.342988 0.154606 0.965525 0.380247
H7    H     H_    0.369515 0.809326 0.286567 0.342646
N1    N     N_R   0.501070 0.501210 0.147910 -0.265966
N2    N     N_R   0.501110 0.501290 0.852040 -0.253768
O1    O     O_R   0.499990 0.319640 0.618810 -0.475075
O2    O     O_3   0.397330 0.092916 0.985403 -0.556650
O3    O     O_3   0.432453 0.870792 0.258139 -0.558140
O4    O     O_R   0.500000 0.319660 0.381240 -0.462826
O5    O     O_R   0.337190 0.500000 0.618790 -0.438910
O6    O     O_R   0.337200 0.500030 0.381210 -0.465346
O7    O     O_R   0.500000 0.680340 0.618760 -0.520781
O8    O     O_R   0.500010 0.680360 0.381190 -0.506452
O9    O     O_R   0.662800 0.499970 0.618790 -0.522976
O10   O     O_R   0.662810 0.500000 0.381210 -0.525027
O11   O     O_3   0.480255 0.116402 0.244967 -0.528393

loop_
_geom_bond_atom_site_label_1
_geom_bond_atom_site_label_2
_ccdc_geom_bond_type
C14   C18   S    
C6    C7    A    
Cu1   O9    S    
H6    O2    S    
C11   N2    A    
H7    O3    S    
C4    C15   S    
C2    C13   S    
Cu2   N1    S    
Cu1   Cu2   S    
Br4   C10   S    
Cu2   O8    S    
C12   O2    S    
C12   C20   A    
Br5   C5    S    
Br1   C11   S    
C16   C17   S    
C15   C16   T    
Cu2   O10   S    
Cu2   O4    S    
C10   N1    A    
C21   C22   A    
C24   C25   A    
H5    O11   S    
C9    N1    A    
C21   H3    S    
C23   C24   A    
C25   O11   S    
Cu1   O1    S    
C4    O5    A    
C1    O1    A    
Br2   C19   S    
C25   C26   A    
Cu1   O5    S    
C7    H2    S    
Cu1   O7    S    
C12   C19   A    
C2    C26   A    
C3    H4    S    
C10   C11   A    
C14   O9    A    
Br3   C20   S    
C1    C24   S    
C2    C22   A    
C7    C8    A    
C13   O8    A    
C4    O6    A    
C3    C5    A    
C26   O3    S    
C5    C6    A    
Cu2   O6    S    
Cu1   N2    S    
C17   C18   T    
C8    N2    A    
C3    C9    A    
C1    O4    A    
C20   C21   A    
C8    C9    A    
C14   O10   A    
C6    H1    S    
C19   C23   A    
C13   O7    A    
C22   C23   A    
