data_mof_unit_pretest_1075.cif
_audit_creation_date              2012-12-10T17:05:21-0500
_audit_creation_method            fapswitch 2.2
_symmetry_space_group_name_H-M    P1
_symmetry_Int_Tables_number       1
_space_group_crystal_system       triclinic
_cell_length_a                    10.049286
_cell_length_b                    10.677411
_cell_length_c                    15.49787
_cell_angle_alpha                 90.64601
_cell_angle_beta                  67.415914
_cell_angle_gamma                 91.295184
_cell_volume                      1535.01028007

loop_
_atom_site_label
_atom_site_type_symbol
_atom_type_description
_atom_site_fract_x
_atom_site_fract_y
_atom_site_fract_z
_atom_type_partial_charge
C1    C     C_R   0.501387 0.737617 0.501127 0.963452
C2    C     C_R   0.399712 0.538695 0.918355 0.047429
C3    C     C_R   0.261097 0.486494 0.971894 0.064156
C4    C     C_R   0.497485 0.571067 0.961601 0.091734
C5    C     C_R   0.463068 0.534263 0.055166 0.077407
C6    C     C_R   0.321369 0.490689 0.108405 -0.232241
C7    C     C_R   0.221856 0.469032 0.067713 -0.167258
C8    C     C_R   0.629096 0.637444 0.914344 -0.199968
C9    C     C_R   0.728559 0.657756 0.955586 -0.194895
C10   C     C_R   0.701752 0.610619 0.044157 0.176236
C11   C     C_R   0.570429 0.545314 0.093288 0.094431
C12   C     C_R   0.409442 0.501165 0.676020 0.924812
C13   C     C_R   0.803448 0.629461 0.085205 -0.119752
C14   C     C_R   0.773988 0.586207 0.175487 -0.161730
C15   C     C_R   0.550697 0.492199 0.179251 -0.217470
C16   C     C_2   0.580480 0.069457 0.540385 -0.287963
C17   C     C_2   0.470578 0.134380 0.536611 0.170112
C18   C     C_2   0.569440 0.935220 0.550647 0.469258
C19   C     C_2   0.509397 0.870435 0.499726 -0.362991
C20   C     C_2   0.116226 0.474930 0.427578 -0.120015
C21   C     C_2   0.964174 0.448047 0.434302 0.231440
C22   C     C_R   0.493660 0.262808 0.507682 0.870373
C23   C     C_R   0.590425 0.500962 0.323965 0.848899
C24   C     C_R   0.351249 0.504687 0.777831 -0.127401
C25   C     C_R   0.645235 0.519882 0.223247 -0.049267
C26   C     C_R   0.166901 0.449459 0.927539 0.374535
C27   C     C_R   0.212434 0.459711 0.830804 -0.211837
C28   C     C_R   0.441539 0.546832 0.821589 -0.215264
H1    H     H_    0.115562 0.434356 0.111744 0.205713
H2    H     H_    0.903389 0.680745 0.048647 0.146993
H3    H     H_    0.685288 0.112978 0.527100 0.180779
H4    H     H_    0.467902 0.916605 0.453340 0.155542
H5    H     H_    0.203697 0.465755 0.360145 0.162839
H6    H     H_    0.064590 0.496514 0.563410 0.170619
H7    H     H_    0.873260 0.560635 0.543900 0.170942
H8    H     H_    0.458915 0.431882 0.215467 0.140940
H9    H     H_    0.848245 0.608854 0.209054 0.157390
H10   H     H_    0.827504 0.709632 0.917550 0.167125
H11   H     H_    0.142167 0.426621 0.796698 0.200987
H12   H     H_    0.548374 0.578571 0.777590 0.181834
H13   H     H_    0.282922 0.475381 0.182705 0.141818
H14   H     H_    0.656343 0.678866 0.846431 0.176330
N1    N     N_2   0.148330 0.498670 0.499030 -0.192522
N2    N     N_2   0.852680 0.498640 0.499000 -0.217784
O1    O     O_R   0.386950 0.680940 0.500010 -0.588257
O2    O     O_R   0.613110 0.680900 0.499990 -0.570738
O3    O     O_R   0.322330 0.500030 0.632270 -0.610382
O4    O     O_R   0.548480 0.499990 0.632240 -0.598508
O5    O     O_R   0.386890 0.319100 0.500010 -0.555738
O6    O     O_R   0.613050 0.319060 0.499990 -0.656137
O7    O     O_R   0.451520 0.500010 0.367760 -0.620312
O8    O     O_R   0.677670 0.499970 0.367730 -0.630912
Zn1   Zn    Zn3+2 0.349000 0.500030 0.500020 0.994956
Zn2   Zn    Zn3+2 0.651000 0.499970 0.499980 0.971890
Cl1   Cl    Cl    0.290066 0.074855 0.579440 -0.561035
Cl2   Cl    Cl    0.641304 0.866912 0.626415 -0.582275
N3    N     N_2   0.944571 0.371226 0.363641 -0.296939
H15   H     H_    0.839750 0.348357 0.374999 0.289191
C29   C     C_3   0.037259 0.264306 0.330991 -0.792450
H16   H     H_    0.003667 0.208261 0.281697 0.250008
H17   H     H_    0.028847 0.203753 0.390812 0.264697
H18   H     H_    0.150861 0.294606 0.292463 0.238138
Cl3   Cl    Cl    0.996562 0.378643 0.988453 -0.630963

loop_
_geom_bond_atom_site_label_1
_geom_bond_atom_site_label_2
_ccdc_geom_bond_type
C23   O8    A    
C2    C4    A    
C26   Cl3   S    
C28   H12   S    
C21   N3    S    
C6    C7    A    
C7    H1    S    
C21   N2    D    
C9    C10   A    
C12   C24   S    
C23   O7    A    
C17   C22   S    
C24   C27   A    
C18   Cl2   S    
O3    Zn1   S    
C6    H13   S    
O2    Zn2   S    
C2    C3    A    
N3    H15   S    
O1    Zn1   S    
C29   H16   S    
C13   C14   A    
C20   C21   S    
C14   H9    S    
O4    Zn2   S    
H7    N2    S    
C1    O1    A    
C26   C27   A    
O6    Zn2   S    
C12   O3    A    
O5    Zn1   S    
C19   H4    S    
C9    H10   S    
C12   O4    A    
O8    Zn2   S    
C5    C11   A    
C3    C7    A    
C23   C25   S    
C14   C25   A    
C5    C6    A    
C1    O2    A    
C15   C25   A    
N3    C29   S    
C10   C11   A    
C20   H5    S    
C27   H11   S    
N2    Zn2   S    
C22   O6    A    
C20   N1    D    
C13   H2    S    
C16   C18   S    
C18   C19   D    
C29   H17   S    
C22   O5    A    
C4    C8    A    
C17   Cl1   S    
C8    C9    A    
C29   H18   S    
C2    C28   A    
O7    Zn1   S    
C15   H8    S    
C1    C19   S    
C11   C15   A    
N1    Zn1   S    
C3    C26   A    
H6    N1    S    
C24   C28   A    
C16   C17   D    
C8    H14   S    
C4    C5    A    
C16   H3    S    
C10   C13   A    
