data_mof_unit_pretest_275.cif
_audit_creation_date              2012-12-10T17:02:14-0500
_audit_creation_method            fapswitch 2.2
_symmetry_space_group_name_H-M    P1
_symmetry_Int_Tables_number       1
_space_group_crystal_system       triclinic
_cell_length_a                    10.673605
_cell_length_b                    10.699262
_cell_length_c                    10.011375
_cell_angle_alpha                 90.098524
_cell_angle_beta                  89.865914
_cell_angle_gamma                 90.077541
_cell_volume                      1143.29012348

loop_
_atom_site_label
_atom_site_type_symbol
_atom_type_description
_atom_site_fract_x
_atom_site_fract_y
_atom_site_fract_z
_atom_type_partial_charge
C1    C     C_R   0.502094 0.262369 0.499553 0.940729
C2    C     C_R   0.058049 0.518401 0.624638 0.072366
C3    C     C_R   0.124817 0.514483 0.502361 -0.104229
C4    C     C_R   0.062885 0.490154 0.382095 -0.187913
C5    C     C_R   0.936340 0.469231 0.382557 -0.174357
C6    C     C_R   0.872256 0.462744 0.503996 -0.118696
C7    C     C_2   0.478090 0.933581 0.390758 -0.194931
C8    C     C_2   0.456058 0.866055 0.500673 -0.000543
C9    C     C_2   0.466925 0.067134 0.392148 -0.133700
C10   C     C_2   0.510279 0.130063 0.497201 -0.267276
C11   C     C_2   0.561221 0.580916 0.924170 -0.138744
C12   C     C_R   0.259554 0.509563 0.500582 0.875063
C13   C     C_2   0.571053 0.573118 0.073326 0.197229
C14   C     C_R   0.491125 0.737248 0.500256 0.906004
C15   C     C_R   0.739041 0.483942 0.500679 0.912319
C16   C     C_R   0.106956 0.568783 0.744576 -0.130062
C17   C     C_R   0.047502 0.546095 0.866291 -0.172731
C18   C     C_R   0.942770 0.468695 0.870444 -0.151291
C19   C     C_R   0.889084 0.425672 0.751714 0.191616
C20   C     C_R   0.937985 0.466439 0.626832 0.049234
H1    H     H_    0.111673 0.488312 0.287073 0.170885
H2    H     H_    0.611295 0.655490 0.873680 0.197345
H3    H     H_    0.431022 0.451483 0.102519 0.140258
H4    H     H_    0.086926 0.582485 0.958016 0.159576
H5    H     H_    0.904905 0.440055 0.966052 0.164791
H6    H     H_    0.516530 0.892097 0.300462 0.194698
H7    H     H_    0.431699 0.113697 0.303468 0.183032
N1    N     N_2   0.501340 0.501330 0.852150 -0.198475
N2    N     N_2   0.501380 0.501360 0.147810 -0.205857
O1    O     O_R   0.499980 0.319060 0.613040 -0.584313
O2    O     O_R   0.500020 0.319100 0.386900 -0.621270
O3    O     O_R   0.316750 0.499980 0.613090 -0.619508
O4    O     O_R   0.316790 0.500020 0.386950 -0.623705
O5    O     O_R   0.499980 0.680900 0.613100 -0.596326
O6    O     O_R   0.500020 0.680940 0.386960 -0.600933
O7    O     O_R   0.683210 0.499980 0.613050 -0.600548
O8    O     O_R   0.683250 0.500020 0.386910 -0.591117
Zn1   Zn    Zn3+2 0.499970 0.499970 0.650990 0.989206
Zn2   Zn    Zn3+2 0.500030 0.500030 0.349010 0.978568
H8    H     H_    0.552533 0.083712 0.582397 0.193372
H9    H     H_    0.462005 0.425131 0.898314 0.175709
I1    I     I_    0.707603 0.693862 0.156427 -0.347214
H10   H     H_    0.189765 0.627138 0.745278 0.181587
I2    I     I_    0.765514 0.270608 0.770696 -0.346899
H11   H     H_    0.888468 0.461090 0.287596 0.184305
I3    I     I_    0.346555 0.927936 0.668540 -0.347251

loop_
_geom_bond_atom_site_label_1
_geom_bond_atom_site_label_2
_ccdc_geom_bond_type
C14   O5    A    
O6    Zn2   S    
O3    Zn1   S    
C6    C20   A    
C9    C10   D    
N1    H9    S    
C11   H2    S    
C19   C20   A    
N1    Zn1   S    
N2    Zn2   S    
O7    Zn1   S    
C17   C18   A    
C6    C15   S    
C7    C8    D    
O8    Zn2   S    
C12   O3    A    
C4    H1    S    
C11   C13   S    
C16   H10   S    
O1    Zn1   S    
O4    Zn2   S    
C18   H5    S    
C7    H6    S    
C11   N1    D    
C4    C5    A    
H3    N2    S    
C13   N2    D    
C13   I1    S    
O2    Zn2   S    
C2    C3    A    
C5    C6    A    
C8    I3    S    
C17   H4    S    
C2    C20   A    
C3    C4    A    
C15   O7    A    
C1    O2    A    
C2    C16   A    
C19   I2    S    
C9    H7    S    
C10   H8    S    
C18   C19   A    
C14   O6    A    
C7    C9    S    
C1    O1    A    
C8    C14   S    
C3    C12   S    
C12   O4    A    
O5    Zn1   S    
C5    H11   S    
C15   O8    A    
C1    C10   S    
C16   C17   A    
