data_mof_unit_pretest_1779.cif
_audit_creation_date              2012-12-10T18:14:26-0500
_audit_creation_method            fapswitch 2.2
_symmetry_space_group_name_H-M    P1
_symmetry_Int_Tables_number       1
_space_group_crystal_system       triclinic
_cell_length_a                    42.308724
_cell_length_b                    29.205701
_cell_length_c                    30.586522
_cell_angle_alpha                 90.013561
_cell_angle_beta                  136.344225
_cell_angle_gamma                 89.9901
_cell_volume                      26090.3991837

loop_
_atom_site_label
_atom_site_type_symbol
_atom_type_description
_atom_site_fract_x
_atom_site_fract_y
_atom_site_fract_z
_atom_type_partial_charge
C1    C     C_R   0.586686 0.500000 0.587089 0.908818
C2    C     C_1   0.000373 0.999978 0.335237 -0.146833
C3    C     C_3   0.531997 0.539533 0.253087 -0.416924
C4    C     C_3   0.026092 0.956864 0.247261 -0.413488
C5    C     C_3   0.025813 0.043273 0.247008 -0.413452
C6    C     C_1   0.500267 0.499888 0.120942 -0.208049
C7    C     C_1   0.000171 0.999999 0.120827 -0.206240
C8    C     C_3   0.502978 0.499260 0.291744 0.261735
C9    C     C_3   0.000628 0.999981 0.289338 0.244011
C10   C     C_3   0.501854 0.499482 0.206685 0.304819
C11   C     C_3   0.000839 0.999989 0.205644 0.287044
C12   C     C_3   0.509792 0.408756 0.302325 -0.377102
C13   C     C_1   0.501164 0.499856 0.374184 -0.218654
C14   C     C_3   0.541563 0.392061 0.370586 -0.880035
C15   C     C_3   0.512687 0.588611 0.300761 -0.380790
C16   C     C_3   0.547598 0.627001 0.328923 -0.887888
C17   C     C_3   0.007605 0.910225 0.297357 -0.381338
C18   C     C_3   0.040541 0.870430 0.322058 -0.889856
C19   C     C_3   0.007060 0.089779 0.296874 -0.381345
C20   C     C_3   0.039742 0.129779 0.321322 -0.889850
C21   C     C_1   0.000102 0.999983 0.373109 -0.213871
C22   C     C_1   0.637267 0.499998 0.637561 -0.224640
C23   C     C_1   0.137268 1.000000 0.637573 -0.224246
C24   C     C_1   0.679405 0.499997 0.679614 0.002504
C25   C     C_1   0.179405 1.000000 0.679626 0.002481
C26   C     C_1   0.729139 0.499997 0.729261 0.005061
C27   C     C_1   0.229140 1.000000 0.729271 0.005071
C28   C     C_1   0.771276 0.499997 0.771335 0.004954
C29   C     C_R   0.086686 1.000000 0.587099 0.908668
C30   C     C_1   0.271277 1.000000 0.771343 0.004973
C31   C     C_1   0.821011 0.499998 0.821014 0.003362
C32   C     C_1   0.321011 1.000000 0.821018 0.003356
C33   C     C_R   0.499530 0.499985 0.417197 0.953014
C34   C     C_R   0.999814 0.999995 0.417489 0.957458
C35   C     C_1   0.863149 0.499999 0.863128 -0.215347
C36   C     C_1   0.363149 1.000000 0.863129 -0.215363
C37   C     C_1   0.499971 0.500012 0.636029 -0.222658
C38   C     C_1   0.999971 0.000013 0.636029 -0.222654
C39   C     C_1   0.499971 0.500013 0.677203 0.015376
C40   C     C_3   0.452521 0.505200 0.174625 -0.403234
C41   C     C_1   0.999971 0.000013 0.677203 0.015341
C42   C     C_1   0.499972 0.500012 0.726206 0.002684
C43   C     C_1   0.999972 0.000012 0.726206 0.002655
C44   C     C_1   0.499973 0.500009 0.767383 0.002669
C45   C     C_1   0.999973 0.000009 0.767383 0.002639
C46   C     C_1   0.499977 0.500006 0.816389 0.015080
C47   C     C_1   0.999977 0.000006 0.816389 0.015051
C48   C     C_1   0.499986 0.500003 0.857573 -0.221579
C49   C     C_1   0.999986 0.000003 0.857573 -0.221605
C50   C     C_1   0.362677 0.500000 0.362989 -0.224221
C51   C     C_3   0.950882 0.999827 0.172461 -0.404576
C52   C     C_1   0.862677 0.000000 0.362988 -0.224285
C53   C     C_1   0.320541 0.499999 0.320800 0.002349
C54   C     C_1   0.820541 0.000000 0.320799 0.002336
C55   C     C_1   0.270810 0.499999 0.271016 0.005083
C56   C     C_1   0.770810 0.000000 0.271016 0.005077
C57   C     C_R   0.413255 0.500000 0.413647 0.907177
C58   C     C_R   0.913255 0.000000 0.413645 0.907553
C59   C     C_1   0.228675 0.499999 0.228842 0.005031
C60   C     C_1   0.728675 0.000000 0.228842 0.005012
C61   C     C_1   0.178944 0.500000 0.179068 0.003390
C62   C     C_3   0.452811 0.502171 0.224919 -0.414010
C63   C     C_1   0.678944 0.000000 0.179068 0.003370
C64   C     C_1   0.136808 0.500000 0.136897 -0.215321
C65   C     C_1   0.636808 1.000000 0.136897 -0.215348
C66   C     C_R   0.500031 0.586641 0.994573 0.907201
C67   C     C_R   0.500031 0.413359 0.994574 0.907959
C68   C     C_R   0.000031 0.086641 0.994575 0.907539
C69   C     C_R   0.000031 0.913359 0.994574 0.907574
C70   C     C_R   0.500053 0.500122 0.076031 0.951965
C71   C     C_R   0.000046 0.000006 0.076018 0.951897
C72   C     C_R   0.500011 0.500000 0.907483 0.892709
C73   C     C_3   0.950653 0.999827 0.222377 -0.406864
C74   C     C_R   0.000011 0.000000 0.907483 0.892702
C75   C     C_R   0.000015 0.413721 0.999129 0.897724
C76   C     C_R   0.000015 0.586279 0.999138 0.897731
C77   C     C_R   0.500015 0.913721 0.999129 0.897748
C78   C     C_R   0.500015 0.086279 0.999138 0.897724
C79   C     C_R   0.913731 0.500000 0.913727 0.897905
C80   C     C_R   0.413732 1.000000 0.913727 0.897916
C81   C     C_R   0.086230 0.500000 0.086275 0.897917
C82   C     C_R   0.586230 1.000000 0.086275 0.897924
C83   C     C_1   0.500042 0.637228 0.995411 -0.224237
C84   C     C_1   0.500911 0.499671 0.159728 -0.097544
C85   C     C_1   0.500042 0.362772 0.995418 -0.224384
C86   C     C_1   0.000042 0.137228 0.995412 -0.224299
C87   C     C_1   0.000042 0.862772 0.995419 -0.224287
C88   C     C_R   0.499972 0.500005 0.586144 0.892965
C89   C     C_R   0.999972 0.000005 0.586144 0.892911
C90   C     C_1   0.500044 0.679367 0.996153 0.002602
C91   C     C_1   0.500044 0.320633 0.996165 0.002553
C92   C     C_1   0.000044 0.179367 0.996154 0.002604
C93   C     C_1   0.000044 0.820633 0.996167 0.002631
C94   C     C_1   0.500042 0.729105 0.997032 0.005124
C95   C     C_1   0.000465 0.999993 0.159260 -0.101043
C96   C     C_1   0.500042 0.270895 0.997051 0.005001
C97   C     C_1   0.000042 0.229105 0.997032 0.005107
C98   C     C_1   0.000042 0.770895 0.997054 0.005130
C99   C     C_1   0.000038 0.271244 0.997739 0.005016
C100  C     C_1   0.000038 0.728757 0.997765 0.005038
C101  C     C_1   0.500038 0.771244 0.997738 0.005039
C102  C     C_1   0.500038 0.228757 0.997763 0.004905
C103  C     C_1   0.000031 0.320984 0.998476 0.003484
C104  C     C_1   0.000032 0.679016 0.998505 0.003509
C105  C     C_1   0.500032 0.820984 0.998475 0.003500
C106  C     C_1   0.502517 0.499397 0.337411 -0.109128
C107  C     C_1   0.500031 0.179016 0.998503 0.003401
C108  C     C_1   0.000025 0.363127 0.998934 -0.215292
C109  C     C_1   0.000025 0.636873 0.998960 -0.215277
C110  C     C_1   0.500025 0.863127 0.998934 -0.215286
C111  C     C_1   0.500025 0.136873 0.998959 -0.215364
C112  C     C_3   0.530918 0.541552 0.302612 -0.020069
C113  C     C_3   0.526629 0.454437 0.297952 -0.010371
C114  C     C_3   0.026302 0.043789 0.298086 -0.007945
C115  C     C_3   0.026573 0.956336 0.298332 -0.007970
C116  C     C_3   0.521616 0.453426 0.242552 -0.461354
H1    H     H_    0.567942 0.534622 0.277839 0.155841
H2    H     H_    0.519657 0.572099 0.225920 0.185851
H3    H     H_    0.008891 0.925923 0.216492 0.186372
H4    H     H_    0.008406 0.074105 0.216059 0.186365
H5    H     H_    0.435001 0.532506 0.221065 0.169740
H6    H     H_    0.432737 0.471788 0.215303 0.171673
H7    H     H_    0.931612 0.030219 0.215533 0.171721
H8    H     H_    0.931799 0.969320 0.215707 0.171730
H9    H     H_    0.438360 0.538920 0.150141 0.173540
H10   H     H_    0.429759 0.478077 0.138300 0.175581
H11   H     H_    0.932245 0.030541 0.141604 0.174984
H12   H     H_    0.555705 0.446915 0.261541 0.162633
H13   H     H_    0.932446 0.968991 0.141792 0.174982
H14   H     H_    0.576090 0.384516 0.391720 0.252829
H15   H     H_    0.544865 0.417925 0.400189 0.272613
H16   H     H_    0.527534 0.360139 0.371014 0.254411
H17   H     H_    0.474668 0.412218 0.280516 0.214387
H18   H     H_    0.508568 0.380770 0.276500 0.209474
H19   H     H_    0.579596 0.619417 0.379186 0.259427
H20   H     H_    0.555800 0.631342 0.301953 0.260651
H21   H     H_    0.533277 0.659726 0.327029 0.255327
H22   H     H_    0.480449 0.597812 0.251316 0.213704
H23   H     H_    0.061671 0.043826 0.270498 0.156414
H24   H     H_    0.504961 0.587263 0.328533 0.219235
H25   H     H_    0.046151 0.865215 0.292135 0.261070
H26   H     H_    0.073974 0.877088 0.371617 0.259493
H27   H     H_    0.025891 0.838475 0.321221 0.255804
H28   H     H_    0.002214 0.912256 0.327823 0.222332
H29   H     H_    0.974028 0.902056 0.248557 0.212251
H30   H     H_    0.073240 0.123312 0.370889 0.259493
H31   H     H_    0.045260 0.135058 0.291305 0.261053
H32   H     H_    0.024921 0.161634 0.320375 0.255793
H33   H     H_    0.973422 0.097742 0.248040 0.212241
H34   H     H_    0.061955 0.956550 0.270763 0.156414
H35   H     H_    0.001708 0.087711 0.327383 0.222337
H36   H     H_    0.566735 0.538007 0.350634 0.145021
H37   H     H_    0.564025 0.457466 0.342169 0.151989
H38   H     H_    0.062614 0.041211 0.345430 0.144282
H39   H     H_    0.062866 0.959131 0.345667 0.144302
H40   H     H_    0.498445 0.425383 0.208447 0.176909
O1    O     O_R   0.563110 0.535630 0.563620 -0.596657
O2    O     O_R   0.500010 0.063160 0.964010 -0.593421
O3    O     O_R   0.000000 0.436830 0.034310 -0.594495
O4    O     O_R   0.000000 0.563170 0.034310 -0.594500
O5    O     O_R   0.500000 0.936830 0.034310 -0.594510
O6    O     O_R   0.500000 0.063170 0.034310 -0.594578
O7    O     O_R   0.936840 0.500000 0.901700 -0.593674
O8    O     O_R   0.436840 0.000000 0.901700 -0.593643
O9    O     O_R   0.936840 0.500000 0.972000 -0.594391
O10   O     O_R   0.436840 1.000000 0.972000 -0.594431
O11   O     O_R   0.063130 0.500000 0.028000 -0.593566
O12   O     O_R   0.563110 0.464370 0.563620 -0.597379
O13   O     O_R   0.563130 0.000000 0.028000 -0.593548
O14   O     O_R   0.063120 0.500000 0.098300 -0.594353
O15   O     O_R   0.563120 0.000000 0.098300 -0.594386
O16   O     O_R   0.499970 0.535640 0.438200 -0.616097
O17   O     O_R   0.499970 0.464360 0.438200 -0.614610
O18   O     O_R   0.999970 0.035640 0.438200 -0.616240
O19   O     O_R   0.999970 0.964360 0.438200 -0.616231
O20   O     O_R   0.436830 0.535630 0.437320 -0.597860
O21   O     O_R   0.436830 0.464370 0.437320 -0.597199
O22   O     O_R   0.936830 0.035630 0.437320 -0.597623
O23   O     O_R   0.063110 0.035630 0.563620 -0.597125
O24   O     O_R   0.936830 0.964370 0.437320 -0.597605
O25   O     O_R   0.499970 0.535630 0.562740 -0.591851
O26   O     O_R   0.499970 0.464370 0.562740 -0.591848
O27   O     O_R   0.999970 0.035630 0.562740 -0.591906
O28   O     O_R   0.999970 0.964370 0.562740 -0.591885
O29   O     O_R   0.535670 0.563060 0.029670 -0.597245
O30   O     O_R   0.535670 0.436940 0.029670 -0.597021
O31   O     O_R   0.035670 0.063060 0.029670 -0.597138
O32   O     O_R   0.035670 0.936940 0.029670 -0.597127
O33   O     O_R   0.464380 0.563080 0.958370 -0.597229
O34   O     O_R   0.063110 0.964370 0.563620 -0.597109
O35   O     O_R   0.464380 0.436920 0.958370 -0.597105
O36   O     O_R   0.964380 0.063080 0.958370 -0.597176
O37   O     O_R   0.964380 0.936920 0.958370 -0.597158
O38   O     O_R   0.535670 0.500000 0.091080 -0.613202
O39   O     O_R   0.035670 1.000000 0.091080 -0.613363
O40   O     O_R   0.464370 0.500000 0.019780 -0.613499
O41   O     O_R   0.964370 1.000000 0.019780 -0.613486
O42   O     O_R   0.535670 0.500000 0.966540 -0.593183
O43   O     O_R   0.035670 0.000000 0.966540 -0.593182
O44   O     O_R   0.464380 0.500000 0.895240 -0.593166
O45   O     O_R   0.964380 0.000000 0.895240 -0.593176
O46   O     O_R   0.000010 0.436840 0.964010 -0.593470
O47   O     O_R   0.000010 0.563160 0.964010 -0.593450
O48   O     O_R   0.500010 0.936840 0.964010 -0.593443
Zn1   Zn    Zn3+2 0.499970 0.547590 0.500630 0.963039
Zn2   Zn    Zn3+2 0.499990 1.000000 0.953050 0.968096
Zn3   Zn    Zn3+2 0.999980 0.500000 0.046950 0.964666
Zn4   Zn    Zn3+2 0.499980 0.000000 0.046950 0.964475
Zn5   Zn    Zn3+2 0.499970 0.452410 0.500630 0.963148
Zn6   Zn    Zn3+2 0.999970 0.047590 0.500630 0.963118
Zn7   Zn    Zn3+2 0.999970 0.952410 0.500630 0.963168
Zn8   Zn    Zn3+2 0.547630 0.500000 0.040770 0.964004
Zn9   Zn    Zn3+2 0.047630 0.000000 0.040770 0.963978
Zn10  Zn    Zn3+2 0.452420 0.500000 0.945550 0.964097
Zn11  Zn    Zn3+2 0.952420 1.000000 0.945550 0.964101
Zn12  Zn    Zn3+2 0.999990 0.500000 0.953050 0.968041

loop_
_geom_bond_atom_site_label_1
_geom_bond_atom_site_label_2
_ccdc_geom_bond_type
C99   C103  S    
C105  C110  T    
O31   Zn9   S    
C90   C94   S    
C96   C102  T    
C5    C114  S    
O24   Zn7   S    
C58   O24   A    
C68   C86   S    
C55   C59   T    
C37   C88   S    
C17   H29   S    
C16   H21   S    
C63   C65   T    
C51   H13   S    
C76   O47   A    
C10   C116  S    
C47   C49   T    
C14   H16   S    
O27   Zn6   S    
O23   Zn6   S    
O10   Zn4   S    
C60   C63   S    
C9    C114  S    
C89   O27   A    
O29   Zn8   S    
C18   H27   S    
C24   C26   S    
C12   C113  S    
O30   Zn8   S    
C8    C112  S    
O35   Zn10  S    
C7    C71   S    
C104  C109  T    
C67   O35   A    
C68   O36   A    
C75   O3    A    
C15   C16   S    
C66   O33   A    
C100  C104  S    
C40   C62   S    
O22   Zn6   S    
C10   C40   S    
O21   Zn5   S    
O45   Zn11  S    
C34   O19   A    
C3    H1    S    
C7    C95   T    
C91   C96   S    
C20   H32   S    
C88   O26   A    
C78   O2    A    
C80   O8    A    
C19   C20   S    
C94   C101  T    
C52   C54   T    
C76   C109  S    
C73   H7    S    
O44   Zn10  S    
C57   O21   A    
C112  H36   S    
C4    H3    S    
C5    H23   S    
C78   C111  S    
O19   Zn7   S    
O42   Zn8   S    
O36   Zn11  S    
C69   C87   S    
C67   O30   A    
C113  C116  S    
C115  H39   S    
C45   C47   S    
C66   C83   S    
C82   O13   A    
C1    C22   S    
C49   C74   S    
C12   H18   S    
C27   C30   T    
C77   O5    A    
C41   C43   S    
C9    C73   S    
O11   Zn12  S    
C48   C72   S    
C15   C112  S    
O32   Zn9   S    
C80   O10   A    
C97   C99   T    
C75   O46   A    
C44   C46   S    
C92   C97   S    
O37   Zn11  S    
C39   C42   S    
C54   C56   S    
C14   H15   S    
C53   C55   S    
C101  C105  S    
C46   C48   T    
C59   C61   S    
C50   C53   T    
C6    C84   T    
C5    H4    S    
O2    Zn2   S    
C89   O28   A    
O47   Zn12  S    
C18   H26   S    
O1    Zn1   S    
C68   O31   A    
C38   C41   T    
C36   C80   S    
C79   O7    A    
O13   Zn2   S    
C21   C34   S    
C1    O12   A    
O41   Zn11  S    
C72   O42   A    
O26   Zn5   S    
C56   C60   T    
C9    C115  S    
O20   Zn1   S    
C61   C64   T    
O25   Zn1   S    
O34   Zn7   S    
C13   C33   S    
C34   O18   A    
C3    H2    S    
C72   O44   A    
C57   O20   A    
O40   Zn10  S    
O7    Zn12  S    
C71   O39   A    
C38   C89   S    
C3    C112  S    
C70   O38   A    
C73   H8    S    
C40   H10   S    
C2    C21   T    
C69   O37   A    
C17   C18   S    
C81   O11   A    
C20   H31   S    
C102  C107  S    
C58   O22   A    
C81   O14   A    
C79   O9    A    
C4    C11   S    
O9    Zn3   S    
C69   O32   A    
C103  C108  T    
C52   C58   S    
C8    C113  S    
C70   O40   A    
O48   Zn2   S    
C78   O6    A    
C98   C100  T    
C12   H17   S    
C17   H28   S    
C5    C11   S    
C116  H12   S    
C22   C24   T    
C35   C79   S    
C85   C91   T    
C77   O48   A    
C32   C36   T    
C62   H6    S    
C33   O17   A    
C17   C115  S    
O28   Zn7   S    
C15   H24   S    
C14   H14   S    
C11   C95   S    
C6    C70   S    
C83   C90   T    
C82   O15   A    
O16   Zn1   S    
O6    Zn4   S    
O18   Zn6   S    
C50   C57   S    
C107  C111  T    
O12   Zn5   S    
C28   C31   S    
O17   Zn5   S    
C51   C73   S    
C113  H37   S    
C13   C106  T    
C8    C106  S    
C20   H30   S    
C23   C29   S    
C19   H35   S    
O3    Zn3   S    
C74   O45   A    
C25   C27   S    
C4    H34   S    
C26   C28   T    
C19   C114  S    
C51   H11   S    
C15   H22   S    
O43   Zn9   S    
C12   C14   S    
C42   C44   T    
O14   Zn3   S    
C43   C45   T    
C3    C10   S    
O8    Zn2   S    
O4    Zn3   S    
C30   C32   S    
C2    C9    S    
C65   C82   S    
C67   C85   S    
C40   H9    S    
C87   C93   T    
C76   O4    A    
C1    O1    A    
C19   H33   S    
C114  H38   S    
C31   C35   T    
C23   C25   T    
C77   C110  S    
C64   C81   S    
C116  H40   S    
C11   C51   S    
O33   Zn10  S    
O38   Zn8   S    
C75   C108  S    
C71   O41   A    
C74   O43   A    
C37   C39   T    
C29   O23   A    
C66   O29   A    
C88   O25   A    
C29   O34   A    
C86   C92   T    
C10   C84   S    
O5    Zn4   S    
O46   Zn12  S    
O15   Zn4   S    
C33   O16   A    
C16   H19   S    
C93   C98   S    
C18   H25   S    
C62   H5    S    
O39   Zn9   S    
C8    C62   S    
C4    C115  S    
C16   H20   S    
