data_mof_unit_pretest_595.cif
_audit_creation_date              2012-10-26T19:05:05-0400
_audit_creation_method            fapswitch 2.2
_symmetry_space_group_name_H-M    P1
_symmetry_Int_Tables_number       1
_space_group_crystal_system       triclinic
_cell_length_a                    15.862745
_cell_length_b                    10.825621
_cell_length_c                    9.672919
_cell_angle_alpha                 90.051944
_cell_angle_beta                  90.331749
_cell_angle_gamma                 95.955622
_cell_volume                      1652.07784

loop_
_atom_site_label
_atom_site_type_symbol
_atom_type_description
_atom_site_fract_x
_atom_site_fract_y
_atom_site_fract_z
_atom_type_partial_charge
C1    C     C_R   0.492953 0.262086 0.499690 0.594605
C2    C     C_R   0.263136 0.007880 0.603008 0.318223
C3    C     C_R   0.273558 0.884096 0.626359 -0.118770
C4    C     C_R   0.341181 0.506947 0.499700 0.589192
C5    C     C_R   0.349373 0.838610 0.593272 -0.160603
C6    C     C_R   0.418970 0.917953 0.544043 -0.017542
C7    C     C_R   0.412239 0.047308 0.531934 0.003755
C8    C     C_R   0.487032 0.126803 0.497687 0.032434
C9    C     C_R   0.562408 0.076788 0.467507 -0.120484
C10   C     C_R   0.566057 0.950041 0.469676 -0.089081
C11   C     C_R   0.494791 0.870288 0.504381 0.032721
C12   C     C_3   0.943386 0.370499 0.498212 0.093358
C13   C     C_R   0.641888 0.637181 0.132467 0.236669
C14   C     C_R   0.712473 0.673287 0.050552 -0.010073
C15   C     C_R   0.703224 0.683387 0.910084 0.184409
C16   C     C_R   0.500814 0.737362 0.500771 0.544648
C17   C     C_R   0.625954 0.644909 0.850450 -0.051172
C18   C     C_R   0.562541 0.572291 0.923938 0.030786
C19   C     C_R   0.565756 0.570820 0.073215 0.094395
C20   C     C_R   0.441453 0.427425 0.073078 0.347160
C21   C     C_R   0.442047 0.426475 0.925729 0.358846
C22   C     C_R   0.659466 0.499826 0.500390 0.568317
C23   C     C_3   0.917494 0.505981 0.497968 0.011007
C24   C     C_3   0.041695 0.372920 0.500175 0.152845
C25   C     C_3   0.053531 0.576126 0.366432 -0.148732
C26   C     C_3   0.955098 0.575203 0.365665 0.389408
C27   C     C_1   0.749242 0.501953 0.501049 0.107847
C28   C     C_3   0.083770 0.509470 0.496781 -0.061915
C29   C     C_3   0.956903 0.574109 0.628421 -0.217146
C30   C     C_3   0.054689 0.577841 0.626188 -0.284684
C31   C     C_1   0.824936 0.504036 0.500344 0.098682
C32   C     C_1   0.176256 0.512233 0.498013 0.016572
C33   C     C_1   0.251768 0.511343 0.498859 0.086284
C34   C     C_R   0.330643 0.088718 0.550984 0.289087
Cl1   Cl    Cl    0.898262 0.280205 0.640642 -0.493314
Cl2   Cl    Cl    0.927703 0.732254 0.359129 -0.441522
Cl3   Cl    Cl    0.304214 0.229493 0.485054 -0.422152
Cl4   Cl    Cl    0.162673 0.057715 0.634690 -0.376063
Cl5   Cl    Cl    0.365913 0.325055 0.159106 -0.384720
Cl6   Cl    Cl    0.076284 0.281484 0.360268 -0.387732
Cl7   Cl    Cl    0.653437 0.729525 0.280712 -0.567347
Cl8   Cl    Cl    0.786182 0.755479 0.809771 -0.504299
Cl9   Cl    Cl    0.367508 0.322356 0.837708 -0.427127
Cl10  Cl    Cl    0.912164 0.502252 0.209770 -0.501453
Cu1   Cu    Cu3+1 0.499990 0.499990 0.640660 1.057133
Cu2   Cu    Cu3+1 0.500010 0.500010 0.359340 1.126326
H1    H     H_    0.619146 0.670874 0.745356 0.211190
H2    H     H_    0.625933 0.914997 0.448759 0.207304
H3    H     H_    0.771417 0.714100 0.096775 0.245948
H4    H     H_    0.075410 0.530826 0.271830 0.211086
H5    H     H_    0.083225 0.676216 0.626130 0.168896
H6    H     H_    0.932167 0.526788 0.724124 0.216221
H7    H     H_    0.084659 0.673108 0.364491 0.168786
H8    H     H_    0.076876 0.533872 0.721901 0.179025
H9    H     H_    0.916971 0.321329 0.404201 0.231524
H10   H     H_    0.062515 0.328672 0.596630 0.231694
H11   H     H_    0.938722 0.670409 0.634144 0.232126
H12   H     H_    0.619451 0.136826 0.443296 0.149581
H13   H     H_    0.221503 0.821364 0.665301 0.148696
H14   H     H_    0.352801 0.740781 0.608468 0.138681
N1    N     N_R   0.500800 0.501210 0.147910 -0.261562
N2    N     N_R   0.500820 0.501290 0.852040 -0.269066
O1    O     O_R   0.499990 0.319640 0.618810 -0.450680
O2    O     O_R   0.500000 0.319660 0.381240 -0.455644
O3    O     O_R   0.379430 0.499990 0.618840 -0.458064
O4    O     O_R   0.379440 0.500020 0.381260 -0.440150
O5    O     O_R   0.500000 0.680340 0.618760 -0.548566
O6    O     O_R   0.500010 0.680360 0.381190 -0.447664
O7    O     O_R   0.620560 0.499980 0.618740 -0.525598
O8    O     O_R   0.620570 0.500010 0.381160 -0.462540

loop_
_geom_bond_atom_site_label_1
_geom_bond_atom_site_label_2
_ccdc_geom_bond_type
Cu1   O5    S    
C30   H5    S    
Cu2   O6    S    
C6    C7    A    
C16   O6    A    
C12   C24   S    
C24   H10   S    
C34   Cl3   S    
C17   H1    S    
C9    C10   A    
C2    Cl4   S    
C22   O7    A    
C14   C15   A    
C32   C33   T    
C2    C34   A    
C28   C30   S    
C2    C3    A    
C26   Cl10  S    
C7    C8    A    
C16   O5    A    
C21   Cl9   S    
Cu1   Cu2   S    
C20   C21   A    
C12   Cl1   S    
C4    O4    A    
C30   H8    S    
C12   C23   S    
C21   N2    A    
C29   C30   S    
Cu1   O1    S    
C19   N1    A    
C1    O1    A    
C4    O3    A    
C13   Cl7   S    
C24   Cl6   S    
C25   H7    S    
Cu2   O4    S    
C22   C27   S    
C6    C11   A    
C10   H2    S    
C5    C6    A    
C7    C34   A    
Cu2   O8    S    
C12   H9    S    
C10   C11   A    
C29   H11   S    
Cu2   N1    S    
C27   C31   T    
C23   C31   S    
C1    C8    S    
C1    O2    A    
C23   C29   S    
Cu1   N2    S    
C28   C32   S    
C14   H3    S    
C17   C18   A    
C18   C19   A    
C11   C16   S    
C23   C26   S    
C26   Cl2   S    
C20   N1    A    
C15   C17   A    
C20   Cl5   S    
C13   C19   A    
C25   H4    S    
C9    H12   S    
C4    C33   S    
C5    H14   S    
C3    C5    A    
C25   C26   S    
C13   C14   A    
Cu1   O3    S    
Cu1   O7    S    
C22   O8    A    
C18   N2    A    
C24   C28   S    
C15   Cl8   S    
Cu2   O2    S    
C8    C9    A    
C25   C28   S    
C29   H6    S    
C3    H13   S    
