data_mof_unit_pretest_545.cif
_audit_creation_date              2012-12-10T18:47:07-0500
_audit_creation_method            fapswitch 2.2
_symmetry_space_group_name_H-M    P1
_symmetry_Int_Tables_number       1
_space_group_crystal_system       triclinic
_cell_length_a                    10.634147
_cell_length_b                    9.985643
_cell_length_c                    14.973832
_cell_angle_alpha                 90.067605
_cell_angle_beta                  91.962829
_cell_angle_gamma                 90.358812
_cell_volume                      1589.08752585

loop_
_atom_site_label
_atom_site_type_symbol
_atom_type_description
_atom_site_fract_x
_atom_site_fract_y
_atom_site_fract_z
_atom_type_partial_charge
C1    C     C_R   0.260854 0.499496 0.500363 0.965923
C2    C     C_R   0.128239 0.497761 0.501967 -0.308106
C3    C     C_R   0.569638 0.071339 0.562724 0.409984
C4    C     C_R   0.430362 0.928661 0.437275 0.409987
C5    C     C_R   0.430360 0.070437 0.437267 0.405069
C6    C     C_R   0.569640 0.929563 0.562733 0.405071
C7    C     C_R   0.496710 0.499717 0.327294 0.855802
C8    C     C_R   0.503290 0.500283 0.672706 0.855800
C9    C     C_R   0.596813 0.422618 0.816546 0.496095
C10   C     C_R   0.403186 0.577380 0.183453 0.496110
C11   C     C_R   0.509449 0.501646 0.768418 -0.189180
C12   C     C_R   0.739145 0.500503 0.499637 0.965918
C13   C     C_R   0.490551 0.498354 0.231582 -0.189185
C14   C     C_R   0.424087 0.581789 0.810798 -0.217710
C15   C     C_R   0.575913 0.418211 0.189201 -0.217700
C16   C     C_R   0.416152 0.579216 0.902930 0.010475
C17   C     C_R   0.583847 0.420781 0.097070 0.010475
C18   C     C_R   0.501920 0.499240 0.953356 -0.111854
C19   C     C_R   0.498078 0.500757 0.046644 -0.111857
C20   C     C_R   0.591469 0.417966 0.910211 -0.036995
C21   C     C_R   0.408529 0.582031 0.089788 -0.036995
C22   C     C_R   0.325184 0.657305 0.945077 0.303110
C23   C     C_R   0.324672 0.663360 0.038647 0.469289
C24   C     C_R   0.674814 0.342690 0.054923 0.303115
C25   C     C_R   0.675325 0.336635 0.961353 0.469282
C26   C     C_R   0.063158 0.440782 0.428342 0.407931
C27   C     C_R   0.936840 0.559200 0.571665 0.407950
C28   C     C_R   0.932473 0.444292 0.425365 0.304269
C29   C     C_R   0.067527 0.555703 0.574637 0.304255
C30   C     C_R   0.871761 0.502238 0.498034 -0.308113
H1    H     H_    0.363655 0.646045 0.770332 0.201299
H2    H     H_    0.926599 0.650409 0.687501 0.406955
H3    H     H_    0.781766 0.429232 0.347081 0.329236
H4    H     H_    0.218239 0.570796 0.652914 0.329232
H5    H     H_    0.656656 0.226677 0.609309 0.383817
H6    H     H_    0.343343 0.773323 0.390691 0.383818
H7    H     H_    0.344217 0.225161 0.390194 0.400575
H8    H     H_    0.655783 0.774839 0.609806 0.400584
H9    H     H_    0.636346 0.353955 0.229668 0.201300
H10   H     H_    0.711283 0.402301 0.718398 0.336618
H11   H     H_    0.288717 0.597698 0.281603 0.336637
H12   H     H_    0.199297 0.668085 0.849409 0.363117
H13   H     H_    0.800703 0.331911 0.150589 0.363130
H14   H     H_    0.195089 0.803439 0.038031 0.393635
H15   H     H_    0.804883 0.196530 0.961968 0.393636
H16   H     H_    0.073399 0.349360 0.312581 0.406981
N1    N     N_R   0.500000 0.857200 0.500000 -0.280235
N2    N     N_R   0.500000 0.142800 0.500000 -0.280232
O1    O     O_R   0.316770 0.614620 0.499990 -0.642749
O2    O     O_3   0.309829 0.645832 0.226250 -0.640783
O3    O     O_3   0.235309 0.728270 0.896472 -0.741220
O4    O     O_3   0.764688 0.271725 0.103528 -0.741220
O5    O     O_3   0.241499 0.745964 0.081480 -0.640434
O6    O     O_3   0.758499 0.254030 0.918521 -0.640440
O7    O     O_3   0.130986 0.387440 0.359441 -0.751537
O8    O     O_3   0.869010 0.612529 0.640570 -0.751537
O9    O     O_3   0.867983 0.392854 0.350952 -0.753282
O10   O     O_3   0.132018 0.607165 0.649043 -0.753277
O11   O     O_3   0.643813 0.133602 0.627466 -0.630619
O12   O     O_R   0.683230 0.385380 0.500010 -0.642763
O13   O     O_3   0.356187 0.866398 0.372534 -0.630622
O14   O     O_3   0.356215 0.131755 0.372523 -0.646399
O15   O     O_3   0.643785 0.868245 0.627477 -0.646366
O16   O     O_R   0.683230 0.614620 0.500010 -0.609674
O17   O     O_R   0.316770 0.385380 0.499990 -0.609693
O18   O     O_R   0.499980 0.614680 0.367850 -0.613286
O19   O     O_R   0.500020 0.385320 0.632150 -0.613282
O20   O     O_R   0.500020 0.614680 0.632150 -0.615162
O21   O     O_R   0.499980 0.385320 0.367850 -0.615158
O22   O     O_3   0.690169 0.354165 0.773749 -0.640802
Zn1   Zn    Zn3+2 0.500000 0.653120 0.500000 0.985999
Zn2   Zn    Zn3+2 0.500000 0.346880 0.500000 0.985986

loop_
_geom_bond_atom_site_label_1
_geom_bond_atom_site_label_2
_ccdc_geom_bond_type
C6    O15   S    
C24   O4    S    
O21   Zn2   S    
C1    O17   A    
C5    O14   S    
C1    O1    A    
C7    O21   A    
C19   C21   A    
H16   O7    S    
C27   C29   A    
O17   Zn2   S    
C3    N2    A    
C9    C20   A    
C26   C28   A    
O18   Zn1   S    
H12   O3    S    
C3    C6    A    
N1    Zn1   S    
C26   O7    S    
C28   C30   A    
H7    O14   S    
H14   O5    S    
C2    C26   A    
C10   C13   A    
C28   O9    S    
C9    O22   S    
C7    O18   A    
H4    O10   S    
C9    C11   A    
C15   H9    S    
H10   O22   S    
C25   O6    S    
N2    Zn2   S    
C8    C11   S    
C1    C2    S    
C23   O5    S    
H5    O11   S    
C17   C19   A    
H15   O6    S    
C8    O20   A    
C18   C20   A    
C13   C15   A    
C21   C23   A    
O1    Zn1   S    
C5    N2    A    
C12   O16   A    
O20   Zn1   S    
C14   C16   A    
H13   O4    S    
C22   O3    S    
C17   C24   A    
C6    N1    A    
O12   Zn2   S    
H6    O13   S    
C12   O12   A    
H11   O2    S    
C7    C13   S    
C2    C29   A    
C24   C25   A    
C8    O19   A    
C16   C18   A    
O19   Zn2   S    
C20   C25   A    
O16   Zn1   S    
C11   C14   A    
C15   C17   A    
C14   H1    S    
C3    O11   S    
C27   O8    S    
C18   C19   A    
H3    O9    S    
C12   C30   S    
H8    O15   S    
C10   C21   A    
C4    O13   S    
H2    O8    S    
C22   C23   A    
C29   O10   S    
C16   C22   A    
C4    C5    A    
C27   C30   A    
C4    N1    A    
C10   O2    S    
