data_mof_unit_pretest_598.cif
_audit_creation_date              2012-12-11T17:25:04-0500
_audit_creation_method            fapswitch 2.2
_symmetry_space_group_name_H-M    P1
_symmetry_Int_Tables_number       1
_space_group_crystal_system       triclinic
_cell_length_a                    6.950639
_cell_length_b                    20.569125
_cell_length_c                    24.518557
_cell_angle_alpha                 89.920227
_cell_angle_beta                  90.783588
_cell_angle_gamma                 89.829257
_cell_volume                      3505.03586862

loop_
_atom_site_label
_atom_site_type_symbol
_atom_type_description
_atom_site_fract_x
_atom_site_fract_y
_atom_site_fract_z
_atom_type_partial_charge
O1    O     O_R   0.507280 0.423750 0.460310 -0.536660
O2    O     O_R   0.171030 0.555650 0.437630 -0.537541
O3    O     O_R   0.004080 0.576250 0.539690 -0.534890
C1    C     C_R   0.339038 0.575687 0.421775 0.724730
O4    O     O_R   0.177330 0.422980 0.453960 -0.539124
O5    O     O_R   0.010420 0.442640 0.556140 -0.533760
C2    C     C_R   0.345538 0.399295 0.442971 0.692949
O6    O     O_R   0.500930 0.557360 0.443860 -0.534759
O7    O     O_3   0.340310 0.506600 0.533500 -0.367884
V1    V     V_3+5 0.064140 0.498780 0.493780 1.429178
O8    O     O_R   0.680890 0.444350 0.562370 -0.540222
C3    C     C_R   0.850475 0.423446 0.577427 0.745178
O9    O     O_R   0.674590 0.577020 0.546040 -0.542885
C4    C     C_R   0.843960 0.600470 0.557051 0.714779
V2    V     V_3+5 0.564550 0.501220 0.506220 1.417190
O10   O     O_3   0.838250 0.493400 0.466500 -0.368446
C5    C     C_R   0.962341 0.838085 0.912626 -0.042071
C6    C     C_R   0.855929 0.659810 0.590805 -0.076734
C7    C     C_R   0.843095 0.727958 0.910531 -0.163454
C8    C     C_R   0.896536 0.782939 0.939742 -0.165385
C9    C     C_R   0.979843 0.837356 0.855555 -0.217964
C10   C     C_R   0.922636 0.782024 0.824480 0.085110
C11   C     C_R   0.850913 0.727574 0.853447 0.138939
C12   C     C_R   0.926351 0.779475 0.765896 0.058501
C13   C     C_R   0.865202 0.721710 0.737918 0.049404
C14   C     C_R   0.775951 0.672919 0.768882 -0.174580
C15   C     C_R   0.775741 0.674535 0.825313 -0.206026
C16   C     C_R   0.980219 0.833518 0.734243 -0.185574
C17   C     C_R   0.969082 0.831885 0.677684 -0.192990
C18   C     C_R   0.919575 0.774914 0.650080 0.129456
C19   C     C_R   0.880535 0.717022 0.679457 0.041735
C20   C     C_R   0.912926 0.775608 0.592977 -0.162200
C21   C     C_R   0.876505 0.719067 0.563832 -0.188127
C22   C     C_R   0.863978 0.657501 0.648735 -0.065326
H1    H     H_    0.709251 0.634773 0.847114 0.125599
H2    H     H_    0.873512 0.721016 0.519653 0.112006
H3    H     H_    0.003928 0.875602 0.655162 0.122307
H4    H     H_    0.787936 0.686425 0.932573 0.113742
H5    H     H_    0.879815 0.783364 0.983624 0.107193
H6    H     H_    0.030049 0.881437 0.836794 0.096319
H7    H     H_    0.694673 0.634412 0.750306 0.146895
H8    H     H_    0.024594 0.879020 0.751946 0.122790
H9    H     H_    0.937989 0.820212 0.570610 0.116233
H10   H     H_    0.619175 0.199298 0.788208 0.111769
C23   C     C_R   0.730129 0.264209 0.727298 -0.161404
H11   H     H_    0.588293 0.276517 0.711516 0.110114
C24   C     C_R   0.894405 0.292061 0.704249 0.130524
C25   C     C_R   0.076490 0.275478 0.725687 -0.162192
H12   H     H_    0.204987 0.296631 0.708645 0.111297
C26   C     C_R   0.094134 0.231488 0.769412 -0.157122
H13   H     H_    0.235954 0.219395 0.785322 0.110998
C27   C     C_R   0.929879 0.203492 0.792388 0.137301
C28   C     C_R   0.747757 0.220222 0.771025 -0.155014
C29   C     C_1   0.876491 0.337940 0.659149 -0.069570
C30   C     C_1   0.947712 0.158050 0.837853 -0.061799
C31   C     C_1   0.960897 0.120266 0.875950 -0.192215
C32   C     C_1   0.863209 0.376780 0.621834 -0.177491
H14   H     H_    0.699094 0.702041 0.296203 0.112260
C33   C     C_R   0.596873 0.767253 0.233263 -0.156663
H15   H     H_    0.740843 0.779941 0.220744 0.110685
C34   C     C_R   0.436177 0.795020 0.206671 0.136258
C35   C     C_R   0.251258 0.777472 0.223867 -0.155528
H16   H     H_    0.125151 0.798188 0.203963 0.112256
C36   C     C_R   0.227372 0.732979 0.266904 -0.156528
H17   H     H_    0.083402 0.720287 0.279420 0.110710
C37   C     C_R   0.388068 0.705210 0.293496 0.136252
C38   C     C_R   0.572987 0.722761 0.276301 -0.155633
C39   C     C_1   0.459986 0.841012 0.161762 -0.060022
C40   C     C_1   0.364258 0.659199 0.338392 -0.059959
C41   C     C_1   0.348889 0.620983 0.376132 -0.192868
C42   C     C_1   0.475356 0.879198 0.124000 -0.193234
C43   C     C_R   0.475621 0.161258 0.089538 -0.043376
C44   C     C_R   0.349362 0.338807 0.410563 -0.043731
C45   C     C_R   0.550177 0.275765 0.096055 -0.162226
C46   C     C_R   0.537468 0.218943 0.065518 -0.166014
C47   C     C_R   0.427059 0.160754 0.145141 -0.215195
C48   C     C_R   0.442597 0.218078 0.177734 0.086369
C49   C     C_R   0.504974 0.275817 0.151674 0.139299
C50   C     C_R   0.401550 0.220158 0.235098 0.057757
C51   C     C_R   0.423622 0.279889 0.265019 0.057775
C52   C     C_R   0.485374 0.335522 0.236537 -0.186824
C53   C     C_R   0.524583 0.333356 0.181207 -0.200866
C54   C     C_R   0.339882 0.164518 0.263585 -0.186736
C55   C     C_R   0.300724 0.166680 0.318919 -0.200748
C56   C     C_R   0.320262 0.224226 0.348447 0.139040
C57   C     C_R   0.382538 0.281972 0.322380 0.086352
C58   C     C_R   0.275085 0.224277 0.404069 -0.161603
C59   C     C_R   0.287676 0.281109 0.434597 -0.166432
C60   C     C_R   0.397920 0.339310 0.354961 -0.215106
H18   H     H_    0.572299 0.377455 0.161291 0.123452
H19   H     H_    0.441672 0.385377 0.338345 0.095294
H20   H     H_    0.247644 0.280216 0.477154 0.107680
H21   H     H_    0.253092 0.122574 0.338842 0.123605
H22   H     H_    0.598626 0.319801 0.076224 0.113350
H23   H     H_    0.577497 0.219838 0.022961 0.107678
H24   H     H_    0.383131 0.114700 0.161744 0.095362
H25   H     H_    0.505737 0.381971 0.255899 0.123810
H26   H     H_    0.319601 0.118062 0.244229 0.123859
H27   H     H_    0.226728 0.180234 0.423907 0.113834
O11   O     O_R   0.323320 0.942780 0.056240 -0.534772
O12   O     O_R   0.647300 0.077050 0.046060 -0.538275
O13   O     O_R   0.813840 0.057330 0.943840 -0.534406
C61   C     C_R   0.479189 0.100781 0.057106 0.693942
O14   O     O_R   0.653250 0.944380 0.062400 -0.537784
O15   O     O_R   0.819830 0.923720 0.960300 -0.535990
C62   C     C_R   0.485218 0.924435 0.078316 0.724036
O16   O     O_R   0.317330 0.076390 0.039790 -0.536336
O17   O     O_3   0.483830 0.993470 0.966560 -0.366284
V3    V     V_3+5 0.760140 0.001210 0.006210 1.425815
O18   O     O_R   0.149290 0.922840 0.953850 -0.539765
C63   C     C_R   0.979590 0.898984 0.943568 0.695613
O19   O     O_R   0.143340 0.055500 0.937510 -0.538064
C64   C     C_R   0.973609 0.075454 0.921732 0.726026
V4    V     V_3+5 0.259690 0.998600 0.993650 1.424834
O20   O     O_3   0.986130 0.006520 0.033440 -0.367225
C65   C     C_R   0.888954 0.592971 0.675106 0.059361
C66   C     C_R   0.062928 0.577653 0.702084 -0.098062
C67   C     C_R   0.082215 0.519202 0.730792 -0.125358
C68   C     C_R   0.927634 0.476074 0.733217 -0.090519
C69   C     C_R   0.754910 0.490605 0.705873 -0.129469
C70   C     C_R   0.736430 0.548249 0.675996 -0.163284
H28   H     H_    0.182138 0.611444 0.701554 0.107162
H29   H     H_    0.216151 0.507744 0.751752 0.105552
H30   H     H_    0.941893 0.431263 0.756122 0.116737
H31   H     H_    0.635401 0.457090 0.707738 0.114115
H32   H     H_    0.600786 0.559482 0.655816 0.119932

loop_
_geom_bond_atom_site_label_1
_geom_bond_atom_site_label_2
_ccdc_geom_bond_type
C13   C19   A    
C50   C54   A    
C58   C59   A    
C1    C41   S    
C4    C6    S    
O2    C1    A    
C7    C8    A    
C1    O6    A    
C21   H2    S    
O14   C62   A    
V4    O20   S    
C46   H23   S    
C2    C44   S    
C68   H30   S    
C65   C66   A    
C14   C15   A    
C17   C18   A    
C16   C17   A    
O5    C3    A    
O14   V3    S    
C37   C40   S    
C22   C65   S    
V2    O10   S    
C5    C8    A    
O17   V3    S    
C23   C24   A    
O17   V4    S    
C45   H22   S    
C67   C68   A    
C35   C36   A    
C33   C38   A    
O18   C63   A    
O8    V2    S    
H10   C28   S    
C24   C25   A    
C54   H26   S    
C26   C27   A    
C31   C64   S    
O1    V2    S    
C11   C15   A    
C60   H19   S    
O7    V1    S    
O18   V4    S    
C27   C30   S    
C43   C47   A    
C67   H29   S    
C56   C58   A    
C37   C38   A    
O15   C63   A    
C23   C28   A    
C33   H15   S    
O12   C61   A    
O9    C4    A    
C34   C35   A    
C43   C46   A    
C5    C63   S    
O19   V4    S    
O19   C64   A    
C52   C53   A    
C58   H27   S    
C47   C48   A    
C48   C50   A    
C33   C34   A    
C45   C46   A    
C59   H20   S    
O11   V4    S    
C12   C13   A    
C65   C70   A    
O4    C2    A    
C8    H5    S    
C69   H31   S    
C15   H1    S    
C13   C14   A    
C48   C49   A    
C5    C9    A    
C36   C37   A    
C7    C11   A    
C66   H28   S    
C44   C59   A    
C35   H16   S    
C7    H4    S    
C49   C53   A    
C54   C55   A    
C68   C69   A    
C30   C31   T    
C26   H13   S    
C19   C22   A    
C55   C56   A    
C6    C22   A    
C56   C57   A    
O3    C4    A    
C24   C29   S    
C3    C32   S    
C25   H12   S    
O6    V2    S    
O9    V2    S    
C10   C12   A    
O2    V1    S    
C27   C28   A    
O16   V4    S    
O15   V3    S    
C16   H8    S    
O1    C2    A    
O11   C62   A    
C10   C11   A    
C12   C16   A    
C51   C52   A    
C57   C60   A    
O5    V1    S    
O8    C3    A    
C43   C61   S    
C51   C57   A    
C53   H18   S    
C20   C21   A    
O7    V2    S    
C44   C60   A    
O4    V1    S    
O3    V1    S    
V1    O10   S    
C66   C67   A    
C47   H24   S    
C18   C20   A    
C34   C39   S    
C18   C19   A    
C9    H6    S    
C52   H25   S    
C39   C42   T    
C36   H17   S    
C25   C26   A    
C20   H9    S    
C55   H21   S    
C40   C41   T    
C6    C21   A    
V3    O20   S    
C50   C51   A    
C23   H11   S    
H14   C38   S    
C70   H32   S    
C45   C49   A    
C42   C62   S    
C17   H3    S    
O13   C64   A    
C69   C70   A    
O13   V3    S    
C61   O16   A    
C9    C10   A    
O12   V3    S    
C14   H7    S    
C29   C32   T    
