data_mof_unit_pretest_1829.cif
_audit_creation_date              2012-12-10T18:50:56-0500
_audit_creation_method            fapswitch 2.2
_symmetry_space_group_name_H-M    P1
_symmetry_Int_Tables_number       1
_space_group_crystal_system       triclinic
_cell_length_a                    37.198493
_cell_length_b                    30.296449
_cell_length_c                    21.731547
_cell_angle_alpha                 89.77705
_cell_angle_beta                  125.526516
_cell_angle_gamma                 90.232877
_cell_volume                      19931.7744281

loop_
_atom_site_label
_atom_site_type_symbol
_atom_type_description
_atom_site_fract_x
_atom_site_fract_y
_atom_site_fract_z
_atom_type_partial_charge
C1    C     C_R   0.413848 0.499921 0.913155 0.860374
C2    C     C_R   0.586150 0.500071 0.086804 0.859867
C3    C     C_R   0.913673 0.000013 0.912483 0.860225
C4    C     C_R   0.086349 0.000096 0.085104 0.858436
C5    C     C_2   0.507125 0.501659 0.822244 -0.379732
C6    C     C_2   0.492926 0.498298 0.177788 -0.374567
C7    C     C_2   0.007025 0.001693 0.822150 -0.378542
C8    C     C_2   0.993141 0.001231 0.178041 -0.385755
C9    C     C_R   0.298053 0.530045 0.836952 -0.147868
C10   C     C_R   0.701749 0.469015 0.163272 -0.145272
C11   C     C_R   0.797270 0.960999 0.815805 -0.151466
C12   C     C_R   0.202497 0.960935 0.220196 -0.149445
C13   C     C_R   0.343796 0.530013 0.880461 -0.197930
C14   C     C_R   0.656022 0.469357 0.119761 -0.198337
C15   C     C_R   0.843019 0.962385 0.861961 -0.191956
C16   C     C_R   0.156765 0.962263 0.174617 -0.190859
C17   C     C_R   0.365978 0.499684 0.865159 -0.071643
C18   C     C_R   0.634015 0.500221 0.134598 -0.072357
C19   C     C_R   0.865491 0.999860 0.862286 -0.083075
C20   C     C_R   0.134571 0.000081 0.131456 -0.081580
C21   C     C_R   0.342028 0.469518 0.804861 -0.010242
C22   C     C_R   0.658138 0.530664 0.194386 -0.009245
C23   C     C_R   0.841330 0.036050 0.814353 -0.009347
C24   C     C_R   0.159056 0.036695 0.133547 -0.009982
C25   C     C_R   0.296158 0.470092 0.761120 -0.198518
C26   C     C_R   0.703995 0.529807 0.238097 -0.200919
C27   C     C_R   0.795466 0.034383 0.768861 -0.201543
C28   C     C_R   0.204922 0.035076 0.180028 -0.203470
C29   C     C_R   0.274434 0.500070 0.777562 0.097002
C30   C     C_R   0.725541 0.499253 0.222167 0.096671
C31   C     C_R   0.773744 0.997088 0.769885 0.097636
C32   C     C_R   0.226377 0.997408 0.223054 0.099123
C33   C     C_R   0.205134 0.516542 0.656338 -0.221108
C34   C     C_R   0.794827 0.484117 0.344175 -0.221754
C35   C     C_R   0.704590 0.021862 0.746705 -0.216559
C36   C     C_R   0.295628 0.024547 0.335294 -0.216733
C37   C     C_R   0.159318 0.517370 0.608231 -0.006496
C38   C     C_R   0.840636 0.483508 0.392426 -0.007593
C39   C     C_R   0.658779 0.023755 0.702572 -0.007663
C40   C     C_R   0.341450 0.026155 0.382771 -0.004654
C41   C     C_R   0.134680 0.501638 0.634597 -0.104068
C42   C     C_R   0.865294 0.497902 0.365322 -0.099440
C43   C     C_R   0.634277 0.000059 0.634048 -0.095924
C44   C     C_R   0.365886 0.999733 0.366220 -0.085348
C45   C     C_R   0.502044 0.500192 0.883115 0.928760
C46   C     C_R   0.497977 0.499801 0.116899 0.928573
C47   C     C_R   0.002024 0.000202 0.883099 0.928500
C48   C     C_R   0.997999 0.000044 0.116929 0.930716
C49   C     C_R   0.156605 0.486423 0.709313 -0.229429
C50   C     C_R   0.843353 0.511411 0.289697 -0.230723
C51   C     C_R   0.655922 0.975092 0.610623 -0.238842
C52   C     C_R   0.344339 0.972109 0.302814 -0.239680
C53   C     C_R   0.202445 0.486057 0.757396 0.021803
C54   C     C_R   0.797524 0.511541 0.241503 0.025269
C55   C     C_R   0.701742 0.972925 0.655258 0.023966
C56   C     C_R   0.298501 0.970244 0.255788 0.028517
C57   C     C_R   0.226602 0.500971 0.730279 0.038103
C58   C     C_R   0.773365 0.498133 0.269400 0.039841
C59   C     C_R   0.725955 0.996540 0.723437 0.035312
C60   C     C_R   0.274218 0.996759 0.272284 0.036651
C61   C     C_R   0.499952 0.413844 0.499976 0.871267
C62   C     C_R   0.999959 0.913848 0.499948 0.867355
C63   C     C_R   0.499806 0.498254 0.618809 0.947632
C64   C     C_R   0.500191 0.501657 0.381181 0.948997
C65   C     C_R   0.999811 0.998237 0.618815 0.948529
C66   C     C_R   0.000188 0.998185 0.381209 0.947824
C67   C     C_R   0.500033 0.586294 0.500123 0.862565
C68   C     C_R   0.000038 0.086300 0.500071 0.867010
C69   C     C_R   0.000002 0.413816 0.500117 0.876359
C70   C     C_R   0.499981 0.913774 0.500079 0.872405
C71   C     C_R   0.086460 0.500768 0.586314 0.879026
C72   C     C_R   0.913532 0.499113 0.413678 0.878442
C73   C     C_R   0.586319 0.000493 0.586269 0.878578
C74   C     C_R   0.413740 0.000312 0.413863 0.878611
C75   C     C_R   0.999997 0.586356 0.499890 0.885636
C76   C     C_R   0.499935 0.086353 0.499842 0.887102
C77   C     C_R   0.471404 0.296934 0.431809 -0.181024
C78   C     C_R   0.527872 0.296649 0.567311 -0.180815
C79   C     C_R   0.971787 0.796926 0.431728 -0.181110
C80   C     C_R   0.028124 0.796698 0.567282 -0.181048
C81   C     C_R   0.000026 0.274104 0.500543 0.070932
C82   C     C_R   0.500003 0.773978 0.501453 0.071079
C83   C     C_R   0.471483 0.342750 0.431291 -0.021512
C84   C     C_R   0.528012 0.342463 0.568189 -0.019008
C85   C     C_R   0.971723 0.842746 0.431201 -0.018536
C86   C     C_R   0.028097 0.842503 0.568157 -0.018810
C87   C     C_R   0.499822 0.365847 0.499822 -0.122767
C88   C     C_R   0.999892 0.865860 0.499768 -0.121403
C89   C     C_R   0.499594 0.274117 0.499465 0.076022
C90   C     C_R   0.999971 0.774136 0.499424 0.075509
C91   C     C_R   0.985509 0.702822 0.537704 0.012876
C92   C     C_R   0.014232 0.703062 0.461029 0.012222
C93   C     C_R   0.485082 0.202723 0.537481 0.008330
C94   C     C_R   0.513949 0.203133 0.461028 0.014673
C95   C     C_R   0.985923 0.657009 0.537995 -0.228541
C96   C     C_R   0.013875 0.657232 0.461021 -0.227894
C97   C     C_R   0.485553 0.156910 0.537715 -0.216261
C98   C     C_R   0.513664 0.157305 0.460979 -0.229942
C99   C     C_R   0.999930 0.634226 0.499613 -0.068524
C100  C     C_R   0.499711 0.134216 0.499477 -0.067955
C101  C     C_R   0.999884 0.726071 0.499341 0.010626
C102  C     C_R   0.499513 0.226054 0.499279 0.009718
C103  C     C_R   0.460018 0.702988 0.457097 -0.170461
C104  C     C_R   0.539994 0.703113 0.545876 -0.170865
C105  C     C_R   0.960282 0.202969 0.468021 -0.169983
C106  C     C_R   0.039885 0.203215 0.533118 -0.170389
C107  C     C_R   0.460025 0.657271 0.456597 -0.186966
C108  C     C_R   0.540048 0.657389 0.545323 -0.184015
C109  C     C_R   0.960259 0.157242 0.467729 -0.185500
C110  C     C_R   0.039918 0.157473 0.533104 -0.185629
C111  C     C_R   0.500054 0.634258 0.500635 -0.032800
C112  C     C_R   0.000085 0.134279 0.500303 -0.034612
C113  C     C_R   0.031062 0.297007 0.566753 -0.202393
C114  C     C_R   0.968920 0.296974 0.434254 -0.203648
C115  C     C_R   0.529355 0.796813 0.492389 -0.203670
C116  C     C_R   0.470457 0.796839 0.509632 -0.205197
C117  C     C_R   0.499993 0.725997 0.501679 0.129807
C118  C     C_R   0.000074 0.226074 0.500604 0.129823
C119  C     C_R   0.999959 0.365941 0.500331 -0.120519
C120  C     C_R   0.499872 0.865832 0.500229 -0.124063
C121  C     C_R   0.031320 0.342831 0.567133 -0.015129
C122  C     C_R   0.968581 0.342791 0.433681 -0.015792
C123  C     C_R   0.529546 0.842611 0.491718 -0.014448
C124  C     C_R   0.470089 0.842661 0.508939 -0.016512
C125  C     C_2   0.533296 0.477014 0.749109 -0.181158
C126  C     C_2   0.466679 0.522824 0.250859 -0.185857
C127  C     C_2   0.033460 0.977271 0.749297 -0.180075
C128  C     C_2   0.966671 0.976696 0.251097 -0.181600
C129  C     C_2   0.498544 0.492517 0.683275 -0.352629
C130  C     C_2   0.501435 0.507309 0.316689 -0.347488
C131  C     C_2   0.998576 0.992470 0.683310 -0.352457
C132  C     C_2   0.001463 0.992239 0.316848 -0.354721
C133  C     C_2   0.530858 0.472225 0.813594 0.028191
C134  C     C_2   0.469100 0.527638 0.186357 0.031693
C135  C     C_2   0.031095 0.972522 0.813872 0.020833
C136  C     C_2   0.969131 0.971885 0.186659 0.025569
H1    H     H_    0.974690 0.639106 0.567237 0.165807
H2    H     H_    0.025134 0.639495 0.431912 0.168841
H3    H     H_    0.474271 0.138935 0.566822 0.173729
H4    H     H_    0.525000 0.139636 0.431932 0.165456
H5    H     H_    0.493309 0.530560 0.785891 0.155275
H6    H     H_    0.506814 0.469416 0.214173 0.157614
H7    H     H_    0.992865 0.030424 0.785450 0.158555
H8    H     H_    0.007240 0.030026 0.214437 0.156125
H9    H     H_    0.361924 0.553240 0.926713 0.168237
H10   H     H_    0.637770 0.445903 0.073906 0.168826
H11   H     H_    0.860823 0.934331 0.898165 0.173296
H12   H     H_    0.138758 0.933845 0.173910 0.167589
O1    O     O_R   0.434530 0.536960 0.934530 -0.620467
O2    O     O_R   0.565470 0.536960 0.065470 -0.611854
O3    O     O_R   0.934530 0.036960 0.934530 -0.613532
O4    O     O_R   0.065470 0.036960 0.065470 -0.614059
O5    O     O_R   0.065470 0.500010 0.514410 -0.613533
O6    O     O_R   0.934530 0.500010 0.485590 -0.615121
O7    O     O_R   0.565470 0.000010 0.514410 -0.618607
O8    O     O_R   0.434530 0.000010 0.485590 -0.607606
O9    O     O_R   0.065460 0.500010 0.616540 -0.619284
O10   O     O_R   0.934540 0.500010 0.383460 -0.618396
O11   O     O_R   0.565460 0.000010 0.616540 -0.612277
O12   O     O_R   0.434540 0.000010 0.383460 -0.622171
O13   O     O_R   0.000010 0.565480 0.448930 -0.623526
O14   O     O_R   0.999990 0.565480 0.551070 -0.624690
O15   O     O_R   0.500010 0.065480 0.448930 -0.626491
O16   O     O_R   0.499990 0.065480 0.551070 -0.617777
O17   O     O_R   0.434530 0.463040 0.934530 -0.610787
O18   O     O_R   0.565470 0.463040 0.065470 -0.620193
O19   O     O_R   0.934530 0.963040 0.934530 -0.620008
O20   O     O_R   0.065470 0.963040 0.065470 -0.620395
O21   O     O_R   0.500010 0.536960 0.909550 -0.620691
O22   O     O_R   0.499990 0.536960 0.090450 -0.601420
O23   O     O_R   0.000010 0.036960 0.909550 -0.612980
O24   O     O_R   0.999990 0.036960 0.090450 -0.618168
O25   O     O_R   0.500010 0.463040 0.909550 -0.601028
O26   O     O_R   0.499990 0.463040 0.090450 -0.618625
O27   O     O_R   0.000010 0.963040 0.909550 -0.605560
O28   O     O_R   0.999990 0.963040 0.090450 -0.606496
O29   O     O_R   0.536960 0.434530 0.536970 -0.613908
O30   O     O_R   0.463040 0.434530 0.463030 -0.611025
O31   O     O_R   0.036960 0.934530 0.536970 -0.614530
O32   O     O_R   0.963040 0.934530 0.463030 -0.613992
O33   O     O_R   0.536950 0.500000 0.627420 -0.612916
O34   O     O_R   0.463050 0.500000 0.372580 -0.611604
O35   O     O_R   0.036950 0.000000 0.627420 -0.612391
O36   O     O_R   0.963050 0.000000 0.372580 -0.612643
O37   O     O_R   0.463030 0.500000 0.553490 -0.621405
O38   O     O_R   0.536970 0.500000 0.446510 -0.621956
O39   O     O_R   0.963030 0.000000 0.553490 -0.621527
O40   O     O_R   0.036970 0.000000 0.446510 -0.622783
O41   O     O_R   0.536960 0.565470 0.536960 -0.626641
O42   O     O_R   0.463040 0.565470 0.463040 -0.630558
O43   O     O_R   0.036960 0.065470 0.536960 -0.626206
O44   O     O_R   0.963040 0.065470 0.463040 -0.626424
O45   O     O_R   1.000000 0.434540 0.448940 -0.611684
O46   O     O_R   0.000000 0.434540 0.551060 -0.609697
O47   O     O_R   0.500000 0.934540 0.448940 -0.614365
O48   O     O_R   0.500000 0.934540 0.551060 -0.611017
Zn1   Zn    Zn3+2 0.500000 0.549350 0.000000 0.997310
Zn2   Zn    Zn3+2 0.000000 0.049350 0.000000 1.000458
Zn3   Zn    Zn3+2 0.500000 0.450640 0.000000 1.001721
Zn4   Zn    Zn3+2 0.000000 0.950640 0.000000 0.995698
Zn5   Zn    Zn3+2 0.549360 0.500000 0.549360 0.980707
Zn6   Zn    Zn3+2 0.450640 0.500000 0.450640 0.980456
Zn7   Zn    Zn3+2 0.049360 0.000000 0.549360 0.979522
Zn8   Zn    Zn3+2 0.950640 0.000000 0.450640 0.980447
Zn9   Zn    Zn3+2 0.000010 0.500010 0.431810 0.995165
Zn10  Zn    Zn3+2 0.999990 0.500010 0.568190 0.995089
Zn11  Zn    Zn3+2 0.500010 0.000010 0.431810 0.983138
Zn12  Zn    Zn3+2 0.499990 0.000010 0.568190 1.007797
H13   H     H_    0.563107 0.466655 0.755004 0.185556
H14   H     H_    0.436894 0.533237 0.245013 0.175233
H15   H     H_    0.063363 0.967166 0.755295 0.185965
H16   H     H_    0.936754 0.966467 0.245163 0.185562
C137  C     C_1   0.138955 0.535818 0.533530 0.193054
N1    N     N_1   0.122723 0.550648 0.473764 -0.193398
C138  C     C_1   0.860924 0.466811 0.468185 0.196683
N2    N     N_1   0.877084 0.453388 0.528804 -0.188399
C139  C     C_1   0.638000 0.051647 0.727230 0.182152
N3    N     N_1   0.621371 0.074018 0.746953 -0.187446
C140  C     C_1   0.362434 0.056472 0.445771 0.178618
N4    N     N_1   0.379254 0.080778 0.496171 -0.195731
H17   H     H_    0.137995 0.474237 0.730015 0.179203
H18   H     H_    0.861925 0.522519 0.268312 0.170429
H19   H     H_    0.637035 0.956996 0.557835 0.177886
H20   H     H_    0.363351 0.951781 0.290442 0.159327
C141  C     C_1   0.223996 0.469281 0.833408 0.164893
N5    N     N_1   0.241286 0.455850 0.894301 -0.182944
C142  C     C_1   0.775994 0.526673 0.164567 0.158576
N6    N     N_1   0.758720 0.538782 0.102936 -0.187395
C143  C     C_1   0.723252 0.947096 0.629679 0.167779
N7    N     N_1   0.740510 0.926411 0.609237 -0.183416
C144  C     C_1   0.277090 0.941900 0.190219 0.158911
N8    N     N_1   0.259908 0.919205 0.137684 -0.183597
H21   H     H_    0.054915 0.279095 0.618150 0.143129
H22   H     H_    0.945082 0.279043 0.382933 0.141950
H23   H     H_    0.551885 0.778837 0.485302 0.143761
H24   H     H_    0.447823 0.778886 0.516793 0.141904
H25   H     H_    0.449687 0.278851 0.379556 0.145588
H26   H     H_    0.549494 0.278343 0.619429 0.146688
H27   H     H_    0.950160 0.778824 0.379466 0.145896
H28   H     H_    0.049743 0.778417 0.619431 0.145937
C145  C     C_1   0.443352 0.365142 0.359469 0.189528
N9    N     N_1   0.420869 0.383067 0.301976 -0.182753
C146  C     C_1   0.556187 0.364538 0.640197 0.191449
N10   N     N_1   0.578710 0.382189 0.697853 -0.200076
C147  C     C_1   0.943618 0.865114 0.359350 0.191074
N11   N     N_1   0.921141 0.882993 0.301812 -0.202146
C148  C     C_1   0.056115 0.864594 0.640190 0.191247
N12   N     N_1   0.078510 0.882259 0.697863 -0.199353
C149  C     C_1   0.969319 0.725245 0.575676 0.161867
N13   N     N_1   0.956366 0.743217 0.606060 -0.185135
C150  C     C_1   0.030377 0.725753 0.422907 0.163280
N14   N     N_1   0.043296 0.743940 0.392402 -0.186427
C151  C     C_1   0.468802 0.225064 0.575373 0.169398
N15   N     N_1   0.455775 0.242969 0.605694 -0.180989
C152  C     C_1   0.530126 0.225914 0.423029 0.160946
N16   N     N_1   0.543070 0.244174 0.392622 -0.189107
C153  C     C_1   0.064886 0.365325 0.635967 0.178490
N17   N     N_1   0.091768 0.383338 0.691023 -0.200448
C154  C     C_1   0.934905 0.365246 0.364826 0.173806
N18   N     N_1   0.907937 0.383250 0.309784 -0.190394
C155  C     C_1   0.561226 0.864833 0.484069 0.179390
N19   N     N_1   0.586586 0.882524 0.477849 -0.205942
C156  C     C_1   0.437842 0.865033 0.514579 0.175569
N20   N     N_1   0.412007 0.882957 0.518995 -0.188338
H29   H     H_    0.428936 0.720402 0.422025 0.138150
H30   H     H_    0.571066 0.720632 0.581154 0.138605
H31   H     H_    0.929355 0.220304 0.443519 0.138196
H32   H     H_    0.070803 0.220756 0.557710 0.137948
H33   H     H_    0.467170 0.498619 0.674774 0.162851
H34   H     H_    0.532805 0.501177 0.325194 0.161615
H35   H     H_    0.967152 0.998338 0.674744 0.162892
H36   H     H_    0.032912 0.998220 0.325423 0.161311
H37   H     H_    0.428780 0.640040 0.421500 0.161846
H38   H     H_    0.571301 0.640242 0.580008 0.162889
H39   H     H_    0.929164 0.139952 0.442468 0.162026
H40   H     H_    0.071005 0.140355 0.558249 0.161699
C157  C     C_1   0.556731 0.437834 0.868350 0.224373
N21   N     N_1   0.577449 0.410342 0.912113 -0.205599
C158  C     C_1   0.443113 0.561941 0.131480 0.212247
N22   N     N_1   0.422306 0.589358 0.087612 -0.211294
C159  C     C_1   0.057476 0.938563 0.869235 0.227195
N23   N     N_1   0.078610 0.911437 0.913521 -0.186154
C160  C     C_1   0.942827 0.937779 0.131679 0.222055
N24   N     N_1   0.921754 0.910537 0.087692 -0.204489
H41   H     H_    0.281022 0.553503 0.849042 0.145035
H42   H     H_    0.718633 0.445119 0.151569 0.146992
H43   H     H_    0.780169 0.932149 0.816417 0.145425
H44   H     H_    0.219319 0.931790 0.253875 0.144354
C161  C     C_1   0.363501 0.439050 0.784938 0.177304
N25   N     N_1   0.380697 0.414676 0.768945 -0.180867
C162  C     C_1   0.636870 0.561707 0.213882 0.177653
N26   N     N_1   0.619842 0.586543 0.229538 -0.184742
C163  C     C_1   0.862231 0.074555 0.808477 0.191955
N27   N     N_1   0.878890 0.105411 0.803620 -0.188711
C164  C     C_1   0.138520 0.075624 0.087391 0.193405
N28   N     N_1   0.122155 0.106821 0.050431 -0.186590
H45   H     H_    0.277226 0.447404 0.714116 0.146454
H46   H     H_    0.723060 0.552724 0.284699 0.146046
H47   H     H_    0.776486 0.061951 0.732129 0.145566
H48   H     H_    0.224118 0.062954 0.182447 0.145524
H49   H     H_    0.224353 0.528385 0.636559 0.151658
H50   H     H_    0.775602 0.473398 0.364563 0.151681
H51   H     H_    0.723837 0.040402 0.799073 0.152848
H52   H     H_    0.276419 0.045157 0.346885 0.152316

loop_
_geom_bond_atom_site_label_1
_geom_bond_atom_site_label_2
_ccdc_geom_bond_type
C65   O39   A    
C61   O29   A    
O36   Zn8   S    
C55   C59   A    
C162  N26   T    
C114  H22   S    
C77   C89   A    
C75   O14   A    
C134  C158  S    
O7    Zn11  S    
C130  H34   S    
C95   C99   A    
C8    C136  D    
C96   C99   A    
C133  C157  S    
C31   C59   S    
C9    C13   A    
C79   C90   A    
C80   C86   A    
C53   C141  S    
C11   C15   A    
C12   C16   A    
C51   H19   S    
C70   O47   A    
O19   Zn4   S    
C46   O26   A    
C3    C19   S    
O20   Zn4   S    
C78   H26   S    
C147  N11   T    
C106  C118  A    
O13   Zn9   S    
C103  C117  A    
O43   Zn7   S    
C41   C49   A    
C78   C89   A    
C25   C29   A    
C71   O9    A    
C115  C123  A    
C86   C88   A    
C27   C31   A    
C27   H47   S    
C28   C32   A    
C62   C88   S    
O39   Zn8   S    
C69   C119  S    
C17   C21   A    
C4    O20   A    
O37   Zn6   S    
C15   C19   A    
C138  N2    T    
C143  N7    T    
C45   O25   A    
C10   C30   A    
C142  N6    T    
C16   C20   A    
C73   O7    A    
C42   C72   S    
O44   Zn8   S    
C74   O8    A    
C44   C74   S    
C52   H20   S    
O16   Zn12  S    
C105  C118  A    
C79   C85   A    
C104  C117  A    
C50   H18   S    
O10   Zn9   S    
O33   Zn5   S    
C132  H36   S    
C47   O23   A    
C76   C100  S    
C108  C111  A    
C9    H41   S    
C11   H43   S    
C52   C56   A    
C49   C53   A    
C51   C55   A    
C103  H29   S    
C107  H37   S    
C127  C131  D    
C54   C142  S    
C4    C20   S    
C125  C129  D    
C122  C154  S    
C94   C102  A    
C34   C58   A    
C94   C98   A    
C103  C107  A    
C64   O38   A    
C2    O2    A    
C86   C148  S    
C63   O33   A    
C13   H9    S    
C7    H7    S    
C3    O19   A    
C5    C133  D    
C149  N13   T    
C82   C115  A    
C96   H2    S    
C155  N19   T    
C92   C96   A    
C153  N17   T    
C68   C112  S    
C61   C87   S    
C70   C120  S    
C81   C114  A    
O24   Zn2   S    
O2    Zn1   S    
C41   C71   S    
C64   O34   A    
C44   C52   A    
C157  N21   T    
C85   C147  S    
C91   C101  A    
O8    Zn12  S    
C75   C99   S    
C119  C121  A    
C4    O4    A    
C95   H1    S    
O45   Zn9   S    
C10   C14   A    
C62   O31   A    
C125  H13   S    
O42   Zn6   S    
C68   O43   A    
C139  N3    T    
C46   O22   A    
C56   C144  S    
O48   Zn12  S    
C163  N27   T    
C33   H49   S    
C35   H51   S    
C54   C58   A    
C161  N25   T    
O47   Zn11  S    
C109  H39   S    
C22   C162  S    
C126  C134  S    
C42   C50   A    
O5    Zn9   S    
O31   Zn7   S    
C26   C30   A    
O29   Zn5   S    
C93   C97   A    
C97   C100  A    
O21   Zn1   S    
C85   C88   A    
C21   C25   A    
C49   H17   S    
C18   C22   A    
C107  C111  A    
C39   C139  S    
C24   C28   A    
C64   C130  S    
C45   O21   A    
C105  H31   S    
C73   O11   A    
C106  H32   S    
C74   O12   A    
C75   O13   A    
C164  N28   T    
C94   C152  S    
C12   H44   S    
C37   C41   A    
C110  C112  A    
C91   C95   A    
C40   C44   A    
C113  C121  A    
C70   O48   A    
C25   H45   S    
C160  N24   T    
C76   O15   A    
C97   H3    S    
O22   Zn1   S    
C47   O27   A    
C154  N18   T    
C121  C153  S    
C48   O28   A    
C83   C87   A    
C43   C73   S    
O25   Zn3   S    
C10   H42   S    
C38   C138  S    
C115  H23   S    
C67   O42   A    
C156  N20   T    
C137  N1    T    
C113  H21   S    
C50   C54   A    
C127  C135  S    
O23   Zn2   S    
C108  H38   S    
C128  C136  S    
C65   O35   A    
C93   C151  S    
C92   C150  S    
C126  C130  D    
C146  N10   T    
C35   C59   A    
C55   C143  S    
O18   Zn3   S    
C105  C109  A    
C63   O37   A    
C158  N22   T    
C1    O1    A    
C6    H6    S    
C66   O40   A    
C2    O18   A    
C120  C123  A    
C61   O30   A    
O14   Zn10  S    
C77   H25   S    
O3    Zn2   S    
O28   Zn4   S    
C37   C137  S    
C72   O6    A    
C150  N14   T    
C140  N4    T    
C53   C57   A    
C124  C156  S    
C5    C45   S    
C81   C118  S    
C33   C37   A    
C56   C60   A    
O38   Zn5   S    
C7    C47   S    
C35   C39   A    
C8    C48   S    
C116  H24   S    
O26   Zn3   S    
C92   C101  A    
C67   C111  S    
C29   C57   S    
C98   C100  A    
C40   C140  S    
C21   C161  S    
C32   C60   S    
C104  C108  A    
C91   C149  S    
C116  C124  A    
O34   Zn6   S    
C1    C17   S    
O9    Zn10  S    
O32   Zn8   S    
C93   C102  A    
C38   C42   A    
C34   H50   S    
C13   C17   A    
C83   C145  S    
C82   C116  A    
C128  H16   S    
C15   H11   S    
C43   C51   A    
C151  N15   T    
O15   Zn11  S    
C69   O46   A    
C84   C146  S    
C63   C129  S    
C131  H35   S    
C22   C26   A    
C81   C113  A    
C68   O44   A    
C82   C117  S    
C23   C163  S    
C89   C102  S    
C2    C18   S    
C14   C18   A    
C19   C23   A    
C135  C159  S    
C84   C87   A    
C79   H27   S    
O11   Zn12  S    
C104  H30   S    
C145  N9    T    
O17   Zn3   S    
C62   O32   A    
C77   C83   A    
C71   O5    A    
C72   O10   A    
C26   H46   S    
C136  C160  S    
C48   O24   A    
C20   C24   A    
C23   C27   A    
C9    C29   A    
C11   C31   A    
C12   C32   A    
C128  C132  D    
C69   O45   A    
C65   C131  S    
C36   H52   S    
C66   C132  S    
O46   Zn10  S    
C36   C40   A    
C126  H14   S    
C109  C112  A    
C39   C43   A    
O41   Zn5   S    
C159  N23   T    
C98   H4    S    
C90   C101  S    
C7    C135  D    
C5    H5    S    
C1    O17   A    
C141  N5    T    
O4    Zn2   S    
C8    H8    S    
O6    Zn10  S    
C110  H40   S    
C127  H15   S    
O30   Zn6   S    
C76   O16   A    
C152  N16   T    
C24   C164  S    
C106  C110  A    
C119  C122  A    
C125  C133  S    
C66   O36   A    
C33   C57   A    
C6    C46   S    
C34   C38   A    
C36   C60   A    
C148  N12   T    
C67   O41   A    
C14   H10   S    
O40   Zn7   S    
C3    O3    A    
C16   H12   S    
O35   Zn7   S    
C80   H28   S    
C6    C134  D    
O12   Zn11  S    
C123  C155  S    
C30   C58   S    
C28   H48   S    
C80   C90   A    
O27   Zn4   S    
C129  H33   S    
C114  C122  A    
C78   C84   A    
C144  N8    T    
C120  C124  A    
O1    Zn1   S    
