data_mof_unit_pretest_435.cif
_audit_creation_date              2012-12-10T18:31:51-0500
_audit_creation_method            fapswitch 2.2
_symmetry_space_group_name_H-M    P1
_symmetry_Int_Tables_number       1
_space_group_crystal_system       triclinic
_cell_length_a                    10.633183
_cell_length_b                    14.913694
_cell_length_c                    15.276565
_cell_angle_alpha                 81.133734
_cell_angle_beta                  89.516091
_cell_angle_gamma                 102.66642
_cell_volume                      2333.11462164

loop_
_atom_site_label
_atom_site_type_symbol
_atom_type_description
_atom_site_fract_x
_atom_site_fract_y
_atom_site_fract_z
_atom_type_partial_charge
C1    C     C_R   0.482100 0.440563 0.663192 0.894197
C2    C     C_3   0.120645 0.498898 0.498862 0.181380
C3    C     C_3   0.097537 0.589596 0.443912 -0.406078
C4    C     C_3   0.069200 0.489274 0.595629 -0.499140
C5    C     C_R   0.485088 0.401871 0.758081 -0.075790
C6    C     C_R   0.544718 0.596311 0.243074 -0.061914
C7    C     C_R   0.457435 0.277651 0.885265 -0.250540
C8    C     C_R   0.447019 0.305169 0.794005 0.192225
C9    C     C_R   0.534459 0.465737 0.814251 -0.313340
C10   C     C_R   0.554960 0.437304 0.902936 0.091174
C11   C     C_R   0.505469 0.343110 0.939944 0.137968
C12   C     C_R   0.741319 0.499498 0.499434 0.884278
C13   C     C_R   0.604697 0.503062 0.958634 0.062174
C14   C     C_R   0.561130 0.480093 0.048466 0.015409
C15   C     C_R   0.518200 0.385331 0.085712 -0.235701
C16   C     C_R   0.495978 0.316952 0.031859 -0.220613
C17   C     C_R   0.696534 0.588920 0.930446 0.155072
C18   C     C_R   0.721609 0.654701 0.988395 -0.274038
C19   C     C_R   0.659279 0.637139 0.072098 0.142200
C20   C     C_R   0.571130 0.551425 0.100249 -0.014551
C21   C     C_R   0.689156 0.702052 0.130305 -0.188535
C22   C     C_R   0.637602 0.679300 0.217104 -0.251205
C23   C     C_R   0.518187 0.558972 0.337293 0.922194
C24   C     C_R   0.496890 0.540111 0.179744 -0.049616
C25   C     C_R   0.745423 0.844118 0.602729 0.073671
C26   C     C_R   0.689950 0.752841 0.590332 -0.085135
C27   C     C_R   0.506016 0.798351 0.528695 0.219682
C28   C     C_R   0.569926 0.892968 0.520395 -0.066496
C29   C     C_R   0.683986 0.916005 0.566878 0.115219
C30   C     C_R   0.520707 0.964767 0.470635 0.094081
C31   C     C_R   0.557622 0.056245 0.489942 0.083506
C32   C     C_R   0.664475 0.077567 0.543303 -0.247102
C33   C     C_R   0.730407 0.009447 0.577295 -0.198678
C34   C     C_R   0.258217 0.500446 0.498724 0.856106
C35   C     C_R   0.440106 0.947808 0.399380 -0.264842
C36   C     C_R   0.376595 0.014301 0.359885 -0.217166
C37   C     C_R   0.393926 0.099703 0.389633 0.189122
C38   C     C_R   0.486274 0.122334 0.454080 -0.007797
C39   C     C_R   0.320567 0.163096 0.355176 -0.329943
C40   C     C_R   0.338292 0.247883 0.385332 0.011446
C41   C     C_R   0.499636 0.209321 0.481656 -0.079529
C42   C     C_3   0.901715 0.412162 0.460252 -0.380520
C43   C     C_3   0.045569 0.414472 0.457820 -0.390654
C44   C     C_3   0.953205 0.586363 0.440580 -0.475331
C45   C     C_3   0.925547 0.493819 0.597121 -0.120158
C46   C     C_3   0.876933 0.496979 0.500261 0.172562
H1    H     H_    0.866636 0.414135 0.391623 0.168462
H2    H     H_    0.125085 0.545295 0.629021 0.165408
H3    H     H_    0.934269 0.650080 0.462838 0.187185
H4    H     H_    0.141230 0.649783 0.475896 0.185486
H5    H     H_    0.460676 0.244863 0.061826 0.145535
H6    H     H_    0.673578 0.724828 0.264475 0.165686
H7    H     H_    0.793422 0.719006 0.969424 0.138184
H8    H     H_    0.422280 0.205318 0.914714 0.132567
H9    H     H_    0.547336 0.539214 0.790356 0.167088
H10   H     H_    0.849180 0.345180 0.499634 0.217244
H11   H     H_    0.502539 0.363732 0.156683 0.156251
H12   H     H_    0.759533 0.766930 0.110910 0.137973
H13   H     H_    0.815385 0.030710 0.613920 0.156639
H14   H     H_    0.566769 0.231867 0.530533 0.149452
H15   H     H_    0.284461 0.298609 0.358080 0.162822
H16   H     H_    0.310770 0.997745 0.307924 0.143847
H17   H     H_    0.739540 0.697784 0.611595 0.151069
H18   H     H_    0.060639 0.347715 0.495375 0.181823
H19   H     H_    0.703217 0.147370 0.555816 0.153828
H20   H     H_    0.423633 0.881839 0.375209 0.150059
H21   H     H_    0.250671 0.147317 0.305376 0.144705
H22   H     H_    0.080753 0.419508 0.387978 0.212378
H23   H     H_    0.922950 0.587566 0.370854 0.177355
H24   H     H_    0.141152 0.600453 0.375527 0.187343
H25   H     H_    0.918218 0.560019 0.619923 0.108079
H26   H     H_    0.083590 0.422351 0.633380 0.155286
N1    N     N_R   0.573860 0.731700 0.552730 -0.111213
N2    N     N_R   0.426060 0.268290 0.447230 -0.102407
O1    O     O_R   0.462770 0.383110 0.605620 -0.590314
O2    O     O_R   0.510160 0.531900 0.639510 -0.629652
O3    O     O_R   0.661510 0.425600 0.483070 -0.601919
O4    O     O_R   0.708900 0.574390 0.516960 -0.650800
O5    O     O_R   0.489840 0.468100 0.360490 -0.584230
O6    O     O_R   0.537230 0.616890 0.394380 -0.626365
O7    O     O_R   0.291100 0.425610 0.483040 -0.620075
O8    O     O_R   0.338490 0.574400 0.516930 -0.625370
Zn1   Zn    Zn3+2 0.468350 0.400660 0.477370 0.962945
Zn2   Zn    Zn3+2 0.531650 0.599340 0.522630 0.916101
C47   C     C_2   0.361991 0.481922 0.189817 0.347610
H27   H     H_    0.322382 0.442609 0.138520 0.084443
O9    O     O_2   0.290013 0.482085 0.252485 -0.611084
C48   C     C_3   0.388138 0.229641 0.740686 -0.366644
C49   C     C_3   0.250093 0.234130 0.716601 -0.859178
H28   H     H_    0.245463 0.302793 0.678453 0.257564
H29   H     H_    0.211749 0.179583 0.675738 0.247716
H30   H     H_    0.187582 0.221413 0.777891 0.248749
H31   H     H_    0.449684 0.232068 0.681126 0.234843
H32   H     H_    0.383911 0.159522 0.779646 0.185724
C50   C     C_3   0.790309 0.605117 0.850469 -0.412570
C51   C     C_3   0.879495 0.537149 0.862783 -0.859097
H33   H     H_    0.933152 0.543980 0.924370 0.266572
H34   H     H_    0.823349 0.464413 0.866998 0.262301
H35   H     H_    0.950307 0.552895 0.805593 0.229099
H36   H     H_    0.743250 0.601862 0.786692 0.194722
H37   H     H_    0.852594 0.676532 0.842028 0.193553
C52   C     C_3   0.871471 0.861526 0.649534 -0.435038
C53   C     C_3   0.986055 0.900285 0.583274 -0.853032
H38   H     H_    0.991373 0.849927 0.537545 0.255083
H39   H     H_    0.977596 0.967554 0.543832 0.260804
H40   H     H_    0.076865 0.911834 0.619462 0.249023
H41   H     H_    0.869261 0.909030 0.698473 0.202013
H42   H     H_    0.886402 0.795476 0.688342 0.193708
C54   C     C_3   0.360797 0.770999 0.531601 -0.395475
C55   C     C_3   0.307845 0.721452 0.624048 -0.837074
H43   H     H_    0.344010 0.657440 0.644583 0.288451
H44   H     H_    0.337377 0.768705 0.673419 0.242433
H45   H     H_    0.200861 0.703528 0.624944 0.228255
H46   H     H_    0.315259 0.831510 0.519544 0.200225
H47   H     H_    0.331855 0.730267 0.478144 0.215148
C56   C     C_2   0.849917 0.415697 0.666139 0.332283
H48   H     H_    0.880702 0.409692 0.733797 0.082346
O10   O     O_2   0.756479 0.358803 0.648151 -0.601188

loop_
_geom_bond_atom_site_label_1
_geom_bond_atom_site_label_2
_ccdc_geom_bond_type
C44   H3    S    
C45   H25   S    
C50   C51   S    
C16   H5    S    
N2    Zn1   S    
O6    Zn2   S    
O2    Zn2   S    
C7    C8    A    
C45   C46   S    
C7    C11   A    
C30   C35   A    
C1    C5    S    
C36   C37   A    
C19   C21   A    
C30   C31   A    
C25   C52   S    
O3    Zn1   S    
C15   C16   A    
C6    C22   A    
C51   H35   S    
C29   C33   A    
C26   N1    A    
C56   H48   S    
C18   C19   A    
C42   C46   S    
C55   H43   S    
C18   H7    S    
C42   H10   S    
C41   N2    A    
C20   C24   A    
C40   N2    A    
C43   H22   S    
C12   O4    A    
C52   H42   S    
C9    H9    S    
C34   O7    A    
C13   C14   A    
C23   O6    A    
C49   H29   S    
C24   C47   S    
N1    Zn2   S    
C2    C34   S    
C33   H13   S    
C21   C22   A    
C12   O3    A    
C15   H11   S    
C36   H16   S    
C9    C10   A    
O7    Zn1   S    
C3    H4    S    
C44   C46   S    
C43   H18   S    
C4    C45   S    
C47   O9    D    
C25   C29   A    
C48   H32   S    
C3    C44   S    
C1    O1    A    
C14   C20   A    
C44   H23   S    
C3    H24   S    
C38   C41   A    
C12   C46   S    
C39   C40   A    
C50   H36   S    
C35   H20   S    
C25   C26   A    
C47   H27   S    
C40   H15   S    
C51   H34   S    
C8    C48   S    
C35   C36   A    
C2    C4    S    
C26   H17   S    
C5    C9    A    
C37   C38   A    
C11   C16   A    
C31   C32   A    
C2    C43   S    
C6    C24   A    
C51   H33   S    
C17   C18   A    
C52   H41   S    
C53   H39   S    
C49   H30   S    
C55   H45   S    
C54   H46   S    
C17   C50   S    
O8    Zn2   S    
C42   C43   S    
C4    H26   S    
C22   H6    S    
C4    H2    S    
C48   H31   S    
C28   C29   A    
C1    O2    A    
C39   H21   S    
C41   H14   S    
C10   C13   A    
C5    C8    A    
C31   C38   A    
C13   C17   A    
C32   C33   A    
C19   C20   A    
C28   C30   A    
C2    C3    S    
C21   H12   S    
C37   C39   A    
C54   C55   S    
O5    Zn1   S    
C45   C56   S    
O1    Zn1   S    
C6    C23   S    
C56   O10   D    
C53   H40   S    
C42   H1    S    
C52   C53   S    
C55   H44   S    
C10   C11   A    
C54   H47   S    
O4    Zn2   S    
C48   C49   S    
C27   C54   S    
C53   H38   S    
C14   C15   A    
C34   O8    A    
C7    H8    S    
C23   O5    A    
C49   H28   S    
C27   N1    A    
C50   H37   S    
C32   H19   S    
C27   C28   A    
