data_mof_unit_pretest_1419.cif
_audit_creation_date              2013-03-05T15:45:59-0500
_audit_creation_method            fapswitch 2.2
_symmetry_space_group_name_H-M    P1
_symmetry_Int_Tables_number       1
_space_group_crystal_system       triclinic
_cell_length_a                    18.907185
_cell_length_b                    10.956921
_cell_length_c                    18.792166
_cell_angle_alpha                 90.062977
_cell_angle_beta                  90.323214
_cell_angle_gamma                 90.029923
_cell_volume                      3893.00544292

loop_
_atom_site_label
_atom_site_type_symbol
_atom_site_description
_atom_site_fract_x
_atom_site_fract_y
_atom_site_fract_z
_atom_type_partial_charge
O1    O     O_R   0.787510 0.042610 0.670410 -0.528813
O2    O     O_R   0.212490 0.042610 0.329590 -0.525422
O3    O     O_R   0.287510 0.542610 0.670410 -0.525724
O4    O     O_R   0.712490 0.542610 0.329590 -0.528527
O5    O     O_R   0.765670 0.292090 0.675090 -0.497211
O6    O     O_R   0.234330 0.292090 0.324910 -0.498312
O7    O     O_R   0.265670 0.792090 0.675090 -0.497959
O8    O     O_R   0.734330 0.792090 0.324910 -0.497128
C1    C     C_R   0.731006 0.378722 0.646792 0.551427
C2    C     C_R   0.272234 0.371735 0.356463 0.555865
C3    C     C_R   0.230486 0.877107 0.646196 0.557769
C4    C     C_R   0.768990 0.878827 0.353191 0.551711
O9    O     O_R   0.670220 0.409020 0.668560 -0.527770
O10   O     O_R   0.329780 0.409020 0.331440 -0.522614
O11   O     O_R   0.170220 0.909020 0.668560 -0.517613
O12   O     O_R   0.829780 0.909020 0.331440 -0.528222
O13   O     O_R   0.556580 0.251590 0.674980 -0.504059
O14   O     O_R   0.443420 0.251590 0.325020 -0.501586
O15   O     O_R   0.056580 0.751590 0.674980 -0.496254
O16   O     O_R   0.943420 0.751590 0.325020 -0.503410
C5    C     C_R   0.530862 0.155474 0.647272 0.548423
C6    C     C_R   0.461203 0.153994 0.357183 0.551168
C7    C     C_R   0.036703 0.654171 0.643693 0.551986
C8    C     C_R   0.968990 0.655513 0.352832 0.549885
O17   O     O_R   0.545890 0.049670 0.670030 -0.513293
O18   O     O_R   0.454110 0.049670 0.329970 -0.515122
O19   O     O_R   0.045890 0.549670 0.670030 -0.517312
O20   O     O_R   0.954110 0.549670 0.329970 -0.514230
O21   O     O_R   0.681340 0.957860 0.676500 -0.503339
O22   O     O_R   0.318660 0.957860 0.323500 -0.510440
O23   O     O_R   0.181340 0.457860 0.676500 -0.510655
O24   O     O_R   0.818660 0.457860 0.323500 -0.503636
C9    C     C_R   0.740003 0.974509 0.645193 0.540120
C10   C     C_R   0.259635 0.973663 0.354312 0.541241
C11   C     C_R   0.242035 0.466571 0.648449 0.540765
C12   C     C_R   0.760015 0.474673 0.354826 0.540225
O25   O     O_R   0.787380 0.044010 0.830940 -0.494386
O26   O     O_R   0.212620 0.044010 0.169060 -0.494153
O27   O     O_R   0.287380 0.544010 0.830940 -0.495792
O28   O     O_R   0.712620 0.544010 0.169060 -0.494351
O29   O     O_R   0.765540 0.293390 0.823910 -0.416565
O30   O     O_R   0.234460 0.293390 0.176090 -0.415308
O31   O     O_R   0.265540 0.793390 0.823910 -0.417415
O32   O     O_R   0.734460 0.793390 0.176090 -0.416604
C13   C     C_R   0.712176 0.331146 0.860217 0.566188
C14   C     C_R   0.287784 0.331135 0.139730 0.566197
C15   C     C_R   0.212178 0.831152 0.860218 0.565303
C16   C     C_R   0.787784 0.831134 0.139731 0.565846
O33   O     O_R   0.670090 0.410410 0.829090 -0.515804
O34   O     O_R   0.329910 0.410410 0.170910 -0.514256
O35   O     O_R   0.170090 0.910410 0.829090 -0.517492
O36   O     O_R   0.829910 0.910410 0.170910 -0.515815
O37   O     O_R   0.556450 0.252890 0.823790 -0.532483
O38   O     O_R   0.443550 0.252890 0.176210 -0.531356
O39   O     O_R   0.056450 0.752890 0.823790 -0.532238
O40   O     O_R   0.943550 0.752890 0.176210 -0.532060
C17   C     C_R   0.531027 0.156932 0.853172 0.559517
C18   C     C_R   0.468919 0.156882 0.146793 0.562758
C19   C     C_R   0.031039 0.656929 0.853179 0.561764
C20   C     C_R   0.968940 0.656889 0.146809 0.560301
O41   O     O_R   0.545750 0.051070 0.830560 -0.441901
O42   O     O_R   0.454250 0.051070 0.169440 -0.439206
O43   O     O_R   0.045750 0.551070 0.830560 -0.439983
O44   O     O_R   0.954250 0.551070 0.169440 -0.441697
O45   O     O_R   0.681210 0.959150 0.825320 -0.500494
O46   O     O_R   0.318790 0.959150 0.174680 -0.499794
O47   O     O_R   0.181210 0.459150 0.825320 -0.501430
O48   O     O_R   0.818790 0.459150 0.174680 -0.500419
C21   C     C_R   0.743038 0.966771 0.852451 0.536729
C22   C     C_R   0.256932 0.966698 0.147570 0.537474
C23   C     C_R   0.243040 0.466768 0.852450 0.534595
C24   C     C_R   0.756934 0.466701 0.147568 0.536758
Cr1   Cr    Cr6+3 0.771950 0.169480 0.750100 1.089673
Cr2   Cr    Cr6+3 0.228050 0.169480 0.249900 1.090072
Cr3   Cr    Cr6+3 0.271950 0.669480 0.750100 1.089505
Cr4   Cr    Cr6+3 0.728050 0.669480 0.249900 1.090017
Cr5   Cr    Cr6+3 0.614930 0.323340 0.749170 1.018591
Cr6   Cr    Cr6+3 0.385070 0.323340 0.250830 1.023910
Cr7   Cr    Cr6+3 0.114930 0.823340 0.749170 1.026656
Cr8   Cr    Cr6+3 0.885070 0.823340 0.250830 1.020500
Cr9   Cr    Cr6+3 0.616590 0.010620 0.750610 1.068177
Cr10  Cr    Cr6+3 0.383410 0.010620 0.249390 1.068211
Cr11  Cr    Cr6+3 0.116590 0.510620 0.750610 1.066119
Cr12  Cr    Cr6+3 0.883410 0.510620 0.249390 1.068173
O49   O     O_3   0.667820 0.167810 0.749960 -0.291257
O50   O     O_3   0.332180 0.167810 0.250040 -0.297048
O51   O     O_3   0.167820 0.667810 0.749960 -0.292079
O52   O     O_3   0.832180 0.667810 0.250040 -0.291546
C25   C     C_R   0.472422 0.159105 0.433351 0.023174
C26   C     C_R   0.492209 0.166022 0.580708 0.019394
C27   C     C_R   0.006752 0.665225 0.419923 0.019542
C28   C     C_R   0.023379 0.658823 0.567802 0.022666
C29   C     C_R   0.484906 0.269927 0.467498 0.011492
C30   C     C_R   0.495834 0.273184 0.540194 0.008228
C31   C     C_R   0.005316 0.773195 0.460037 0.017512
C32   C     C_R   0.015154 0.770238 0.533001 0.028236
C33   C     C_R   0.464532 0.060431 0.548697 -0.148676
C34   C     C_R   0.455547 0.056542 0.475207 -0.145953
C35   C     C_R   0.036322 0.553818 0.526551 -0.148656
C36   C     C_R   0.029968 0.557727 0.453018 -0.151849
C37   C     C_3   0.541142 0.361876 0.453343 -0.280832
C38   C     C_3   0.554148 0.364409 0.532963 -0.253623
C39   C     C_3   0.949328 0.868792 0.465956 -0.256131
C40   C     C_3   0.961131 0.866689 0.545746 -0.280613
H1    H     H_    0.457258 0.977191 0.578861 0.141088
H2    H     H_    0.438467 0.971581 0.451166 0.142944
H3    H     H_    0.048708 0.467119 0.550982 0.135757
H4    H     H_    0.035125 0.473199 0.423522 0.138354
H5    H     H_    0.896422 0.833510 0.450374 0.169435
H6    H     H_    0.985133 0.952226 0.566663 0.143723
H7    H     H_    0.519071 0.448788 0.432384 0.137329
H8    H     H_    0.606377 0.325614 0.547983 0.169596
H9    H     H_    0.586219 0.323868 0.422667 0.147116
H10   H     H_    0.540886 0.453467 0.557915 0.136681
H11   H     H_    0.965140 0.956347 0.440807 0.140156
H12   H     H_    0.914656 0.832773 0.575924 0.143343
C41   C     C_R   0.695868 0.870358 0.536054 -0.136931
C42   C     C_R   0.297797 0.857994 0.461176 -0.147844
C43   C     C_R   0.195893 0.366017 0.539778 -0.140562
C44   C     C_R   0.803915 0.370059 0.463777 -0.137216
H13   H     H_    0.657251 0.819492 0.566374 0.121696
H14   H     H_    0.332644 0.801392 0.429659 0.122078
H15   H     H_    0.147087 0.341350 0.565866 0.117570
H16   H     H_    0.842339 0.318941 0.433328 0.121326
C45   C     C_R   0.697566 0.857806 0.462433 -0.132138
C46   C     C_R   0.295846 0.843165 0.534532 -0.139094
C47   C     C_R   0.200005 0.356689 0.466134 -0.146394
C48   C     C_R   0.802218 0.357328 0.537382 -0.132991
H17   H     H_    0.662192 0.793293 0.437049 0.123982
H18   H     H_    0.326774 0.770593 0.558386 0.134672
H19   H     H_    0.155355 0.320886 0.436385 0.115415
H20   H     H_    0.837399 0.292487 0.562605 0.123406
C49   C     C_R   0.748080 0.922361 0.422867 0.026313
C50   C     C_R   0.250257 0.915929 0.575573 0.030883
C51   C     C_R   0.261611 0.394658 0.431608 0.033519
C52   C     C_R   0.751950 0.422177 0.577128 0.025882
C53   C     C_R   0.791279 0.008723 0.456200 -0.149180
C54   C     C_R   0.210593 0.008345 0.543695 -0.129701
C55   C     C_R   0.320204 0.434743 0.471598 -0.129544
C56   C     C_R   0.709004 0.508950 0.543986 -0.148341
H21   H     H_    0.829584 0.061703 0.426647 0.128717
H22   H     H_    0.175632 0.066140 0.574413 0.130444
H23   H     H_    0.369828 0.459790 0.447044 0.139269
H24   H     H_    0.670914 0.562181 0.573687 0.128355
C57   C     C_R   0.791634 0.017449 0.529096 -0.138521
C58   C     C_R   0.211168 0.020837 0.471048 -0.121913
C59   C     C_R   0.316567 0.441544 0.544339 -0.133270
C60   C     C_R   0.708673 0.517940 0.471089 -0.137438
H25   H     H_    0.828742 0.080332 0.553298 0.132183
H26   H     H_    0.178549 0.091856 0.447991 0.135876
H27   H     H_    0.362102 0.476457 0.573167 0.133065
H28   H     H_    0.671813 0.581241 0.447022 0.132058
C61   C     C_R   0.744957 0.946949 0.569874 0.029697
C62   C     C_R   0.253778 0.944622 0.429096 0.036081
C63   C     C_R   0.253099 0.414523 0.578524 0.033469
C64   C     C_R   0.755066 0.447129 0.430134 0.029962
C65   C     C_R   0.494835 0.052113 0.963148 0.187639
C66   C     C_R   0.504578 0.051999 0.036526 0.186898
C67   C     C_R   0.995047 0.552094 0.963224 0.187308
C68   C     C_R   0.004777 0.552034 0.036601 0.187406
C69   C     C_R   0.497588 0.162740 0.074354 -0.015367
C70   C     C_R   0.502174 0.162880 0.925540 -0.014520
C71   C     C_R   0.997685 0.662774 0.074402 -0.014397
C72   C     C_R   0.002274 0.662857 0.925588 -0.015026
C73   C     C_R   0.497724 0.273541 0.037063 -0.196699
C74   C     C_R   0.502235 0.273605 0.963031 -0.196518
C75   C     C_R   0.997772 0.773560 0.037093 -0.196333
C76   C     C_R   0.002284 0.773599 0.963060 -0.196733
H29   H     H_    0.494077 0.359598 0.065115 0.143814
H30   H     H_    0.506062 0.359687 0.935138 0.143642
H31   H     H_    0.994065 0.859623 0.065130 0.143943
H32   H     H_    0.006048 0.859677 0.935152 0.143564
C77   C     C_R   0.823530 0.925588 0.953084 -0.143400
C78   C     C_R   0.176406 0.925539 0.046928 -0.143170
C79   C     C_R   0.323534 0.425594 0.953083 -0.143364
C80   C     C_R   0.676409 0.425527 0.046928 -0.143149
H33   H     H_    0.866644 0.971168 0.926320 0.156166
H34   H     H_    0.133336 0.971230 0.073713 0.156572
H35   H     H_    0.366645 0.471185 0.926320 0.156044
H36   H     H_    0.633338 0.471214 0.073714 0.156483
C81   C     C_R   0.830319 0.901080 0.024763 -0.164018
C82   C     C_R   0.169640 0.901106 0.975219 -0.164301
C83   C     C_R   0.330321 0.401088 0.024762 -0.164094
C84   C     C_R   0.669640 0.401087 0.975221 -0.164151
H37   H     H_    0.878498 0.929779 0.051123 0.138849
H38   H     H_    0.121526 0.929943 0.948862 0.138651
H39   H     H_    0.378497 0.429796 0.051125 0.138738
H40   H     H_    0.621524 0.429916 0.948865 0.138722
C85   C     C_R   0.775250 0.845612 0.062622 0.026075
C86   C     C_R   0.224676 0.845593 0.937331 0.026257
C87   C     C_R   0.275252 0.345611 0.062620 0.025666
C88   C     C_R   0.724676 0.345575 0.937331 0.026059
C89   C     C_R   0.714342 0.802175 0.023629 0.009703
C90   C     C_R   0.285520 0.802038 0.976294 0.009613
C91   C     C_R   0.214350 0.302162 0.023623 0.009664
C92   C     C_R   0.785525 0.302030 0.976294 0.009623
C93   C     C_R   0.707635 0.834348 0.952028 -0.140837
C94   C     C_R   0.292183 0.834057 0.047953 -0.140869
C95   C     C_R   0.207650 0.334318 0.952018 -0.140754
C96   C     C_R   0.792197 0.334083 0.047946 -0.140926
H41   H     H_    0.659848 0.810639 0.922957 0.165099
H42   H     H_    0.339901 0.810224 0.077046 0.165546
H43   H     H_    0.159873 0.310584 0.922940 0.165267
H44   H     H_    0.839927 0.310286 0.077031 0.165228
C97   C     C_R   0.759492 0.902796 0.918380 0.011092
C98   C     C_R   0.240401 0.902609 0.081634 0.011224
C99   C     C_R   0.259500 0.402786 0.918375 0.011312
C100  C     C_R   0.740408 0.402616 0.081631 0.011147
C101  C     C_2   0.655612 0.722805 0.049044 0.298320
H45   H     H_    0.628449 0.665419 0.010472 0.098150
O53   O     O_2   0.632363 0.724927 0.109224 -0.395591
C102  C     C_2   0.344267 0.722792 0.950795 0.299087
H46   H     H_    0.371358 0.665352 0.989289 0.098382
O54   O     O_2   0.367639 0.725133 0.890670 -0.395486
C103  C     C_2   0.155615 0.222804 0.049040 0.298266
H47   H     H_    0.128453 0.165412 0.010470 0.098191
O55   O     O_2   0.132360 0.224949 0.109216 -0.395742
C104  C     C_2   0.844265 0.222754 0.950807 0.298764
H48   H     H_    0.871376 0.165371 0.989318 0.098250
O56   O     O_2   0.867605 0.224989 0.890668 -0.395255
N1    N     N_R   0.476867 0.941136 0.926563 0.116165
O57   O     O_R   0.517986 0.846181 0.930640 -0.308405
O58   O     O_R   0.426960 0.943480 0.878616 -0.290004
N2    N     N_R   0.522367 0.940859 0.072853 0.115861
O59   O     O_R   0.481130 0.845998 0.068545 -0.309280
O60   O     O_R   0.572392 0.942823 0.120682 -0.287553
N3    N     N_R   0.977103 0.441081 0.926678 0.116161
O61   O     O_R   0.018305 0.346219 0.930655 -0.308685
O62   O     O_R   0.926979 0.443246 0.878939 -0.288330
N4    N     N_R   0.022577 0.440932 0.072963 0.115871
O63   O     O_R   0.981402 0.345996 0.068598 -0.309216
O64   O     O_R   0.072543 0.442980 0.120857 -0.288624

loop_
_geom_bond_atom_site_label_1
_geom_bond_atom_site_label_2
_geom_bond_distance
_ccdc_geom_bond_type
C18   O42   1.266600 A    
C65   N1    1.435870 S    
O4    C12   1.258211 A    
C49   C53   1.395359 A    
C29   C30   1.380919 A    
C26   C30   1.401956 A    
O39   C19   1.282622 A    
O20   Cr12  2.058666 S    
O5    Cr1   1.951490 S    
C37   H9    1.112440 S    
O29   C13   1.289271 A    
C38   H8    1.110445 S    
C31   C32   1.383078 A    
C79   C99   1.394313 A    
C14   C87   1.475735 S    
C92   C96   1.396190 A    
N2    O59   1.301155 A    
C78   C82   1.378832 A    
N4    O64   1.301305 A    
O26   C22   1.259535 A    
C33   C34   1.391094 A    
O1    C9    1.257731 A    
C24   C100  1.455870 S    
O46   C22   1.275819 A    
O7    C3    1.266009 A    
C80   H36   1.082421 S    
C55   C59   1.371009 A    
C73   C74   1.394319 A    
C89   C93   1.396423 A    
C88   C92   1.441937 A    
C53   C57   1.373087 A    
C11   C63   1.448210 S    
C83   H39   1.080889 S    
C103  O55   1.215833 D    
C82   H38   1.080860 S    
C9    C61   1.450490 S    
O47   C23   1.275388 A    
C60   H28   1.081177 S    
C40   H6    1.111561 S    
C46   H18   1.083279 S    
C47   H19   1.083049 S    
O21   C9    1.271620 A    
C44   C64   1.400450 A    
C20   C71   1.469511 S    
O23   Cr11  1.946980 S    
C42   H14   1.083313 S    
O32   Cr4   1.946209 S    
C1    O9    1.266423 A    
O44   Cr12  2.066696 S    
C41   H13   1.083207 S    
C19   C72   1.469600 S    
C66   C69   1.412245 A    
C58   H26   1.082512 S    
C3    O11   1.266007 A    
C65   C66   1.390146 A    
O11   Cr7   2.070952 S    
C17   C70   1.469536 S    
C67   C68   1.390089 A    
C60   C64   1.403824 A    
C94   H42   1.084468 S    
C43   C63   1.404337 A    
C84   C88   1.402776 A    
C93   H41   1.084509 S    
O27   Cr3   2.069529 S    
C27   C36   1.402083 A    
C96   H44   1.084495 S    
O14   C6    1.273331 A    
C59   C63   1.396087 A    
Cr4   O52   1.968889 S    
C26   C33   1.403051 A    
C91   C103  1.491078 S    
O2    Cr2   2.066570 S    
C85   C89   1.441790 A    
C52   C56   1.395549 A    
C57   C61   1.403931 A    
O2    C10   1.256141 A    
C23   C99   1.456331 S    
C50   C54   1.394154 A    
O42   Cr10  2.066696 S    
C77   C81   1.379081 A    
C96   C100  1.389281 A    
N1    O58   1.301317 A    
C70   C74   1.402263 A    
O26   Cr2   2.067105 S    
C95   H43   1.084483 S    
C56   C60   1.373513 A    
C55   H23   1.083253 S    
C89   C101  1.491084 S    
C48   H20   1.081456 S    
C46   C50   1.407223 A    
Cr7   O51   1.976347 S    
C31   C39   1.494093 S    
C20   O44   1.266655 A    
O6    Cr2   1.949269 S    
C91   C95   1.396429 A    
C5    C26   1.449909 S    
C10   C62   1.446107 S    
C28   C32   1.393900 A    
C73   H29   1.082184 S    
O24   Cr12  1.947511 S    
O16   Cr8   1.940335 S    
O9    Cr5   2.070952 S    
C36   H4    1.083554 S    
O30   Cr2   1.946209 S    
O22   C10   1.272002 A    
O48   Cr12  1.939096 S    
C37   C38   1.515156 S    
C4    O12   1.265998 A    
C72   C76   1.402260 A    
C2    C51   1.449154 S    
C93   C97   1.389573 A    
C2    O10   1.256017 A    
C3    C50   1.445238 S    
C29   C37   1.489607 S    
C75   C76   1.394333 A    
C81   C85   1.402966 A    
C81   H37   1.080885 S    
C15   O35   1.313831 A    
C87   C91   1.441791 A    
Cr10  O50   1.976506 S    
O29   Cr1   1.944169 S    
O13   C5    1.269677 A    
O40   C20   1.282347 A    
C84   H40   1.080857 S    
O48   C24   1.275805 A    
O12   Cr8   2.069935 S    
Cr12  O52   1.976506 S    
O22   Cr10  1.947511 S    
O15   C7    1.273579 A    
C103  H47   1.085812 S    
C68   C71   1.412174 A    
O5    C1    1.269317 A    
C39   H11   1.111464 S    
C38   H10   1.111522 S    
C45   H17   1.081523 S    
C94   C98   1.389271 A    
O46   Cr10  1.939096 S    
N1    O57   1.301192 A    
O39   Cr7   1.950320 S    
O25   C21   1.259499 A    
C13   C88   1.475291 S    
C104  O56   1.215824 D    
N3    O61   1.301212 A    
C58   C62   1.405108 A    
C13   O33   1.313856 A    
C71   C75   1.402475 A    
O8    C4    1.268625 A    
C95   C99   1.389549 A    
C101  H45   1.085811 S    
C53   H21   1.083848 S    
O7    Cr3   1.951490 S    
O47   Cr11  1.940365 S    
Cr2   O50   1.968889 S    
O15   Cr7   1.938627 S    
O35   Cr7   2.057081 S    
Cr1   O49   1.968868 S    
C16   C85   1.475710 S    
Cr3   O51   1.968868 S    
O14   Cr6   1.940335 S    
N3    O62   1.301545 A    
C102  O54   1.215821 D    
O21   Cr9   1.946980 S    
C74   H30   1.082150 S    
C42   C62   1.397665 A    
C7    O19   1.259621 A    
C67   N3    1.435756 S    
C32   C40   1.490254 S    
O8    Cr4   1.949269 S    
O30   C14   1.289317 A    
O37   Cr5   1.950320 S    
C8    O20   1.267224 A    
C68   N4    1.435890 S    
C92   C104  1.491131 S    
C22   C98   1.455883 S    
O3    C11   1.264209 A    
C7    C28   1.447796 S    
C8    C27   1.449184 S    
O24   C12   1.271726 A    
O34   Cr6   2.059118 S    
O3    Cr3   2.064560 S    
C12   C64   1.450866 S    
O31   Cr3   1.944169 S    
C79   C83   1.379088 A    
O38   C18   1.282386 A    
C76   H32   1.082162 S    
C45   C49   1.404910 A    
C19   O43   1.266481 A    
C80   C84   1.378830 A    
C5    O17   1.267930 A    
C66   N2    1.435877 S    
O28   C24   1.259540 A    
C67   C72   1.412307 A    
C21   C97   1.456333 S    
C78   H34   1.082422 S    
C56   H24   1.083809 S    
C47   C51   1.399785 A    
O17   Cr9   2.059646 S    
N2    O60   1.301260 A    
Cr11  O51   1.975647 S    
O6    C2    1.272846 A    
C79   H35   1.082416 S    
C44   C48   1.390903 A    
C17   O41   1.266518 A    
C83   C87   1.402973 A    
C43   H15   1.081685 S    
C37   H7    1.111535 S    
C35   H3    1.080747 S    
C14   O34   1.313425 A    
O25   Cr1   2.069529 S    
C34   H2    1.082643 S    
C35   C36   1.387108 A    
C75   H31   1.082184 S    
C25   C34   1.409876 A    
C39   H5    1.109892 S    
C51   C55   1.405093 A    
O1    Cr1   2.064560 S    
C40   H12   1.112474 S    
C80   C100  1.394371 A    
C15   C86   1.475279 S    
C48   C52   1.404866 A    
O40   Cr8   1.949561 S    
C33   H1    1.083490 S    
Cr8   O52   1.975418 S    
O32   C16   1.289307 A    
O41   Cr9   2.066289 S    
O33   Cr5   2.057081 S    
C41   C61   1.400333 A    
O13   Cr5   1.938627 S    
Cr6   O50   1.975418 S    
C104  H48   1.085798 S    
C90   C94   1.396190 A    
O31   C15   1.289279 A    
C54   C58   1.372299 A    
O45   C21   1.275368 A    
C59   H27   1.083963 S    
O19   Cr11  2.059646 S    
C101  O53   1.215831 D    
C6    C25   1.446827 S    
O37   C17   1.282620 A    
C54   H22   1.084027 S    
O23   C11   1.269138 A    
O10   Cr6   2.069935 S    
C25   C29   1.392198 A    
N4    O63   1.301178 A    
C42   C46   1.388929 A    
Cr9   O49   1.975647 S    
O4    Cr4   2.066570 S    
C90   C102  1.491099 S    
C86   C90   1.441909 A    
Cr5   O49   1.976347 S    
C1    C52   1.450646 S    
O28   Cr4   2.067105 S    
C16   O36   1.313424 A    
C57   H25   1.081205 S    
C102  H46   1.085785 S    
C30   C38   1.494658 S    
C27   C31   1.402454 A    
O18   Cr10  2.058666 S    
C6    O18   1.258526 A    
O43   Cr11  2.066289 S    
C39   C40   1.514897 S    
C78   C98   1.394372 A    
O27   C23   1.259492 A    
O45   Cr9   1.940365 S    
C77   C97   1.394314 A    
C82   C86   1.402776 A    
C77   H33   1.082416 S    
O36   Cr8   2.059118 S    
C18   C69   1.469538 S    
C41   C45   1.390733 A    
C65   C70   1.412275 A    
O16   C8    1.270423 A    
C69   C73   1.402445 A    
C4    C49   1.450146 S    
C44   H16   1.083204 S    
C28   C35   1.408895 A    
O38   Cr6   1.949561 S    
C43   C47   1.390206 A    
