data_mof_unit_pretest_1486.cif
_audit_creation_date              2013-03-05T16:19:45-0500
_audit_creation_method            fapswitch 2.2
_symmetry_space_group_name_H-M    P1
_symmetry_Int_Tables_number       1
_space_group_crystal_system       triclinic
_cell_length_a                    10.616961
_cell_length_b                    9.680851
_cell_length_c                    27.745384
_cell_angle_alpha                 89.934624
_cell_angle_beta                  89.99182
_cell_angle_gamma                 89.976019
_cell_volume                      2851.70221288

loop_
_atom_site_label
_atom_site_type_symbol
_atom_site_description
_atom_site_fract_x
_atom_site_fract_y
_atom_site_fract_z
_atom_type_partial_charge
O1    O     O_R   0.314910 0.616040 0.499990 -0.635056
O2    O     O_R   0.314910 0.383960 0.499990 -0.634640
C1    C     C_R   0.257581 0.500301 0.499947 0.847276
O3    O     O_R   0.500140 0.616020 0.428740 -0.627677
O4    O     O_R   0.500140 0.383980 0.428740 -0.627714
C2    C     C_R   0.499887 0.500065 0.405942 0.876543
Zn1   Zn    Zn3+2 0.500150 0.654960 0.499980 0.905311
Zn2   Zn    Zn3+2 0.500150 0.345040 0.499980 0.905545
O5    O     O_R   0.685320 0.616040 0.499970 -0.635183
O6    O     O_R   0.685320 0.383960 0.499970 -0.634012
O7    O     O_R   0.500090 0.616050 0.571230 -0.629996
O8    O     O_R   0.500090 0.383950 0.571230 -0.629880
C3    C     C_R   0.742653 0.500266 0.499912 0.846562
C4    C     C_R   0.500394 0.499891 0.594024 0.877936
C5    C     C_R   0.383826 0.472528 0.177982 0.507610
O9    O     O_2   0.278918 0.450232 0.204211 -0.565043
N1    N     N_R   0.493738 0.499687 0.201650 -0.357609
C6    C     C_R   0.603482 0.525060 0.177939 0.498870
C7    C     C_R   0.491130 0.374797 0.278028 -0.104759
C8    C     C_R   0.493211 0.374632 0.328070 -0.228081
C9    C     C_R   0.501371 0.625622 0.327898 -0.228518
C10   C     C_R   0.499481 0.625368 0.277836 -0.102431
C11   C     C_R   0.494355 0.500035 0.252984 0.332543
C12   C     C_R   0.494928 0.494993 0.101837 -0.092852
C13   C     C_R   0.380850 0.468919 0.126997 -0.041652
C14   C     C_R   0.270031 0.439074 0.100253 0.194156
C15   C     C_R   0.606375 0.523275 0.127758 -0.006010
C16   C     C_R   0.498362 0.500135 0.353329 -0.044540
H1    H     H_    0.505300 0.723692 0.346595 0.150269
H2    H     H_    0.501991 0.722203 0.258278 0.134224
C17   C     C_R   0.502256 0.499347 0.646633 -0.043279
C18   C     C_R   0.388125 0.482461 0.973554 0.069743
C19   C     C_R   0.618928 0.500490 0.975352 0.007322
C20   C     C_R   0.505461 0.491482 0.949062 0.071562
C21   C     C_R   0.276107 0.486062 0.946186 -0.224912
C22   C     C_R   0.279483 0.489347 0.896438 -0.149706
C23   C     C_R   0.394357 0.490971 0.872039 -0.003522
C24   C     C_R   0.508846 0.492244 0.897957 -0.086241
C25   C     C_R   0.625613 0.494706 0.872791 -0.061866
C26   C     C_R   0.621418 0.497915 0.821733 0.495031
N2    N     N_R   0.508591 0.496439 0.798208 -0.354864
C27   C     C_R   0.396624 0.492944 0.821900 0.497917
C28   C     C_R   0.498610 0.372931 0.721859 -0.109693
C29   C     C_R   0.496143 0.373597 0.671829 -0.226433
C30   C     C_R   0.511116 0.624235 0.672129 -0.228693
C31   C     C_R   0.513830 0.623112 0.722197 -0.106886
C32   C     C_R   0.507473 0.497541 0.746922 0.342053
O10   O     O_2   0.287741 0.491755 0.796716 -0.567904
C33   C     C_R   0.386089 0.472368 0.024521 -0.002516
C34   C     C_R   0.498424 0.493208 0.050753 0.070976
C35   C     C_R   0.614603 0.512592 0.026245 0.071260
C36   C     C_R   0.274978 0.440367 0.049959 -0.214184
H3    H     H_    0.489253 0.275969 0.652979 0.148254
H4    H     H_    0.493518 0.275922 0.741242 0.129191
H5    H     H_    0.190878 0.490969 0.877117 0.184075
H6    H     H_    0.183632 0.490877 0.962127 0.135551
H7    H     H_    0.190324 0.411217 0.031163 0.140734
O11   O     O_2   0.709748 0.550948 0.203116 -0.561643
C37   C     C_R   0.718546 0.550219 0.103289 -0.141039
H8    H     H_    0.490687 0.276568 0.346885 0.150548
H9    H     H_    0.487488 0.277889 0.258617 0.133474
H10   H     H_    0.804311 0.575343 0.122555 0.188438
C38   C     C_R   0.733845 0.495092 0.950104 -0.244622
C39   C     C_R   0.739810 0.492317 0.899791 0.182576
O12   O     O_2   0.727478 0.503084 0.795190 -0.572210
C40   C     C_R   0.722711 0.545697 0.053521 -0.227700
H11   H     H_    0.822119 0.489120 0.969141 0.136355
H12   H     H_    0.516257 0.722435 0.653480 0.148114
H13   H     H_    0.520538 0.719426 0.741847 0.129030
H14   H     H_    0.811690 0.573078 0.037442 0.140479
C41   C     C_3   0.071520 0.652302 0.499375 -0.399277
C42   C     C_3   0.072370 0.427442 0.545767 -0.399133
H15   H     H_    0.106079 0.707937 0.466778 0.169985
H16   H     H_    0.107002 0.318909 0.547051 0.170860
H17   H     H_    0.105731 0.709400 0.531666 0.170854
H18   H     H_    0.107694 0.480864 0.578612 0.165187
C43   C     C_3   0.928605 0.652277 0.499291 -0.397787
C44   C     C_3   0.927853 0.427542 0.545778 -0.399371
H19   H     H_    0.894041 0.709659 0.531478 0.171468
H20   H     H_    0.892555 0.481183 0.578594 0.165065
H21   H     H_    0.894301 0.707621 0.466593 0.169513
H22   H     H_    0.893178 0.319063 0.547134 0.171535
H23   H     H_    0.107727 0.477320 0.421297 0.165287
H24   H     H_    0.107230 0.316775 0.453846 0.170292
H25   H     H_    0.892531 0.476942 0.421284 0.165129
H26   H     H_    0.893424 0.316559 0.453929 0.169998
C45   C     C_3   0.072467 0.425302 0.454470 -0.398960
C46   C     C_3   0.121340 0.501301 0.499886 0.179930
C47   C     C_3   0.878902 0.501254 0.499863 0.179811
C48   C     C_3   0.927927 0.425154 0.454481 -0.398956
C49   C     C_3   0.381461 0.081493 0.478305 -0.233711
C50   C     C_3   0.381431 0.918772 0.478338 -0.234551
H27   H     H_    0.368475 0.120489 0.440899 0.144664
H28   H     H_    0.368270 0.879886 0.440961 0.145016
H29   H     H_    0.299197 0.119035 0.499376 0.145075
H30   H     H_    0.299261 0.881363 0.499486 0.144481
H31   H     H_    0.599313 0.120227 0.432283 0.146270
H32   H     H_    0.599278 0.880145 0.432274 0.145847
C51   C     C_3   0.605464 0.081443 0.469961 -0.233466
C52   C     C_3   0.605442 0.918673 0.469953 -0.233523
C53   C     C_3   0.512365 0.081084 0.548394 -0.231758
C54   C     C_3   0.512438 0.918598 0.548392 -0.231699
N3    N     N_3   0.499750 0.138610 0.498940 -0.032278
N4    N     N_3   0.499750 0.861390 0.498940 -0.031924
H33   H     H_    0.600795 0.119630 0.565170 0.145195
H34   H     H_    0.600953 0.879967 0.565133 0.143947
H35   H     H_    0.433674 0.119038 0.571317 0.145108
H36   H     H_    0.433849 0.880486 0.571352 0.146655
H37   H     H_    0.696778 0.119165 0.484492 0.144403
H38   H     H_    0.696744 0.880822 0.484486 0.143919
C55   C     C_3   0.871128 0.487195 0.877874 -0.347286
C56   C     C_3   0.916681 0.631495 0.863808 -0.765108
H39   H     H_    0.847997 0.684719 0.840059 0.285639
H40   H     H_    0.930374 0.695110 0.896695 0.231198
H41   H     H_    0.007989 0.623695 0.844516 0.255836
H42   H     H_    0.940090 0.444709 0.904196 0.163850
H43   H     H_    0.876500 0.413672 0.847384 0.250731
C57   C     C_3   0.144574 0.404829 0.123289 -0.773339
H44   H     H_    0.070205 0.382566 0.096226 0.198314
H45   H     H_    0.153723 0.311188 0.146159 0.265455
H46   H     H_    0.110668 0.493864 0.144884 0.269651

loop_
_geom_bond_atom_site_label_1
_geom_bond_atom_site_label_2
_geom_bond_distance
_ccdc_geom_bond_type
C53   H35   1.112494 S    
C51   N3    1.487504 S    
C45   C46   1.549518 S    
C52   H38   1.111750 S    
C53   C54   1.573000 S    
N2    C27   1.358720 A    
H23   C45   1.113493 S    
C7    C8    1.388607 A    
C12   C15   1.411801 A    
C52   N4    1.487541 S    
C4    C17   1.459819 S    
C42   H18   1.113511 S    
C56   H40   1.111028 S    
C40   H14   1.077748 S    
C30   C31   1.389475 A    
Zn1   O7    2.012007 S    
C25   C39   1.425448 A    
C43   C47   1.554619 S    
N1    C11   1.424305 S    
C22   C23   1.394897 A    
C37   C40   1.382254 A    
O4    C2    1.288957 A    
O7    C4    1.289528 A    
C44   H20   1.113514 S    
C5    C13   1.415427 A    
C5    O9    1.347725 S    
C51   H37   1.111999 S    
C50   H30   1.111825 S    
Zn1   O5    2.001567 S    
C23   C27   1.391423 A    
O5    C3    1.275197 A    
C57   H44   1.111008 S    
C31   H13   1.083013 S    
C42   C44   1.534332 S    
H31   C51   1.112303 S    
C29   H3    1.083200 S    
C6    O11   1.350747 S    
C2    C16   1.459882 S    
C21   C22   1.381071 A    
H24   C45   1.113584 S    
C54   H36   1.112510 S    
C55   H42   1.112570 S    
C8    H8    1.083231 S    
C19   C38   1.407764 A    
C21   H6    1.077782 S    
C53   N3    1.486275 S    
C20   C24   1.418408 A    
C9    C10   1.389156 A    
C53   H33   1.112734 S    
O3    Zn1   2.012631 S    
C56   H39   1.109267 S    
C42   C46   1.549227 S    
N1    C6    1.360279 A    
C57   H45   1.110173 S    
C43   H19   1.114300 S    
C44   C47   1.549190 S    
C12   C34   1.417964 A    
C38   H11   1.077352 S    
C17   C29   1.404640 A    
C18   C21   1.411527 A    
C12   C13   1.420409 A    
C42   H16   1.113557 S    
H26   C48   1.113548 S    
C49   C50   1.575268 S    
C41   H15   1.114292 S    
C39   C55   1.521769 S    
C8    C16   1.404386 A    
C34   C35   1.420812 A    
C13   C14   1.421066 A    
C9    H1    1.083218 S    
C41   C46   1.554413 S    
O1    C1    1.275328 A    
C57   H46   1.110121 S    
C18   C20   1.421613 A    
C7    C11   1.397156 A    
C28   C29   1.388363 A    
C23   C24   1.412458 A    
C14   C36   1.396433 A    
C49   H27   1.112555 S    
C44   H22   1.113559 S    
C28   H4    1.083038 S    
C51   C52   1.575747 S    
C43   H21   1.114241 S    
Zn2   O8    2.012851 S    
C33   C36   1.408993 A    
C30   H12   1.083226 S    
C50   H28   1.112515 S    
C19   C20   1.411160 A    
N2    C32   1.423040 S    
C27   O10   1.350924 S    
C54   N4    1.486367 S    
O3    C2    1.289112 A    
C26   N2    1.364333 A    
C9    C16   1.404527 A    
O8    C4    1.288941 A    
H32   C52   1.112290 S    
Zn1   N4    1.998597 S    
C41   C43   1.517326 S    
C5    N1    1.364894 A    
C31   C32   1.396809 A    
C37   H10   1.083813 S    
C10   H2    1.082960 S    
C55   C56   1.528703 S    
C3    C47   1.446587 S    
C1    C46   1.446493 S    
O1    Zn1   2.002607 S    
O2    Zn2   2.002297 S    
C6    C15   1.392758 A    
C14   C57   1.514008 S    
C49   N3    1.487358 S    
O6    C3    1.280166 A    
O4    Zn2   2.011785 S    
H25   C48   1.113483 S    
C19   C35   1.417761 A    
C55   H43   1.107629 S    
O2    C1    1.279996 A    
C22   H5    1.082908 S    
C15   C37   1.395295 A    
C41   H17   1.114255 S    
C24   C25   1.422939 A    
C7    H9    1.082993 S    
C54   H34   1.112746 S    
Zn2   N3    1.998667 S    
C26   O12   1.346306 S    
C18   C33   1.417527 A    
C36   H7    1.077071 S    
C50   N4    1.487356 S    
C49   H29   1.112090 S    
C38   C39   1.397674 A    
C25   C26   1.417621 A    
Zn2   O6    2.001877 S    
C33   C34   1.411945 A    
C17   C30   1.404655 A    
C45   C48   1.534574 S    
C10   C11   1.397335 A    
C47   C48   1.549423 S    
C28   C32   1.396300 A    
C35   C40   1.412083 A    
C56   H41   1.109894 S    
