data_mof_unit_pretest_907.cif
_audit_creation_date              2012-12-11T16:29:30-0500
_audit_creation_method            fapswitch 2.2
_symmetry_space_group_name_H-M    P1
_symmetry_Int_Tables_number       1
_space_group_crystal_system       triclinic
_cell_length_a                    6.953502
_cell_length_b                    17.34521
_cell_length_c                    18.803988
_cell_angle_alpha                 106.002659
_cell_angle_beta                  89.711456
_cell_angle_gamma                 90.301531
_cell_volume                      2180.01726836

loop_
_atom_site_label
_atom_site_type_symbol
_atom_type_description
_atom_site_fract_x
_atom_site_fract_y
_atom_site_fract_z
_atom_type_partial_charge
O1    O     O_R   0.494360 0.415680 0.413760 -0.549021
O2    O     O_R   0.818810 0.432910 0.557230 -0.524719
O3    O     O_R   0.994290 0.584320 0.586240 -0.531327
C1    C     C_R   0.650299 0.417176 0.581665 0.776010
O4    O     O_R   0.823740 0.406440 0.412520 -0.516363
O5    O     O_R   0.999250 0.557660 0.440500 -0.520872
C2    C     C_R   0.654107 0.382206 0.385916 0.712669
O6    O     O_R   0.489400 0.442340 0.559500 -0.520677
O7    O     O_3   0.662500 0.549650 0.509350 -0.351186
V1    V     V_3+5 0.935340 0.490790 0.498270 1.579249
O8    O     O_R   0.329270 0.567090 0.442770 -0.530290
C3    C     C_R   0.161507 0.583132 0.418612 0.723170
O9    O     O_R   0.324340 0.593560 0.587480 -0.521559
C4    C     C_R   0.154422 0.616802 0.615032 0.715573
V2    V     V_3+5 0.435970 0.509210 0.501730 1.559260
O10   O     O_3   0.158940 0.450350 0.490650 -0.356342
C5    C     C_R   0.067451 0.592008 0.763651 -0.177883
C6    C     C_R   0.985556 0.582415 0.829397 0.346943
C7    C     C_R   0.951416 0.649287 0.888946 0.420971
C8    C     C_R   0.000152 0.725242 0.883917 -0.287134
C9    C     C_R   0.069767 0.738315 0.817337 -0.002296
C10   C     C_R   0.094986 0.670884 0.754144 0.006791
C11   C     C_R   0.118334 0.817373 0.814452 -0.099738
C12   C     C_R   0.173587 0.830889 0.745391 -0.036207
C13   C     C_R   0.163245 0.765369 0.679908 -0.015346
C14   C     C_R   0.139705 0.684915 0.684278 -0.065845
C15   C     C_R   0.232545 0.907615 0.737254 0.299312
C16   C     C_R   0.309741 0.913227 0.669151 -0.079994
C17   C     C_R   0.274379 0.851194 0.605000 0.252235
C18   C     C_R   0.174073 0.782979 0.610499 -0.098126
H1    H     H_    0.979653 0.773915 0.933409 0.145593
C19   C     C_1   0.111645 0.862567 0.131423 -0.115977
C20   C     C_1   0.119472 0.819822 0.174835 0.098837
C21   C     C_1   0.129576 0.769652 0.226745 0.081183
C22   C     C_1   0.138185 0.727455 0.270622 0.087498
C23   C     C_1   0.147948 0.677362 0.322598 0.136534
C24   C     C_1   0.154972 0.634832 0.366223 -0.078726
C25   C     C_1   0.642349 0.365760 0.634174 -0.111383
C26   C     C_1   0.638364 0.323470 0.678006 0.074631
C27   C     C_1   0.634999 0.273420 0.730059 0.072256
C28   C     C_1   0.632354 0.231063 0.773857 0.070715
C29   C     C_1   0.628627 0.180417 0.825395 0.118448
C30   C     C_1   0.623881 0.136866 0.868130 -0.034273
C31   C     C_R   0.866267 0.385352 0.252276 -0.090855
C32   C     C_R   0.030293 0.373319 0.206540 0.374457
C33   C     C_R   0.034525 0.307122 0.143662 -0.151844
C34   C     C_R   0.870462 0.257155 0.128359 -0.038298
C35   C     C_R   0.748335 0.251870 0.188221 0.050044
C36   C     C_R   0.752830 0.317114 0.253680 -0.084252
C37   C     C_R   0.623415 0.184909 0.184040 -0.085224
C38   C     C_R   0.512323 0.181952 0.247317 0.002991
C39   C     C_R   0.517290 0.247279 0.312798 0.056118
C40   C     C_R   0.641393 0.314384 0.316726 -0.098410
C41   C     C_R   0.397156 0.113934 0.248683 -0.089067
C42   C     C_R   0.237438 0.124976 0.296416 0.266437
C43   C     C_R   0.233447 0.191757 0.358747 -0.117342
C44   C     C_R   0.396611 0.242189 0.373061 -0.037131
O11   O     O_R   0.775690 0.057750 0.940570 -0.536946
O12   O     O_R   0.441200 0.093570 0.087490 -0.530112
O13   O     O_R   0.265840 0.942320 0.059480 -0.547693
C45   C     C_R   0.610706 0.117455 0.114504 0.789945
O14   O     O_R   0.446270 0.067110 0.942790 -0.482353
O15   O     O_R   0.270950 0.915660 0.913750 -0.524822
C46   C     C_R   0.615048 0.083647 0.919027 0.789408
O16   O     O_R   0.770580 0.084400 0.086300 -0.534923
O17   O     O_3   0.602640 0.950400 0.990690 -0.375164
V3    V     V_3+5 0.329740 0.009200 0.001730 1.611501
O18   O     O_R   0.940900 0.906360 0.912450 -0.540333
C47   C     C_R   0.109896 0.884319 0.884231 0.775598
O19   O     O_R   0.935830 0.932820 0.057160 -0.509924
C48   C     C_R   0.104012 0.915286 0.080000 0.705256
V4    V     V_3+5 0.829130 0.990680 0.998180 1.574175
O20   O     O_3   0.106100 0.049590 0.009310 -0.341130
Cl1   Cl    Cl    0.342338 0.860969 0.516879 -0.646916
C49   C     C_2   0.786467 0.467952 0.280955 0.502336
H2    H     H_    0.645475 0.477403 0.306471 0.043562
O21   O     O_2   0.868943 0.526295 0.270961 -0.497175
Cl2   Cl    Cl    0.224592 0.442150 0.227118 -0.658336
C50   C     C_2   0.199375 0.295429 0.091240 0.439694
H3    H     H_    0.297909 0.344219 0.091790 0.158623
O22   O     O_2   0.230637 0.229979 0.048000 -0.512124
C51   C     C_2   0.802129 0.232919 0.050792 0.371086
H4    H     H_    0.900803 0.211978 0.004895 0.102995
O23   O     O_2   0.633542 0.241458 0.037239 -0.536731
C52   C     C_2   0.461904 0.030200 0.214733 0.455495
H5    H     H_    0.359954 0.981220 0.202377 0.077194
O24   O     O_2   0.632560 0.014220 0.205483 -0.500307
Cl3   Cl    Cl    0.054212 0.051101 0.282005 -0.647620
C53   C     C_2   0.466507 0.267127 0.450439 0.376612
H6    H     H_    0.368698 0.288420 0.496562 0.090843
O25   O     O_2   0.635441 0.258782 0.463624 -0.532794
C54   C     C_2   0.141963 0.518446 0.711105 0.450691
H7    H     H_    0.045752 0.468930 0.686532 0.062275
O26   O     O_2   0.314280 0.511036 0.698902 -0.526520
Cl4   Cl    Cl    0.935041 0.485705 0.839321 -0.542644
Cl5   Cl    Cl    0.856540 0.639653 0.973140 -0.513875
Cl6   Cl    Cl    0.182333 0.000320 0.803257 -0.631891
C55   C     C_2   0.413634 0.986292 0.663446 0.536877
H8    H     H_    0.405965 0.005824 0.613504 0.103388
O27   O     O_2   0.515507 0.023959 0.713818 -0.522960
C56   C     C_2   0.041170 0.745116 0.549327 0.422295
H9    H     H_    0.076943 0.743358 0.492971 0.078119
O28   O     O_2   0.881579 0.722434 0.562252 -0.506791
C57   C     C_2   0.070461 0.203502 0.412082 0.431480
H10   H     H_    0.973710 0.154550 0.412847 0.156956
O29   O     O_2   0.038354 0.269325 0.454552 -0.516542

loop_
_geom_bond_atom_site_label_1
_geom_bond_atom_site_label_2
_ccdc_geom_bond_type
C31   C36   A    
C42   C43   A    
C56   H9    S    
C28   C29   S    
C11   C47   S    
C7    C8    A    
C12   C15   A    
C1    O6    A    
C57   O29   D    
C32   C33   A    
C31   C32   A    
C44   C53   S    
O14   V3    S    
C16   C17   A    
C6    C7    A    
O5    C3    A    
C33   C50   S    
V2    O10   S    
C3    C24   S    
C43   C44   A    
C21   C22   T    
C34   C51   S    
C42   Cl3   S    
O14   C46   A    
O12   V3    S    
C41   C42   A    
O8    V2    S    
C15   Cl6   S    
O15   C47   A    
O13   V3    S    
O17   V4    S    
O18   C47   A    
C11   C12   A    
C32   Cl2   S    
V3    O20   S    
C53   O25   D    
O7    V1    S    
C35   C37   A    
O17   V3    S    
C56   O28   D    
O9    C4    A    
C6    Cl4   S    
C5    C54   S    
C57   H10   S    
C30   C46   S    
C5    C6    A    
C19   C48   S    
C52   O24   D    
O11   C46   A    
O15   V3    S    
O12   C45   A    
C38   C39   A    
C12   C13   A    
C43   C57   S    
C26   C27   S    
C50   O22   D    
C17   Cl1   S    
O13   C48   A    
C37   C38   A    
C13   C14   A    
C52   H5    S    
C22   C23   S    
C31   C49   S    
O2    C1    A    
C49   H2    S    
C17   C18   A    
C34   C35   A    
O18   V4    S    
C54   O26   D    
C20   C21   S    
C4    C14   S    
C49   O21   D    
O19   C48   A    
O3    C4    A    
O1    V2    S    
C35   C36   A    
C1    C25   S    
C51   H4    S    
O6    V2    S    
C51   O23   D    
C9    C11   A    
C29   C30   T    
C2    C40   S    
O2    V1    S    
C39   C40   A    
O4    C2    A    
C16   C55   S    
C13   C18   A    
C33   C34   A    
C27   C28   T    
O1    C2    A    
V4    O20   S    
O5    V1    S    
C41   C52   S    
O8    C3    A    
O16   V4    S    
C55   O27   D    
C5    C10   A    
C38   C41   A    
C19   C20   T    
O9    V2    S    
O7    V2    S    
O4    V1    S    
O3    V1    S    
V1    O10   S    
O11   V4    S    
C25   C26   T    
C36   C40   A    
C18   C56   S    
C54   H7    S    
C39   C44   A    
C50   H3    S    
C45   O16   A    
C8    C9    A    
C23   C24   T    
C55   H8    S    
C10   C14   A    
C15   C16   A    
C37   C45   S    
O19   V4    S    
C53   H6    S    
C9    C10   A    
C7    Cl5   S    
C8    H1    S    
