data_mof_unit_pretest_825.cif
_audit_creation_date              2012-12-10T18:10:50-0500
_audit_creation_method            fapswitch 2.2
_symmetry_space_group_name_H-M    P1
_symmetry_Int_Tables_number       1
_space_group_crystal_system       triclinic
_cell_length_a                    18.325832
_cell_length_b                    18.335809
_cell_length_c                    47.303425
_cell_angle_alpha                 89.998471
_cell_angle_beta                  90.001199
_cell_angle_gamma                 90.00087
_cell_volume                      15894.8474405

loop_
_atom_site_label
_atom_site_type_symbol
_atom_type_description
_atom_site_fract_x
_atom_site_fract_y
_atom_site_fract_z
_atom_type_partial_charge
C1    C     C_R   0.000000 0.860184 0.000000 0.835544
C2    C     C_R   0.139810 1.000000 0.000000 0.845298
C3    C     C_R   0.999999 0.139816 1.000000 0.835543
C4    C     C_R   0.860190 0.000000 1.000000 0.845301
C5    C     C_R   0.500000 0.360185 0.500000 0.835363
C6    C     C_R   0.639810 0.500000 0.500000 0.845531
C7    C     C_R   0.500000 0.639815 0.500000 0.835360
C8    C     C_R   0.360190 0.500000 0.500000 0.845532
C9    C     C_R   0.458031 0.949244 0.869190 -0.151040
C10   C     C_R   0.028242 0.440377 0.869720 -0.142860
C11   C     C_R   0.541972 0.050771 0.869191 -0.151016
C12   C     C_R   0.971755 0.559602 0.869717 -0.142908
C13   C     C_R   0.458021 0.050763 0.130808 -0.151029
C14   C     C_R   0.028295 0.559595 0.130280 -0.142898
C15   C     C_R   0.541959 0.949236 0.130811 -0.151022
C16   C     C_R   0.971733 0.440403 0.130282 -0.142871
C17   C     C_R   0.957843 0.449406 0.369202 -0.152346
C18   C     C_R   0.526844 0.939744 0.369678 -0.146106
C19   C     C_R   0.042181 0.550604 0.369205 -0.152353
C20   C     C_R   0.473136 0.060248 0.369677 -0.146141
C21   C     C_R   0.957832 0.550605 0.630795 -0.152336
C22   C     C_R   0.526855 0.060242 0.630323 -0.146121
C23   C     C_R   0.042146 0.449391 0.630799 -0.152433
C24   C     C_R   0.473155 0.939733 0.630321 -0.146109
C25   C     C_R   0.456557 0.949270 0.898811 -0.054567
C26   C     C_R   0.028553 0.439756 0.899318 -0.061680
C27   C     C_R   0.543443 0.050741 0.898812 -0.054575
C28   C     C_R   0.971445 0.560230 0.899315 -0.061663
C29   C     C_R   0.456552 0.050734 0.101187 -0.054573
C30   C     C_R   0.028594 0.560222 0.100682 -0.061683
C31   C     C_R   0.543434 0.949263 0.101190 -0.054573
C32   C     C_R   0.971421 0.439777 0.100684 -0.061698
C33   C     C_R   0.956580 0.449219 0.398822 -0.053685
C34   C     C_R   0.527554 0.939276 0.399286 -0.057033
C35   C     C_R   0.043432 0.550790 0.398824 -0.053689
C36   C     C_R   0.472435 0.060718 0.399285 -0.057024
C37   C     C_R   0.956575 0.550790 0.601176 -0.053674
C38   C     C_R   0.527560 0.060715 0.600715 -0.057034
C39   C     C_R   0.043409 0.449206 0.601179 -0.053642
C40   C     C_R   0.472447 0.939268 0.600713 -0.057034
C41   C     C_R   0.500000 0.000004 0.914060 -0.121063
C42   C     C_R   0.999999 0.499994 0.914404 -0.108321
C43   C     C_R   0.499995 0.999998 0.085940 -0.121062
C44   C     C_R   0.000004 0.500000 0.085596 -0.108326
C45   C     C_R   0.000004 0.500004 0.414071 -0.117743
C46   C     C_R   0.499997 0.999998 0.414384 -0.109278
C47   C     C_R   0.999994 0.499998 0.585929 -0.117753
C48   C     C_R   0.500002 0.999994 0.585616 -0.109279
C49   C     C_R   0.500002 0.000009 0.854332 0.332009
C50   C     C_R   0.999998 0.499988 0.854818 0.321643
C51   C     C_R   0.499988 1.000000 0.145668 0.332010
C52   C     C_R   0.000018 0.499998 0.145182 0.321561
C53   C     C_R   0.000015 0.500005 0.354403 0.339472
C54   C     C_R   0.499988 0.999995 0.354879 0.335214
C55   C     C_R   0.999988 0.499998 0.645597 0.339567
C56   C     C_R   0.500006 0.999985 0.645121 0.335190
C57   C     C_1   0.782688 0.000001 0.999999 -0.215880
C58   C     C_1   0.000001 0.782686 0.000001 -0.201007
C59   C     C_1   0.217312 0.999999 0.000000 -0.215886
C60   C     C_1   0.999998 0.217314 0.999999 -0.201005
C61   C     C_1   0.282688 0.500000 0.500000 -0.215930
C62   C     C_1   0.500001 0.282686 0.500001 -0.201361
C63   C     C_1   0.717312 0.499999 0.500001 -0.215931
C64   C     C_1   0.499999 0.717314 0.499999 -0.201354
C65   C     C_1   0.717365 0.000001 1.000000 -0.206952
C66   C     C_1   0.000001 0.717375 0.000001 -0.153870
C67   C     C_1   0.282635 0.999999 0.000000 -0.206953
C68   C     C_1   0.999998 0.282625 1.000000 -0.153868
C69   C     C_1   0.217365 0.500001 0.500000 -0.207176
C70   C     C_1   0.500001 0.217374 0.500001 -0.153119
C71   C     C_1   0.782635 0.499999 0.500000 -0.207175
C72   C     C_1   0.499999 0.782625 0.499999 -0.153112
C73   C     C_R   0.500000 0.000001 0.945432 0.787793
C74   C     C_R   0.999999 0.499998 0.945548 0.822463
C75   C     C_R   0.499999 0.999999 0.054568 0.787790
C76   C     C_R   0.000001 0.500000 0.054452 0.822467
C77   C     C_R   0.000001 0.500001 0.445436 0.788290
C78   C     C_R   0.499999 0.999999 0.445541 0.820580
C79   C     C_R   0.999998 0.499999 0.554564 0.788270
C80   C     C_R   0.500001 0.999999 0.554459 0.820583
C81   C     C_R   0.639878 0.000000 1.000000 0.842649
C82   C     C_R   0.000000 0.639897 0.000000 0.873767
C83   C     C_R   0.360122 1.000000 0.000000 0.842648
C84   C     C_R   0.999999 0.360103 1.000000 0.873761
C85   C     C_R   0.139878 0.500000 0.500000 0.842132
C86   C     C_R   0.500000 0.139897 0.500000 0.873699
C87   C     C_R   0.860122 0.499999 0.500000 0.842129
C88   C     C_R   0.499999 0.860103 0.500000 0.873692
C89   C     C_R   0.962254 0.552753 0.189774 0.529004
C90   C     C_R   0.562782 0.016574 0.190200 0.527554
C91   C     C_R   0.037801 0.447250 0.189775 0.528998
C92   C     C_R   0.437190 0.983438 0.190199 0.527552
C93   C     C_R   0.962127 0.447304 0.810227 0.529004
C94   C     C_R   0.562808 0.983471 0.809801 0.527544
C95   C     C_R   0.037876 0.552666 0.810227 0.529000
C96   C     C_R   0.437201 0.016544 0.809799 0.527544
C97   C     C_R   0.436315 0.012654 0.689504 0.529299
C98   C     C_R   0.033886 0.555375 0.690022 0.529484
C99   C     C_R   0.563692 0.987310 0.689506 0.529305
C100  C     C_R   0.966088 0.444624 0.690022 0.529491
C101  C     C_R   0.436309 0.987268 0.310494 0.529311
C102  C     C_R   0.033815 0.444566 0.309979 0.529486
C103  C     C_R   0.563664 0.012729 0.310495 0.529312
C104  C     C_R   0.966238 0.555449 0.309976 0.529489
C105  C     C_R   0.035938 0.443364 0.219734 -0.063736
C106  C     C_R   0.434763 0.983947 0.220204 -0.065240
C107  C     C_R   0.964141 0.556653 0.219732 -0.063741
C108  C     C_R   0.565205 0.016075 0.220205 -0.065242
C109  C     C_R   0.036034 0.556550 0.780267 -0.063748
C110  C     C_R   0.434767 0.015997 0.779794 -0.065235
C111  C     C_R   0.963961 0.443428 0.780267 -0.063740
C112  C     C_R   0.565240 0.984002 0.779796 -0.065234
C113  C     C_R   0.565564 0.985340 0.719504 -0.066028
C114  C     C_R   0.965528 0.442341 0.720022 -0.064898
C115  C     C_R   0.434442 0.014629 0.719502 -0.066025
C116  C     C_R   0.034472 0.557642 0.720022 -0.064890
C117  C     C_R   0.565530 0.014719 0.280498 -0.066032
C118  C     C_R   0.965695 0.557737 0.279977 -0.064883
C119  C     C_R   0.434438 0.985294 0.280497 -0.066030
C120  C     C_R   0.034377 0.442284 0.279980 -0.064881
C121  C     C_R   0.000038 0.500008 0.234821 -0.040402
C122  C     C_R   0.499984 0.000009 0.235293 -0.039517
C123  C     C_R   0.999998 0.499990 0.765179 -0.040398
C124  C     C_R   0.500003 0.999996 0.764706 -0.039515
C125  C     C_R   0.500003 0.999989 0.734597 -0.039537
C126  C     C_R   0.999999 0.499991 0.735093 -0.040473
C127  C     C_R   0.499984 0.000007 0.265403 -0.039537
C128  C     C_R   0.000037 0.500010 0.264907 -0.040479
C129  C     C_R   0.068873 0.385050 0.234903 -0.070092
C130  C     C_R   0.369626 0.968482 0.235444 -0.071221
C131  C     C_R   0.931234 0.614985 0.234897 -0.070066
C132  C     C_R   0.630338 0.031557 0.235446 -0.071226
C133  C     C_R   0.069124 0.614780 0.765100 -0.070110
C134  C     C_R   0.369609 0.031367 0.764553 -0.071204
C135  C     C_R   0.930876 0.385197 0.765099 -0.070128
C136  C     C_R   0.630397 0.968619 0.764557 -0.071204
C137  C     C_R   0.630553 0.969315 0.734723 -0.071409
C138  C     C_R   0.931930 0.384480 0.735276 -0.070994
C139  C     C_R   0.369450 0.030652 0.734718 -0.071410
C140  C     C_R   0.068091 0.615490 0.735277 -0.071010
C141  C     C_R   0.630499 0.030836 0.265281 -0.071421
C142  C     C_R   0.932255 0.615686 0.264720 -0.070987
C143  C     C_R   0.369466 0.969195 0.265279 -0.071422
C144  C     C_R   0.067842 0.384347 0.264726 -0.070994
Cu1   Cu    Cu3+1 0.000000 0.000000 0.028150 0.921277
Cu2   Cu    Cu3+1 0.000000 0.000000 0.971850 0.921254
Cu3   Cu    Cu3+1 0.500000 0.500000 0.528150 0.920160
Cu4   Cu    Cu3+1 0.500000 0.500000 0.471850 0.920161
Cu5   Cu    Cu3+1 0.500000 0.072590 0.000000 0.966875
Cu6   Cu    Cu3+1 0.927410 0.500000 0.000000 0.937656
Cu7   Cu    Cu3+1 0.500000 0.927410 0.000000 0.966875
Cu8   Cu    Cu3+1 0.072590 0.500000 0.000000 0.937645
Cu9   Cu    Cu3+1 0.000000 0.572590 0.500000 0.969572
Cu10  Cu    Cu3+1 0.427410 0.000000 0.500000 0.939008
Cu11  Cu    Cu3+1 0.000000 0.427410 0.500000 0.969576
Cu12  Cu    Cu3+1 0.572590 0.000000 0.500000 0.939002
H1    H     H_    0.425136 0.910435 0.857503 0.143190
H2    H     H_    0.050121 0.394279 0.858142 0.148612
H3    H     H_    0.574867 0.089582 0.857505 0.143198
H4    H     H_    0.949877 0.605699 0.858136 0.148584
H5    H     H_    0.425127 0.089574 0.142493 0.143209
H6    H     H_    0.050206 0.605680 0.141858 0.148635
H7    H     H_    0.574851 0.910427 0.142499 0.143213
H8    H     H_    0.949828 0.394317 0.141862 0.148649
H9    H     H_    0.924562 0.411024 0.357469 0.137684
H10   H     H_    0.547271 0.893134 0.358014 0.139621
H11   H     H_    0.075466 0.588987 0.357473 0.137685
H12   H     H_    0.452706 0.106857 0.358012 0.139609
H13   H     H_    0.924558 0.588995 0.642527 0.137645
H14   H     H_    0.547281 0.106853 0.641988 0.139626
H15   H     H_    0.075418 0.411002 0.642533 0.137613
H16   H     H_    0.452730 0.893119 0.641985 0.139623
N1    N     N_R   0.000024 0.499999 0.175690 -0.453764
N2    N     N_R   0.499987 0.000003 0.176161 -0.454637
N3    N     N_R   1.000000 0.499986 0.824310 -0.453774
N4    N     N_R   0.500004 0.000009 0.823839 -0.454633
N5    N     N_R   0.500004 0.999982 0.675531 -0.456414
N6    N     N_R   0.999987 0.499999 0.676033 -0.455877
N7    N     N_R   0.499987 0.999996 0.324468 -0.456421
N8    N     N_R   0.000022 0.500006 0.323967 -0.455861
O1    O     O_R   0.999960 0.894270 0.023780 -0.594339
O2    O     O_R   0.105730 0.999960 0.023780 -0.586848
O3    O     O_R   0.000040 0.105730 0.023780 -0.594338
O4    O     O_R   0.894270 0.000040 0.023780 -0.586847
O5    O     O_R   0.999960 0.105730 0.976220 -0.594347
O6    O     O_R   0.105730 0.000040 0.976220 -0.586855
O7    O     O_R   0.000040 0.894270 0.976220 -0.594344
O8    O     O_R   0.894270 0.999960 0.976220 -0.586855
O9    O     O_R   0.499960 0.394270 0.523780 -0.594639
O10   O     O_R   0.605730 0.499960 0.523780 -0.587051
O11   O     O_R   0.500040 0.605730 0.523780 -0.594642
O12   O     O_R   0.394270 0.500040 0.523780 -0.587052
O13   O     O_R   0.499960 0.605730 0.476220 -0.594641
O14   O     O_R   0.605730 0.500040 0.476220 -0.587054
O15   O     O_R   0.500040 0.394270 0.476220 -0.594641
O16   O     O_R   0.394270 0.499960 0.476220 -0.587053
O17   O     O_R   0.500020 0.061320 0.958950 -0.575371
O18   O     O_R   0.938680 0.500020 0.958950 -0.590680
O19   O     O_R   0.499980 0.938680 0.958950 -0.575369
O20   O     O_R   0.061320 0.499980 0.958950 -0.590689
O21   O     O_R   0.500020 0.938680 0.041050 -0.575369
O22   O     O_R   0.938680 0.499980 0.041050 -0.590678
O23   O     O_R   0.499980 0.061320 0.041050 -0.575370
O24   O     O_R   0.061320 0.500020 0.041050 -0.590682
O25   O     O_R   0.000020 0.561320 0.458950 -0.574571
O26   O     O_R   0.438680 0.000020 0.458950 -0.590409
O27   O     O_R   0.999980 0.438680 0.458950 -0.574567
O28   O     O_R   0.561320 0.999980 0.458950 -0.590418
O29   O     O_R   0.000020 0.438680 0.541050 -0.574565
O30   O     O_R   0.438680 0.999980 0.541050 -0.590418
O31   O     O_R   0.999980 0.561320 0.541050 -0.574567
O32   O     O_R   0.561320 0.000020 0.541050 -0.590416
O33   O     O_R   0.605800 0.061300 0.000010 -0.578589
O34   O     O_R   0.938700 0.605800 0.000010 -0.585084
O35   O     O_R   0.394200 0.938700 0.000010 -0.578591
O36   O     O_R   0.061300 0.394200 0.000010 -0.585087
O37   O     O_R   0.605800 0.938700 0.999990 -0.578591
O38   O     O_R   0.938700 0.394200 0.999990 -0.585072
O39   O     O_R   0.394200 0.061300 0.999990 -0.578590
O40   O     O_R   0.061300 0.605800 0.999990 -0.585071
O41   O     O_R   0.105800 0.561300 0.500010 -0.578357
O42   O     O_R   0.438700 0.105800 0.500010 -0.585195
O43   O     O_R   0.894200 0.438700 0.500010 -0.578358
O44   O     O_R   0.561300 0.894200 0.500010 -0.585200
O45   O     O_R   0.105800 0.438700 0.499990 -0.578362
O46   O     O_R   0.438700 0.894200 0.499990 -0.585201
O47   O     O_R   0.894200 0.561300 0.499990 -0.578362
O48   O     O_R   0.561300 0.105800 0.499990 -0.585200
O49   O     O_2   0.922195 0.600333 0.174555 -0.543987
O50   O     O_2   0.622236 0.034066 0.174838 -0.541855
O51   O     O_2   0.077839 0.399656 0.174556 -0.544001
O52   O     O_2   0.377738 0.965939 0.174837 -0.541857
O53   O     O_2   0.922033 0.399762 0.825450 -0.544002
O54   O     O_2   0.622259 0.965970 0.825164 -0.541856
O55   O     O_2   0.077988 0.600193 0.825449 -0.543977
O56   O     O_2   0.377752 0.034058 0.825159 -0.541849
O57   O     O_2   0.375374 0.023348 0.674077 -0.541566
O58   O     O_2   0.067382 0.607383 0.674605 -0.541073
O59   O     O_2   0.624635 0.976614 0.674081 -0.541561
O60   O     O_2   0.932554 0.392640 0.674606 -0.541046
O61   O     O_2   0.375375 0.976520 0.325920 -0.541552
O62   O     O_2   0.067239 0.392512 0.325397 -0.541090
O63   O     O_2   0.624600 0.023462 0.325921 -0.541550
O64   O     O_2   0.932801 0.607499 0.325390 -0.541087
C145  C     C_R   0.102461 0.321800 0.220140 0.190080
C146  C     C_R   0.058928 0.262985 0.211378 -0.110189
C147  C     C_R   0.090782 0.203065 0.197875 -0.133718
C148  C     C_R   0.166084 0.201551 0.193124 -0.114783
C149  C     C_R   0.209712 0.259744 0.201988 -0.127884
C150  C     C_R   0.178102 0.319773 0.215478 -0.091170
H17   H     H_    0.000591 0.263660 0.215043 0.106944
H18   H     H_    0.057113 0.157836 0.191086 0.115312
H19   H     H_    0.190684 0.155375 0.182545 0.126438
H20   H     H_    0.268012 0.258358 0.198372 0.123557
H21   H     H_    0.212305 0.364629 0.222279 0.108983
C151  C     C_R   0.299976 0.950509 0.220876 0.194202
C152  C     C_R   0.250142 0.005963 0.214053 -0.107845
C153  C     C_R   0.183011 0.988387 0.201746 -0.131213
C154  C     C_R   0.165418 0.915613 0.196151 -0.105724
C155  C     C_R   0.214886 0.860232 0.202876 -0.128308
C156  C     C_R   0.281969 0.877502 0.215262 -0.096466
H22   H     H_    0.263036 0.062419 0.218574 0.110052
H23   H     H_    0.144377 0.031047 0.196691 0.116324
H24   H     H_    0.113356 0.902115 0.186692 0.116734
H25   H     H_    0.201066 0.803896 0.198634 0.122853
H26   H     H_    0.319628 0.834197 0.220700 0.109661
C157  C     C_R   0.897720 0.678269 0.220130 0.190060
C158  C     C_R   0.941333 0.737008 0.211348 -0.110252
C159  C     C_R   0.909554 0.796960 0.197839 -0.133707
C160  C     C_R   0.834249 0.798584 0.193100 -0.114767
C161  C     C_R   0.790542 0.740468 0.201983 -0.127888
C162  C     C_R   0.822078 0.680405 0.215479 -0.091123
H27   H     H_    0.999673 0.736246 0.215004 0.106942
H28   H     H_    0.943284 0.842129 0.191035 0.115332
H29   H     H_    0.809706 0.844785 0.182517 0.126398
H30   H     H_    0.732241 0.741938 0.198377 0.123562
H31   H     H_    0.787815 0.635607 0.222294 0.108979
C163  C     C_R   0.699975 0.049580 0.220879 0.194199
C164  C     C_R   0.749842 0.994162 0.214053 -0.107748
C165  C     C_R   0.816960 0.011789 0.201745 -0.131218
C166  C     C_R   0.834505 0.084577 0.196156 -0.105733
C167  C     C_R   0.785003 0.139923 0.202884 -0.128299
C168  C     C_R   0.717933 0.122602 0.215270 -0.096544
H32   H     H_    0.736985 0.937694 0.218569 0.110043
H33   H     H_    0.855620 0.969157 0.196688 0.116330
H34   H     H_    0.886556 0.098115 0.186697 0.116772
H35   H     H_    0.798786 0.196270 0.198646 0.122876
H36   H     H_    0.680248 0.165881 0.220712 0.109663
C169  C     C_R   0.102913 0.677925 0.779863 0.190081
C170  C     C_R   0.059565 0.736869 0.788632 -0.110024
C171  C     C_R   0.091609 0.796682 0.802139 -0.133705
C172  C     C_R   0.166917 0.797964 0.806887 -0.114836
C173  C     C_R   0.210363 0.739646 0.798014 -0.127870
C174  C     C_R   0.178562 0.679720 0.784521 -0.091248
H37   H     H_    0.001225 0.736372 0.784970 0.106914
H38   H     H_    0.058082 0.842008 0.808934 0.115280
H39   H     H_    0.191663 0.844060 0.817468 0.126483
H40   H     H_    0.268668 0.740852 0.801628 0.123534
H41   H     H_    0.212624 0.634765 0.777714 0.108974
C175  C     C_R   0.299922 0.049190 0.779120 0.194169
C176  C     C_R   0.250253 0.993615 0.785974 -0.107917
C177  C     C_R   0.183094 0.011035 0.798291 -0.131182
C178  C     C_R   0.165307 0.083773 0.803859 -0.105738
C179  C     C_R   0.214608 0.139277 0.797101 -0.128290
C180  C     C_R   0.281720 0.122162 0.784708 -0.096406
H42   H     H_    0.263298 0.937184 0.781474 0.110063
H43   H     H_    0.144592 0.968279 0.803373 0.116320
H44   H     H_    0.113224 0.097149 0.813326 0.116806
H45   H     H_    0.200638 0.195585 0.801323 0.122865
H46   H     H_    0.319250 0.165559 0.779245 0.109656
C181  C     C_R   0.897071 0.322057 0.779861 0.190096
C182  C     C_R   0.940387 0.263053 0.788594 -0.110063
C183  C     C_R   0.908323 0.203239 0.802094 -0.133722
C184  C     C_R   0.833027 0.202019 0.806872 -0.114839
C185  C     C_R   0.789613 0.260400 0.798037 -0.127868
C186  C     C_R   0.821434 0.320324 0.784549 -0.091237
H47   H     H_    0.998717 0.263500 0.784907 0.106923
H48   H     H_    0.941826 0.157864 0.808859 0.115271
H49   H     H_    0.808267 0.155922 0.817449 0.126508
H50   H     H_    0.731317 0.259243 0.801674 0.123540
H51   H     H_    0.787394 0.365327 0.777771 0.108990
C187  C     C_R   0.700082 0.950800 0.779128 0.194163
C188  C     C_R   0.749764 0.006373 0.785969 -0.107960
C189  C     C_R   0.816921 0.988955 0.798290 -0.131181
C190  C     C_R   0.834691 0.916220 0.803875 -0.105736
C191  C     C_R   0.785377 0.860719 0.797129 -0.128282
C192  C     C_R   0.718268 0.877831 0.784732 -0.096364
H52   H     H_    0.736731 0.062801 0.781456 0.110069
H53   H     H_    0.855433 0.031708 0.803362 0.116308
H54   H     H_    0.886771 0.902845 0.813346 0.116791
H55   H     H_    0.799335 0.804414 0.801365 0.122856
H56   H     H_    0.680727 0.834436 0.779279 0.109653
C193  C     C_R   0.699971 0.950734 0.720105 0.193886
C194  C     C_R   0.714514 0.878255 0.712367 -0.102359
C195  C     C_R   0.781245 0.860081 0.699888 -0.129167
C196  C     C_R   0.833803 0.914001 0.695195 -0.108060
C197  C     C_R   0.819652 0.986232 0.702908 -0.133458
C198  C     C_R   0.752896 0.004723 0.715310 -0.102838
H57   H     H_    0.674428 0.836008 0.716224 0.109740
H58   H     H_    0.792384 0.804142 0.693998 0.123737
H59   H     H_    0.885577 0.899772 0.685662 0.116907
H60   H     H_    0.860612 0.027749 0.699408 0.115480
H61   H     H_    0.742643 0.060695 0.721456 0.111059
C199  C     C_R   0.898545 0.320881 0.720692 0.190844
C200  C     C_R   0.823946 0.321189 0.713931 -0.096040
C201  C     C_R   0.792324 0.260589 0.700827 -0.124791
C202  C     C_R   0.834895 0.199502 0.694458 -0.114207
C203  C     C_R   0.909135 0.198759 0.701287 -0.136087
C204  C     C_R   0.940985 0.259229 0.714411 -0.105311
H62   H     H_    0.790541 0.368221 0.718861 0.109565
H63   H     H_    0.734823 0.260962 0.695609 0.125999
H64   H     H_    0.810309 0.152807 0.684218 0.129470
H65   H     H_    0.941985 0.151334 0.696424 0.114339
H66   H     H_    0.998452 0.258097 0.719744 0.107893
C205  C     C_R   0.300023 0.049196 0.720098 0.193889
C206  C     C_R   0.285453 0.121663 0.712349 -0.102291
C207  C     C_R   0.218713 0.139800 0.699868 -0.129181
C208  C     C_R   0.166174 0.085857 0.695183 -0.108056
C209  C     C_R   0.180354 0.013638 0.702907 -0.133433
C210  C     C_R   0.247118 0.995184 0.715312 -0.102916
H67   H     H_    0.325523 0.163928 0.716198 0.109734
H68   H     H_    0.207552 0.195731 0.693969 0.123711
H69   H     H_    0.114394 0.100058 0.685648 0.116858
H70   H     H_    0.139409 0.972102 0.699414 0.115457
H71   H     H_    0.257391 0.939221 0.721466 0.111064
C211  C     C_R   0.101555 0.679050 0.720693 0.190844
C212  C     C_R   0.176129 0.678595 0.713891 -0.096064
C213  C     C_R   0.207837 0.739157 0.700792 -0.124787
C214  C     C_R   0.165378 0.800356 0.694470 -0.114218
C215  C     C_R   0.091166 0.801247 0.701340 -0.136108
C216  C     C_R   0.059230 0.740812 0.714458 -0.105315
H72   H     H_    0.209448 0.631477 0.718786 0.109590
H73   H     H_    0.265317 0.738668 0.695543 0.125999
H74   H     H_    0.190029 0.847026 0.684235 0.129523
H75   H     H_    0.058403 0.848758 0.696514 0.114324
H76   H     H_    0.001786 0.742061 0.719823 0.107911
C217  C     C_R   0.699889 0.049524 0.279901 0.193916
C218  C     C_R   0.714313 0.122024 0.287644 -0.102354
C219  C     C_R   0.781023 0.140307 0.300117 -0.129160
C220  C     C_R   0.833680 0.086477 0.304799 -0.108066
C221  C     C_R   0.819646 0.014225 0.297082 -0.133500
C222  C     C_R   0.752910 0.995625 0.284687 -0.102826
H77   H     H_    0.674153 0.164203 0.283795 0.109734
H78   H     H_    0.792072 0.196263 0.306011 0.123735
H79   H     H_    0.885440 0.100793 0.314326 0.116874
H80   H     H_    0.860685 0.972779 0.300571 0.115488
H81   H     H_    0.742749 0.939638 0.278538 0.111025
C223  C     C_R   0.899016 0.679362 0.279302 0.190841
C224  C     C_R   0.824425 0.679201 0.286077 -0.096040
C225  C     C_R   0.792934 0.739876 0.299175 -0.124811
C226  C     C_R   0.835629 0.800892 0.305524 -0.114182
C227  C     C_R   0.909861 0.801490 0.298681 -0.136110
C228  C     C_R   0.941581 0.740943 0.285564 -0.105385
H82   H     H_    0.790925 0.632226 0.281161 0.109600
H83   H     H_    0.735440 0.739615 0.304403 0.126024
H84   H     H_    0.811143 0.847645 0.315759 0.129363
H85   H     H_    0.942805 0.848863 0.303527 0.114375
H86   H     H_    0.999042 0.741962 0.280219 0.107930
C229  C     C_R   0.300067 0.950538 0.279897 0.193920
C230  C     C_R   0.285594 0.878039 0.287630 -0.102351
C231  C     C_R   0.218872 0.859787 0.300100 -0.129175
C232  C     C_R   0.166253 0.913647 0.304789 -0.108063
C233  C     C_R   0.180335 0.985898 0.297083 -0.133485
C234  C     C_R   0.247083 0.004467 0.284691 -0.102832
H87   H     H_    0.325725 0.835837 0.283773 0.109738
H88   H     H_    0.207785 0.803831 0.305984 0.123728
H89   H     H_    0.114484 0.899355 0.314314 0.116855
H90   H     H_    0.139325 0.027368 0.300579 0.115485
H91   H     H_    0.257280 0.060454 0.278550 0.111036
C235  C     C_R   0.101116 0.320692 0.279311 0.190846
C236  C     C_R   0.175706 0.320898 0.286089 -0.096056
C237  C     C_R   0.207230 0.260244 0.299192 -0.124803
C238  C     C_R   0.164571 0.199204 0.305542 -0.114191
C239  C     C_R   0.090341 0.198559 0.298695 -0.136113
C240  C     C_R   0.058588 0.259086 0.285573 -0.105345
H92   H     H_    0.209179 0.367893 0.281173 0.109590
H93   H     H_    0.264723 0.260540 0.304422 0.126014
H94   H     H_    0.189082 0.152466 0.315780 0.129390
H95   H     H_    0.057424 0.151168 0.303541 0.114362
H96   H     H_    0.001128 0.258031 0.280226 0.107926
C241  C     C_R   0.406297 0.897678 0.912972 0.135370
C242  C     C_R   0.347086 0.923728 0.928911 -0.109838
C243  C     C_R   0.298260 0.874749 0.941402 -0.117656
C244  C     C_R   0.308326 0.799675 0.938163 -0.112329
C245  C     C_R   0.366965 0.773400 0.922255 -0.139994
C246  C     C_R   0.415635 0.822159 0.909561 -0.142735
H97   H     H_    0.338447 0.981806 0.931430 0.111025
H98   H     H_    0.252398 0.894925 0.953486 0.137292
H99   H     H_    0.270508 0.761881 0.947874 0.125644
H100  H     H_    0.374537 0.715243 0.919662 0.128388
H101  H     H_    0.460656 0.801167 0.897155 0.125817
C247  C     C_R   0.056197 0.373984 0.913823 0.092561
C248  C     C_R   0.013923 0.310172 0.914251 -0.165069
C249  C     C_R   0.040603 0.247158 0.927291 -0.134994
C250  C     C_R   0.109539 0.247509 0.939949 -0.101445
C251  C     C_R   0.151990 0.310844 0.939494 -0.138067
C252  C     C_R   0.125655 0.373865 0.926325 -0.099951
H102  H     H_    0.960485 0.309294 0.904469 0.148359
H103  H     H_    0.007805 0.198089 0.927600 0.152003
H104  H     H_    0.130006 0.198741 0.950120 0.136033
H105  H     H_    0.205419 0.311008 0.949241 0.126032
H106  H     H_    0.159333 0.422383 0.925787 0.133165
C253  C     C_R   0.593701 0.102332 0.912975 0.135372
C254  C     C_R   0.652915 0.076282 0.928913 -0.109840
C255  C     C_R   0.701740 0.125261 0.941404 -0.117652
C256  C     C_R   0.691669 0.200335 0.938167 -0.112324
C257  C     C_R   0.633027 0.226611 0.922259 -0.140001
C258  C     C_R   0.584358 0.177852 0.909564 -0.142734
H107  H     H_    0.661559 0.018204 0.931430 0.111028
H108  H     H_    0.747605 0.105085 0.953488 0.137291
H109  H     H_    0.729486 0.238129 0.947878 0.125643
H110  H     H_    0.625450 0.284767 0.919667 0.128385
H111  H     H_    0.539335 0.198844 0.897159 0.125820
C259  C     C_R   0.943805 0.626005 0.913816 0.092576
C260  C     C_R   0.986089 0.689809 0.914248 -0.165068
C261  C     C_R   0.959416 0.752825 0.927287 -0.135018
C262  C     C_R   0.890476 0.752483 0.939940 -0.101443
C263  C     C_R   0.848014 0.689155 0.939482 -0.138067
C264  C     C_R   0.874343 0.626132 0.926314 -0.099972
H112  H     H_    0.039531 0.690680 0.904470 0.148354
H113  H     H_    0.992222 0.801888 0.927599 0.151994
H114  H     H_    0.870014 0.801252 0.950111 0.136038
H115  H     H_    0.794582 0.688997 0.949226 0.126034
H116  H     H_    0.840658 0.577619 0.925774 0.133154
C265  C     C_R   0.406298 0.102327 0.087023 0.135369
C266  C     C_R   0.347083 0.076279 0.071085 -0.109841
C267  C     C_R   0.298263 0.125259 0.058592 -0.117640
C268  C     C_R   0.308339 0.200334 0.061828 -0.112325
C269  C     C_R   0.366982 0.226607 0.077735 -0.139996
C270  C     C_R   0.415646 0.177846 0.090431 -0.142712
H117  H     H_    0.338436 0.018201 0.068568 0.111028
H118  H     H_    0.252398 0.105085 0.046507 0.137291
H119  H     H_    0.270525 0.238129 0.052114 0.125639
H120  H     H_    0.374562 0.284763 0.080325 0.128383
H121  H     H_    0.460670 0.198837 0.102837 0.125820
C271  C     C_R   0.056257 0.625987 0.086178 0.092586
C272  C     C_R   0.013992 0.689803 0.085743 -0.165040
C273  C     C_R   0.040685 0.752809 0.072700 -0.135030
C274  C     C_R   0.109625 0.752444 0.060047 -0.101447
C275  C     C_R   0.152067 0.689105 0.060508 -0.138042
C276  C     C_R   0.125719 0.626092 0.073680 -0.099961
H122  H     H_    0.960550 0.690691 0.095521 0.148367
H123  H     H_    0.007894 0.801881 0.072387 0.152018
H124  H     H_    0.130101 0.801205 0.049873 0.136008
H125  H     H_    0.205499 0.688930 0.050765 0.126021
H126  H     H_    0.159388 0.577570 0.074223 0.133138
C277  C     C_R   0.593693 0.897672 0.087030 0.135368
C278  C     C_R   0.652906 0.923722 0.071091 -0.109839
C279  C     C_R   0.701729 0.874745 0.058601 -0.117648
C280  C     C_R   0.691659 0.799670 0.061840 -0.112323
C281  C     C_R   0.633019 0.773394 0.077748 -0.139991
C282  C     C_R   0.584352 0.822153 0.090442 -0.142719
H127  H     H_    0.661548 0.981801 0.068572 0.111025
H128  H     H_    0.747592 0.894921 0.046516 0.137290
H129  H     H_    0.729476 0.761877 0.052129 0.125642
H130  H     H_    0.625444 0.715238 0.080341 0.128386
H131  H     H_    0.539330 0.801160 0.102847 0.125821
C283  C     C_R   0.943755 0.374013 0.086181 0.092588
C284  C     C_R   0.986021 0.310199 0.085745 -0.165037
C285  C     C_R   0.959328 0.247195 0.072702 -0.135035
C286  C     C_R   0.890385 0.247560 0.060050 -0.101446
C287  C     C_R   0.847940 0.310898 0.060514 -0.138037
C288  C     C_R   0.874289 0.373908 0.073686 -0.099964
H132  H     H_    0.039466 0.309311 0.095521 0.148364
H133  H     H_    0.992121 0.198125 0.072387 0.152018
H134  H     H_    0.869908 0.198801 0.049876 0.136009
H135  H     H_    0.794505 0.311073 0.050771 0.126020
H136  H     H_    0.840618 0.422430 0.074230 0.133138
C289  C     C_R   0.906702 0.397231 0.412973 0.129680
C290  C     C_R   0.847711 0.422771 0.429157 -0.117907
C291  C     C_R   0.799356 0.373382 0.441682 -0.115812
C292  C     C_R   0.809643 0.298403 0.438213 -0.113363
C293  C     C_R   0.868030 0.272634 0.422044 -0.144459
C294  C     C_R   0.916247 0.321803 0.409329 -0.136687
H137  H     H_    0.838900 0.480769 0.431856 0.109984
H138  H     H_    0.753692 0.393165 0.453975 0.136772
H139  H     H_    0.772185 0.260293 0.447948 0.125879
H140  H     H_    0.875767 0.214554 0.419270 0.130142
H141  H     H_    0.961089 0.301197 0.396728 0.137631
C295  C     C_R   0.554897 0.873409 0.413803 0.094379
C296  C     C_R   0.512262 0.809853 0.414360 -0.176455
C297  C     C_R   0.538797 0.746718 0.427357 -0.130971
C298  C     C_R   0.607938 0.746704 0.439848 -0.101732
C299  C     C_R   0.650716 0.809809 0.439290 -0.139722
C300  C     C_R   0.624524 0.872946 0.426165 -0.090979
H142  H     H_    0.458669 0.809257 0.404705 0.139020
H143  H     H_    0.505732 0.697834 0.427756 0.151474
H144  H     H_    0.628302 0.697838 0.449980 0.136302
H145  H     H_    0.704292 0.809701 0.448916 0.127227
H146  H     H_    0.658463 0.921276 0.425532 0.135939
C301  C     C_R   0.093303 0.602779 0.412978 0.129680
C302  C     C_R   0.152297 0.577242 0.429162 -0.117914
C303  C     C_R   0.200646 0.626634 0.441688 -0.115807
C304  C     C_R   0.190350 0.701612 0.438221 -0.113361
C305  C     C_R   0.131958 0.727378 0.422052 -0.144459
C306  C     C_R   0.083748 0.678207 0.409336 -0.136674
H147  H     H_    0.161116 0.519244 0.431859 0.109991
H148  H     H_    0.246314 0.606853 0.453982 0.136770
H149  H     H_    0.227802 0.739724 0.447958 0.125879
H150  H     H_    0.124214 0.785458 0.419280 0.130143
H151  H     H_    0.038902 0.698812 0.396735 0.137635
C307  C     C_R   0.445097 0.126586 0.413800 0.094390
C308  C     C_R   0.487742 0.190135 0.414360 -0.176456
C309  C     C_R   0.461213 0.253271 0.427357 -0.130987
C310  C     C_R   0.392069 0.253292 0.439845 -0.101728
C311  C     C_R   0.349282 0.190193 0.439283 -0.139722
C312  C     C_R   0.375468 0.127056 0.426158 -0.090992
H152  H     H_    0.541337 0.190725 0.404708 0.139017
H153  H     H_    0.494285 0.302149 0.427758 0.151473
H154  H     H_    0.371710 0.302158 0.449977 0.136306
H155  H     H_    0.295704 0.190307 0.448906 0.127228
H156  H     H_    0.341523 0.078731 0.425524 0.135931
C313  C     C_R   0.906708 0.602783 0.587022 0.129691
C314  C     C_R   0.847713 0.577249 0.570837 -0.117878
C315  C     C_R   0.799369 0.626644 0.558310 -0.115804
C316  C     C_R   0.809671 0.701621 0.561776 -0.113369
C317  C     C_R   0.868063 0.727384 0.577945 -0.144455
C318  C     C_R   0.916269 0.678210 0.590663 -0.136696
H157  H     H_    0.838891 0.519252 0.568140 0.109990
H158  H     H_    0.753702 0.606865 0.546016 0.136766
H159  H     H_    0.772222 0.739735 0.552038 0.125877
H160  H     H_    0.875811 0.785463 0.580717 0.130136
H161  H     H_    0.961115 0.698812 0.603264 0.137598
C319  C     C_R   0.554898 0.126586 0.586200 0.094386
C320  C     C_R   0.512259 0.190137 0.585642 -0.176465
C321  C     C_R   0.538790 0.253276 0.572646 -0.130974
C322  C     C_R   0.607931 0.253298 0.560156 -0.101725
C323  C     C_R   0.650713 0.190197 0.560714 -0.139725
C324  C     C_R   0.624525 0.127057 0.573839 -0.090982
H162  H     H_    0.458666 0.190727 0.595296 0.139007
H163  H     H_    0.505721 0.302156 0.572247 0.151467
H164  H     H_    0.628291 0.302166 0.550025 0.136308
H165  H     H_    0.704289 0.190311 0.551090 0.127230
H166  H     H_    0.658467 0.078731 0.574471 0.135938
C325  C     C_R   0.093282 0.397216 0.587028 0.129699
C326  C     C_R   0.152275 0.422753 0.570844 -0.117885
C327  C     C_R   0.200624 0.373361 0.558319 -0.115811
C328  C     C_R   0.190330 0.298384 0.561789 -0.113366
C329  C     C_R   0.131941 0.272617 0.577958 -0.144461
C330  C     C_R   0.083730 0.321788 0.590673 -0.136718
H167  H     H_    0.161092 0.480751 0.568145 0.109982
H168  H     H_    0.246289 0.393143 0.546025 0.136766
H169  H     H_    0.227782 0.260271 0.552053 0.125878
H170  H     H_    0.124199 0.214538 0.580733 0.130134
H171  H     H_    0.038886 0.301184 0.603274 0.137589
C331  C     C_R   0.445107 0.873401 0.586197 0.094384
C332  C     C_R   0.487744 0.809849 0.585640 -0.176472
C333  C     C_R   0.461211 0.746713 0.572643 -0.130978
C334  C     C_R   0.392070 0.746696 0.560152 -0.101733
C335  C     C_R   0.349289 0.809798 0.560710 -0.139728
C336  C     C_R   0.375480 0.872935 0.573835 -0.090980
H172  H     H_    0.541337 0.809255 0.595295 0.139010
H173  H     H_    0.494278 0.697832 0.572245 0.151472
H174  H     H_    0.371708 0.697830 0.550021 0.136307
H175  H     H_    0.295713 0.809687 0.551085 0.127229
H176  H     H_    0.341539 0.921262 0.574468 0.135940

loop_
_geom_bond_atom_site_label_1
_geom_bond_atom_site_label_2
_ccdc_geom_bond_type
C145  C150  A    
C207  C208  A    
C153  H23   S    
C33   C45   A    
C262  C263  A    
C301  C302  A    
C120  C144  A    
C322  C323  A    
C275  C276  A    
C197  C198  A    
C18   H10   S    
C11   H3    S    
C183  H48   S    
C129  C145  S    
C317  C318  A    
C175  C176  A    
Cu1   O4    S    
C167  C168  A    
C261  H113  S    
C95   O55   S    
C300  H146  S    
C15   H7    S    
C112  C124  A    
Cu11  O27   S    
C210  H71   S    
C131  C157  S    
C92   O52   S    
Cu3   O10   S    
C180  H46   S    
C22   C38   A    
C241  C246  A    
C176  C177  A    
C119  C143  A    
C323  C324  A    
C91   N1    A    
C40   C48   A    
C245  C246  A    
C95   N3    A    
C165  H33   S    
C13   C51   A    
C289  C294  A    
C14   C52   A    
C171  C172  A    
C189  C190  A    
C299  H145  S    
C29   C265  S    
C191  C192  A    
C15   C51   A    
C97   C115  A    
Cu5   O23   S    
C295  C300  A    
C34   C295  S    
C321  H163  S    
Cu12  O48   S    
C140  C211  S    
C224  H82   S    
Cu7   O35   S    
C322  H164  S    
C138  C199  S    
C172  H39   S    
C103  C117  A    
C19   H11   S    
Cu7   O21   S    
C143  C229  S    
C213  C214  A    
Cu1   Cu2   S    
C43   C75   S    
C244  H99   S    
C109  C133  A    
C293  H140  S    
Cu2   O7    S    
Cu11  O29   S    
C121  C128  A    
C139  C205  S    
C95   C109  A    
C25   C41   A    
C160  C161  A    
C1    O1    A    
C2    C59   S    
C94   O54   S    
C123  C126  A    
C22   C56   A    
C184  C185  A    
C147  H18   S    
C39   C47   A    
C170  H37   S    
C87   O43   A    
C6    C63   S    
Cu10  O42   S    
C296  H142  S    
C230  H87   S    
C11   C49   A    
C77   O25   A    
C66   C82   S    
C157  C162  A    
C205  C206  A    
C11   C27   A    
C296  C297  A    
C292  C293  A    
C303  H148  S    
C283  C284  A    
C100  C114  A    
C134  C175  S    
C22   H14   S    
C84   O38   A    
C92   C106  A    
C247  C248  A    
C115  C139  A    
C304  H149  S    
C221  C222  A    
C55   N6    S    
C113  C137  A    
C280  C281  A    
C35   C45   A    
C6    O14   A    
C97   O57   S    
C251  C252  A    
C80   O30   A    
Cu2   O8    S    
C166  H34   S    
C106  C130  A    
C291  H138  S    
C168  H36   S    
C148  H19   S    
Cu9   O47   S    
C265  C270  A    
C196  C197  A    
C320  H162  S    
C23   C55   A    
C169  C174  A    
C24   C56   A    
C141  C217  S    
C90   N2    A    
C310  H154  S    
C326  C327  A    
C4    O8    A    
C312  H156  S    
C330  H171  S    
C5    O9    A    
C217  C222  A    
Cu10  O30   S    
C315  C316  A    
C19   C35   A    
C309  C310  A    
C219  H78   S    
C289  C290  A    
C8    O12   A    
Cu1   O2    S    
C278  C279  A    
C40   C331  S    
C271  C276  A    
C301  C306  A    
C37   C313  S    
C255  C256  A    
Cu12  O28   S    
C259  C260  A    
Cu5   O33   S    
C319  C324  A    
C214  H74   S    
Cu4   O13   S    
C156  H26   S    
C38   C319  S    
C302  C303  A    
C266  C267  A    
C259  C264  A    
C308  H152  S    
C254  C255  A    
C137  C193  S    
C218  C219  A    
C211  C216  A    
C161  C162  A    
C220  C221  A    
C175  C180  A    
C286  H134  S    
C306  H151  S    
C67   C83   S    
C241  C242  A    
C193  C198  A    
C102  N8    A    
C91   C105  A    
Cu2   O5    S    
Cu11  O43   S    
Cu3   Cu4   S    
C100  N6    A    
C215  C216  A    
C201  H63   S    
C129  C144  A    
C320  C321  A    
C16   H8    S    
Cu8   O36   S    
Cu8   O20   S    
C149  C150  A    
C227  H85   S    
C31   C43   A    
C159  H28   S    
C176  H42   S    
C237  C238  A    
C170  C171  A    
C270  H121  S    
C77   O27   A    
C336  H176  S    
C114  C126  A    
C229  C230  A    
Cu1   O1    S    
C182  C183  A    
C329  H170  S    
Cu5   O39   S    
C122  C127  A    
C44   C76   S    
C313  C314  A    
C203  C204  A    
C59   C67   T    
C202  H64   S    
C257  H110  S    
C221  H80   S    
C81   O33   A    
C74   O18   A    
C252  H106  S    
Cu3   O11   S    
C223  C224  A    
C74   O20   A    
C245  H100  S    
C88   O44   A    
C36   C46   A    
C209  H70   S    
C102  O62   S    
C37   C47   A    
C315  H158  S    
C10   H2    S    
C38   C48   A    
C197  H60   S    
C80   O32   A    
C303  C304  A    
C33   C289  S    
C167  H35   S    
C286  C287  A    
C187  C188  A    
C112  C136  A    
C269  C270  A    
C3    O5    A    
C255  H108  S    
C146  H17   S    
C1    O7    A    
C32   C44   A    
C161  H30   S    
C290  H137  S    
C263  C264  A    
C9    C49   A    
C165  C166  A    
C134  C139  A    
C240  H96   S    
C75   O23   A    
C194  C195  A    
C109  C123  A    
C92   N2    A    
C189  H53   S    
C309  H153  S    
C93   N3    A    
C195  C196  A    
C91   O51   S    
C50   N3    S    
C51   N2    S    
C173  C174  A    
C83   O39   A    
Cu4   O15   S    
C308  C309  A    
C36   C307  S    
C81   O37   A    
C106  C122  A    
C152  C153  A    
C169  C170  A    
C23   H15   S    
C235  C236  A    
C212  H72   S    
Cu9   O25   S    
C256  H109  S    
C244  C245  A    
C216  H76   S    
C163  C168  A    
C242  C243  A    
C110  C134  A    
C85   O45   A    
C291  C292  A    
C272  H122  S    
C209  C210  A    
C69   C85   S    
C26   C42   A    
C232  C233  A    
C17   H9    S    
C132  C141  A    
C325  C330  A    
Cu11  O45   S    
C236  H92   S    
C304  C305  A    
C160  H29   S    
C215  H75   S    
C230  C231  A    
C254  H107  S    
C12   C50   A    
C298  C299  A    
C15   C31   A    
C178  H44   S    
C135  C181  S    
C16   C32   A    
Cu1   O3    S    
C283  C288  A    
Cu12  O44   S    
C153  C154  A    
C90   C108  A    
C174  H41   S    
C155  C156  A    
C194  H57   S    
C222  H81   S    
Cu3   O9    S    
C21   H13   S    
C94   C112  A    
C150  H21   S    
C100  O60   S    
C280  H129  S    
C114  C138  A    
C273  C274  A    
C24   H16   S    
C78   O28   A    
C108  C132  A    
C297  C298  A    
C41   C73   S    
C325  C326  A    
C185  C186  A    
C268  C269  A    
C284  H132  S    
C94   N4    A    
C277  C278  A    
C163  C164  A    
C90   O50   S    
C45   C77   S    
C226  H84   S    
C145  C146  A    
C281  C282  A    
C85   O41   A    
C204  H66   S    
C119  C127  A    
C228  H86   S    
C238  C239  A    
C273  H123  S    
C281  H130  S    
C19   C53   A    
C274  C275  A    
C89   N1    A    
C7    O11   A    
C249  C250  A    
C75   O21   A    
C9    C25   A    
C219  C220  A    
C27   C253  S    
C288  H136  S    
C79   O31   A    
C258  H111  S    
C256  C257  A    
C56   N5    S    
C12   C28   A    
C193  C194  A    
C316  C317  A    
C13   C29   A    
C199  C204  A    
C195  H58   S    
C302  H147  S    
C61   C69   T    
C266  H117  S    
C184  H49   S    
C54   N7    S    
C311  C312  A    
C218  H77   S    
C211  C212  A    
C110  C124  A    
C321  C322  A    
C335  H175  S    
C294  H141  S    
C164  C165  A    
C277  C282  A    
C26   C247  S    
Cu9   Cu11  S    
Cu10  Cu12  S    
C231  H88   S    
C99   O59   S    
C3    C60   S    
C82   O40   A    
C267  H118  S    
C149  H20   S    
C159  C160  A    
C29   C43   A    
C30   C44   A    
C229  C234  A    
C17   C33   A    
C271  C272  A    
C231  C232  A    
C104  C118  A    
C287  H135  S    
C179  H45   S    
C42   C74   S    
C285  H133  S    
C111  C123  A    
C257  C258  A    
C68   C84   S    
C187  C192  A    
C324  H166  S    
C154  H24   S    
C202  C203  A    
C46   C78   S    
C146  C147  A    
C136  C137  A    
C93   O53   S    
C223  C228  A    
C96   C110  A    
C177  H43   S    
C329  C330  A    
C282  H131  S    
C14   H6    S    
C117  C141  A    
C332  C333  A    
C78   O26   A    
Cu9   O41   S    
C272  C273  A    
C65   C81   S    
C9    H1    S    
C269  H120  S    
C89   C107  A    
C206  H67   S    
C190  H54   S    
C164  H32   S    
C12   H4    S    
C117  C127  A    
C253  C258  A    
C63   C71   T    
C93   C111  A    
C71   C87   S    
C307  C312  A    
C20   C54   A    
C186  H51   S    
C87   O47   A    
C263  H115  S    
C239  C240  A    
C234  H91   S    
Cu6   O22   S    
C10   C50   A    
C17   C53   A    
C225  H83   S    
C102  C120  A    
C148  C149  A    
C21   C55   A    
C250  H104  S    
C260  C261  A    
C79   O29   A    
C287  C288  A    
C96   N4    A    
C290  C291  A    
Cu2   O6    S    
C185  H50   S    
C16   C52   A    
C57   C65   T    
C227  C228  A    
C31   C277  S    
C99   C113  A    
C83   O35   A    
C152  H22   S    
C120  C128  A    
C225  C226  A    
C98   O58   S    
C39   C325  S    
C264  H116  S    
C262  H114  S    
C276  H126  S    
C157  C158  A    
Cu5   Cu7   S    
C171  H38   S    
C235  C240  A    
C142  C223  S    
C275  H125  S    
C111  C135  A    
C183  C184  A    
C192  H56   S    
C334  H174  S    
C8    O16   A    
C103  N7    A    
C190  C191  A    
C232  H89   S    
C20   C36   A    
C21   C37   A    
C158  C159  A    
C60   C68   T    
C133  C140  A    
C274  H124  S    
C236  C237  A    
C323  H165  S    
Cu8   O24   S    
C155  H25   S    
C238  H94   S    
Cu6   O18   S    
C49   N4    S    
C327  H168  S    
C133  C169  S    
C316  H159  S    
C135  C138  A    
C181  C182  A    
C162  H31   S    
C317  H160  S    
Cu12  O32   S    
C86   O48   A    
C233  C234  A    
C47   C79   S    
C279  H128  S    
C226  C227  A    
C104  N8    A    
C285  C286  A    
C172  C173  A    
C99   N5    A    
C297  H143  S    
C2    O2    A    
C213  H73   S    
C76   O22   A    
C113  C125  A    
C268  H119  S    
C284  C285  A    
C73   O19   A    
C200  H62   S    
C30   C271  S    
C188  H52   S    
C298  H144  S    
C199  C200  A    
C32   C283  S    
C82   O34   A    
C97   N5    A    
C58   C66   T    
C328  H169  S    
C295  C296  A    
C73   O17   A    
C4    C57   S    
C220  H79   S    
C103  O63   S    
C305  C306  A    
C136  C187  S    
C7    O13   A    
C101  O61   S    
C279  C280  A    
C173  H40   S    
C249  H103  S    
C8    C61   S    
C5    O15   A    
C151  C156  A    
Cu10  O46   S    
Cu6   O34   S    
C205  C210  A    
C178  C179  A    
C116  C126  A    
C292  H139  S    
C62   C70   T    
C118  C128  A    
C14   C30   A    
C72   C88   S    
Cu4   O16   S    
C203  H65   S    
C310  C311  A    
C246  H101  S    
C144  C235  S    
C247  C252  A    
C20   H12   S    
C88   O46   A    
C331  C332  A    
C311  H155  S    
C101  C119  A    
C267  C268  A    
Cu7   O19   S    
C248  H102  S    
C333  C334  A    
C107  C131  A    
C260  H112  S    
C251  H105  S    
C243  C244  A    
Cu9   O31   S    
C335  C336  A    
C261  C262  A    
C105  C129  A    
C166  C167  A    
C104  O64   S    
C318  H161  S    
C334  C335  A    
C198  H61   S    
C158  H27   S    
C2    O6    A    
C196  H59   S    
C101  N7    A    
C212  C213  A    
C27   C41   A    
C98   C116  A    
C132  C163  S    
Cu3   O12   S    
C313  C318  A    
C151  C152  A    
C6    O10   A    
Cu7   O37   S    
C265  C266  A    
C96   O56   S    
C105  C121  A    
C208  H69   S    
C326  H167  S    
C4    O4    A    
C130  C143  A    
C18   C34   A    
C217  C218  A    
Cu10  O26   S    
C131  C142  A    
C239  H95   S    
C34   C46   A    
C179  C180  A    
C237  H93   S    
C327  C328  A    
C278  H127  S    
Cu6   Cu8   S    
C98   N6    A    
C154  C155  A    
C70   C86   S    
C53   N8    S    
C319  C320  A    
Cu6   O38   S    
C214  C215  A    
C332  H172  S    
Cu4   O14   S    
C207  H68   S    
C177  C178  A    
C307  C308  A    
C108  C122  A    
C118  C142  A    
C333  H173  S    
C147  C148  A    
C76   O24   A    
C13   H5    S    
C243  H98   S    
C115  C125  A    
C331  C336  A    
C25   C241  S    
C48   C80   S    
C253  C254  A    
C35   C301  S    
C1    C58   S    
C10   C26   A    
C201  C202  A    
C224  C225  A    
C3    O3    A    
C23   C39   A    
Cu8   O40   S    
C28   C42   A    
C206  C207  A    
C24   C40   A    
C5    C62   S    
C328  C329  A    
C188  C189  A    
C314  H157  S    
C64   C72   T    
C208  C209  A    
C28   C259  S    
C7    C64   S    
C18   C54   A    
C250  C251  A    
C242  H97   S    
C299  C300  A    
C248  C249  A    
C314  C315  A    
C233  H90   S    
C191  H55   S    
C107  C121  A    
C182  H47   S    
C86   O42   A    
C89   O49   S    
C200  C201  A    
C181  C186  A    
C305  H150  S    
C52   N1    S    
C293  C294  A    
C84   O36   A    
Cu5   O17   S    
C124  C125  A    
C116  C140  A    
C130  C151  S    
